data_str_m3_o1_o17_pcu_sym.96
_audit_creation_date              2020-01-03
_audit_creation_method            'Materials Studio'
_symmetry_space_group_name_H-M    'P1'
_symmetry_Int_Tables_number       1
_symmetry_cell_setting            triclinic
loop_
_symmetry_equiv_pos_as_xyz
  x,y,z
_cell_length_a                    32.4476
_cell_length_b                    29.5431
_cell_length_c                    30.0167
_cell_angle_alpha                 90.0799
_cell_angle_beta                  91.2322
_cell_angle_gamma                 90.9260
loop_
_atom_site_label
_atom_site_type_symbol
_atom_site_fract_x
_atom_site_fract_y
_atom_site_fract_z
_atom_site_U_iso_or_equiv
_atom_site_adp_type
_atom_site_occupancy
C1     C     0.08676   0.16628   0.25355   0.00000  Uiso   1.00
C2     C     0.04229   0.16561   0.25687   0.00000  Uiso   1.00
C3     C     0.19141   0.02455   0.27934   0.00000  Uiso   1.00
C4     C     0.14192   0.30878   0.22066   0.00000  Uiso   1.00
C5     C     0.14217   0.02360   0.22042   0.00000  Uiso   1.00
C6     C     0.19116   0.30974   0.27958   0.00000  Uiso   1.00
C7     C     0.16668   0.16665   0.16328   0.00000  Uiso   1.00
C8     C     0.16665   0.16669   0.33672   0.00000  Uiso   1.00
C9     C     0.16739   0.12548   0.40754   0.00000  Uiso   1.00
C10    C     0.16595   0.20785   0.09246   0.00000  Uiso   1.00
C11    C     0.16651   0.16670   0.38468   0.00000  Uiso   1.00
C12    C     0.24658   0.16705   0.24645   0.00000  Uiso   1.00
C13    C     0.16682   0.16663   0.11532   0.00000  Uiso   1.00
C14    C     0.16550   0.20790   0.40762   0.00000  Uiso   1.00
C15    C     0.16783   0.12544   0.09238   0.00000  Uiso   1.00
C16    C     0.16561   0.20820   0.45370   0.00000  Uiso   1.00
C17    C     0.16773   0.12513   0.04630   0.00000  Uiso   1.00
C18    C     0.16661   0.16667   0.47683   0.00000  Uiso   1.00
C19    C     0.16673   0.16666   0.02317   0.00000  Uiso   1.00
C20    C     0.16748   0.12516   0.45361   0.00000  Uiso   1.00
C21    C     0.16585   0.20818   0.04639   0.00000  Uiso   1.00
C22    C     0.16475   0.24928   0.47695   0.00000  Uiso   1.00
C23    C     0.16487   0.24927   0.02323   0.00000  Uiso   1.00
C24    C     0.16859   0.08405   0.02305   0.00000  Uiso   1.00
C25    C     0.03795   0.08053   0.25742   0.00000  Uiso   1.00
C26    C     0.29539   0.25280   0.24258   0.00000  Uiso   1.00
C27    C     0.29138   0.08568   0.22127   0.00000  Uiso   1.00
C28    C     0.04195   0.24765   0.27873   0.00000  Uiso   1.00
C29    C     0.21842   0.04953   0.30963   0.00000  Uiso   1.00
C30    C     0.11491   0.28380   0.19037   0.00000  Uiso   1.00
C31    C     0.11650   0.04755   0.18879   0.00000  Uiso   1.00
C32    C     0.21683   0.28579   0.31121   0.00000  Uiso   1.00
C33    C     0.16846   0.08407   0.47677   0.00000  Uiso   1.00
C34    C     0.01995   0.12469   0.24996   0.00000  Uiso   1.00
C35    C     0.31338   0.20864   0.25004   0.00000  Uiso   1.00
C36    C     0.31170   0.12629   0.23922   0.00000  Uiso   1.00
C37    C     0.02163   0.20704   0.26078   0.00000  Uiso   1.00
C38    C     0.29104   0.16772   0.24313   0.00000  Uiso   1.00
H39    H     0.16803   0.09362   0.38960   0.00000  Uiso   1.00
H40    H     0.16531   0.23971   0.11040   0.00000  Uiso   1.00
H41    H     0.16461   0.23975   0.38973   0.00000  Uiso   1.00
H42    H     0.16872   0.09359   0.11027   0.00000  Uiso   1.00
H43    H     0.16399   0.28129   0.45936   0.00000  Uiso   1.00
H44    H     0.16934   0.05204   0.04064   0.00000  Uiso   1.00
H45    H     0.16420   0.28127   0.04089   0.00000  Uiso   1.00
H46    H     0.16914   0.05206   0.45910   0.00000  Uiso   1.00
N47    N     0.16667   0.28573   0.25000   0.00000  Uiso   1.00
N48    N     0.23760   0.26691   0.33667   0.00000  Uiso   1.00
N49    N     0.16667   0.04760   0.25000   0.00000  Uiso   1.00
N50    N     0.05179   0.04524   0.26383   0.00000  Uiso   1.00
N51    N     0.28154   0.28810   0.23617   0.00000  Uiso   1.00
N52    N     0.27526   0.05352   0.20676   0.00000  Uiso   1.00
N53    N     0.05808   0.27981   0.29324   0.00000  Uiso   1.00
N54    N     0.24028   0.06927   0.33397   0.00000  Uiso   1.00
N55    N     0.09305   0.26407   0.16603   0.00000  Uiso   1.00
N56    N     0.09573   0.06642   0.16333   0.00000  Uiso   1.00
O57    O     0.10559   0.20487   0.24999   0.00000  Uiso   1.00
O58    O     0.22774   0.12846   0.25001   0.00000  Uiso   1.00
O59    O     0.22774   0.20487   0.25000   0.00000  Uiso   1.00
O60    O     0.10559   0.12846   0.24999   0.00000  Uiso   1.00
O61    O     0.16666   0.20489   0.18392   0.00000  Uiso   1.00
O62    O     0.16667   0.12844   0.31607   0.00000  Uiso   1.00
O63    O     0.16667   0.20489   0.31607   0.00000  Uiso   1.00
O64    O     0.16666   0.12844   0.18392   0.00000  Uiso   1.00
Zn65   Zn    0.16667   0.21771   0.25000   0.00000  Uiso   1.00
Zn66   Zn    0.16667   0.11563   0.25000   0.00000  Uiso   1.00
C67    C     0.42009   0.16628   0.25355   0.00000  Uiso   1.00
C68    C     0.37563   0.16561   0.25687   0.00000  Uiso   1.00
C69    C     0.52475   0.02455   0.27934   0.00000  Uiso   1.00
C70    C     0.47525   0.30878   0.22066   0.00000  Uiso   1.00
C71    C     0.47551   0.02360   0.22042   0.00000  Uiso   1.00
C72    C     0.52449   0.30974   0.27958   0.00000  Uiso   1.00
C73    C     0.50002   0.16665   0.16328   0.00000  Uiso   1.00
C74    C     0.49998   0.16669   0.33672   0.00000  Uiso   1.00
C75    C     0.50072   0.12548   0.40754   0.00000  Uiso   1.00
C76    C     0.49928   0.20785   0.09246   0.00000  Uiso   1.00
C77    C     0.49985   0.16670   0.38468   0.00000  Uiso   1.00
C78    C     0.57991   0.16705   0.24645   0.00000  Uiso   1.00
C79    C     0.50015   0.16663   0.11532   0.00000  Uiso   1.00
C80    C     0.49884   0.20790   0.40762   0.00000  Uiso   1.00
C81    C     0.50116   0.12544   0.09238   0.00000  Uiso   1.00
C82    C     0.49894   0.20820   0.45370   0.00000  Uiso   1.00
C83    C     0.50106   0.12513   0.04630   0.00000  Uiso   1.00
C84    C     0.49994   0.16667   0.47683   0.00000  Uiso   1.00
C85    C     0.50006   0.16666   0.02317   0.00000  Uiso   1.00
C86    C     0.50081   0.12516   0.45361   0.00000  Uiso   1.00
C87    C     0.49919   0.20818   0.04639   0.00000  Uiso   1.00
C88    C     0.49808   0.24928   0.47695   0.00000  Uiso   1.00
C89    C     0.49821   0.24927   0.02323   0.00000  Uiso   1.00
C90    C     0.50192   0.08405   0.02305   0.00000  Uiso   1.00
C91    C     0.37128   0.08053   0.25742   0.00000  Uiso   1.00
C92    C     0.62872   0.25280   0.24258   0.00000  Uiso   1.00
C93    C     0.62471   0.08568   0.22127   0.00000  Uiso   1.00
C94    C     0.37529   0.24765   0.27873   0.00000  Uiso   1.00
C95    C     0.55176   0.04953   0.30963   0.00000  Uiso   1.00
C96    C     0.44825   0.28380   0.19037   0.00000  Uiso   1.00
C97    C     0.44984   0.04755   0.18879   0.00000  Uiso   1.00
C98    C     0.55016   0.28579   0.31121   0.00000  Uiso   1.00
C99    C     0.50179   0.08407   0.47677   0.00000  Uiso   1.00
C100   C     0.35329   0.12469   0.24996   0.00000  Uiso   1.00
C101   C     0.64672   0.20864   0.25004   0.00000  Uiso   1.00
C102   C     0.64503   0.12629   0.23922   0.00000  Uiso   1.00
C103   C     0.35497   0.20704   0.26078   0.00000  Uiso   1.00
C104   C     0.62437   0.16772   0.24313   0.00000  Uiso   1.00
H105   H     0.50136   0.09362   0.38960   0.00000  Uiso   1.00
H106   H     0.49864   0.23971   0.11040   0.00000  Uiso   1.00
H107   H     0.49795   0.23975   0.38973   0.00000  Uiso   1.00
H108   H     0.50206   0.09359   0.11027   0.00000  Uiso   1.00
H109   H     0.49733   0.28129   0.45936   0.00000  Uiso   1.00
H110   H     0.50268   0.05204   0.04064   0.00000  Uiso   1.00
H111   H     0.49753   0.28127   0.04089   0.00000  Uiso   1.00
H112   H     0.50247   0.05206   0.45910   0.00000  Uiso   1.00
N113   N     0.50000   0.28573   0.25000   0.00000  Uiso   1.00
N114   N     0.57093   0.26691   0.33667   0.00000  Uiso   1.00
N115   N     0.50000   0.04760   0.25000   0.00000  Uiso   1.00
N116   N     0.38512   0.04524   0.26383   0.00000  Uiso   1.00
N117   N     0.61488   0.28810   0.23617   0.00000  Uiso   1.00
N118   N     0.60859   0.05352   0.20676   0.00000  Uiso   1.00
N119   N     0.39141   0.27981   0.29324   0.00000  Uiso   1.00
N120   N     0.57362   0.06927   0.33397   0.00000  Uiso   1.00
N121   N     0.42638   0.26407   0.16603   0.00000  Uiso   1.00
N122   N     0.42907   0.06642   0.16333   0.00000  Uiso   1.00
O123   O     0.43892   0.20487   0.24999   0.00000  Uiso   1.00
O124   O     0.56108   0.12846   0.25001   0.00000  Uiso   1.00
O125   O     0.56108   0.20487   0.25000   0.00000  Uiso   1.00
O126   O     0.43892   0.12846   0.24999   0.00000  Uiso   1.00
O127   O     0.49999   0.20489   0.18392   0.00000  Uiso   1.00
O128   O     0.50001   0.12844   0.31607   0.00000  Uiso   1.00
O129   O     0.50001   0.20489   0.31607   0.00000  Uiso   1.00
O130   O     0.49999   0.12844   0.18392   0.00000  Uiso   1.00
Zn131  Zn    0.50000   0.21771   0.25000   0.00000  Uiso   1.00
Zn132  Zn    0.50000   0.11563   0.25000   0.00000  Uiso   1.00
C133   C     0.75343   0.16628   0.25355   0.00000  Uiso   1.00
C134   C     0.70896   0.16561   0.25687   0.00000  Uiso   1.00
C135   C     0.85808   0.02455   0.27934   0.00000  Uiso   1.00
C136   C     0.80859   0.30878   0.22066   0.00000  Uiso   1.00
C137   C     0.80884   0.02360   0.22042   0.00000  Uiso   1.00
C138   C     0.85783   0.30974   0.27958   0.00000  Uiso   1.00
C139   C     0.83335   0.16665   0.16328   0.00000  Uiso   1.00
C140   C     0.83332   0.16669   0.33672   0.00000  Uiso   1.00
C141   C     0.83406   0.12548   0.40754   0.00000  Uiso   1.00
C142   C     0.83261   0.20785   0.09246   0.00000  Uiso   1.00
C143   C     0.83318   0.16670   0.38468   0.00000  Uiso   1.00
C144   C     0.91324   0.16705   0.24645   0.00000  Uiso   1.00
C145   C     0.83349   0.16663   0.11532   0.00000  Uiso   1.00
C146   C     0.83217   0.20790   0.40762   0.00000  Uiso   1.00
C147   C     0.83450   0.12544   0.09238   0.00000  Uiso   1.00
C148   C     0.83227   0.20820   0.45370   0.00000  Uiso   1.00
C149   C     0.83440   0.12513   0.04630   0.00000  Uiso   1.00
C150   C     0.83328   0.16667   0.47683   0.00000  Uiso   1.00
C151   C     0.83339   0.16666   0.02317   0.00000  Uiso   1.00
C152   C     0.83415   0.12516   0.45361   0.00000  Uiso   1.00
C153   C     0.83252   0.20818   0.04639   0.00000  Uiso   1.00
C154   C     0.83141   0.24928   0.47695   0.00000  Uiso   1.00
C155   C     0.83154   0.24927   0.02323   0.00000  Uiso   1.00
C156   C     0.83526   0.08405   0.02305   0.00000  Uiso   1.00
C157   C     0.70461   0.08053   0.25742   0.00000  Uiso   1.00
C158   C     0.96205   0.25280   0.24258   0.00000  Uiso   1.00
C159   C     0.95805   0.08568   0.22127   0.00000  Uiso   1.00
C160   C     0.70862   0.24765   0.27873   0.00000  Uiso   1.00
C161   C     0.88509   0.04953   0.30963   0.00000  Uiso   1.00
C162   C     0.78158   0.28380   0.19037   0.00000  Uiso   1.00
C163   C     0.78317   0.04755   0.18879   0.00000  Uiso   1.00
C164   C     0.88350   0.28579   0.31121   0.00000  Uiso   1.00
C165   C     0.83513   0.08407   0.47677   0.00000  Uiso   1.00
C166   C     0.68662   0.12469   0.24996   0.00000  Uiso   1.00
C167   C     0.98005   0.20864   0.25004   0.00000  Uiso   1.00
C168   C     0.97837   0.12629   0.23922   0.00000  Uiso   1.00
C169   C     0.68830   0.20704   0.26078   0.00000  Uiso   1.00
C170   C     0.95771   0.16772   0.24313   0.00000  Uiso   1.00
H171   H     0.83469   0.09362   0.38960   0.00000  Uiso   1.00
H172   H     0.83197   0.23971   0.11040   0.00000  Uiso   1.00
H173   H     0.83128   0.23975   0.38973   0.00000  Uiso   1.00
H174   H     0.83539   0.09359   0.11027   0.00000  Uiso   1.00
H175   H     0.83066   0.28129   0.45936   0.00000  Uiso   1.00
H176   H     0.83601   0.05204   0.04064   0.00000  Uiso   1.00
H177   H     0.83087   0.28127   0.04089   0.00000  Uiso   1.00
H178   H     0.83580   0.05206   0.45910   0.00000  Uiso   1.00
N179   N     0.83333   0.28573   0.25000   0.00000  Uiso   1.00
N180   N     0.90427   0.26691   0.33667   0.00000  Uiso   1.00
N181   N     0.83333   0.04760   0.25000   0.00000  Uiso   1.00
N182   N     0.71846   0.04524   0.26383   0.00000  Uiso   1.00
N183   N     0.94821   0.28810   0.23617   0.00000  Uiso   1.00
N184   N     0.94192   0.05352   0.20676   0.00000  Uiso   1.00
N185   N     0.72474   0.27981   0.29324   0.00000  Uiso   1.00
N186   N     0.90695   0.06927   0.33397   0.00000  Uiso   1.00
N187   N     0.75972   0.26407   0.16603   0.00000  Uiso   1.00
N188   N     0.76240   0.06642   0.16333   0.00000  Uiso   1.00
O189   O     0.77226   0.20487   0.24999   0.00000  Uiso   1.00
O190   O     0.89441   0.12846   0.25001   0.00000  Uiso   1.00
O191   O     0.89441   0.20487   0.25000   0.00000  Uiso   1.00
O192   O     0.77226   0.12846   0.24999   0.00000  Uiso   1.00
O193   O     0.83333   0.20489   0.18392   0.00000  Uiso   1.00
O194   O     0.83334   0.12844   0.31607   0.00000  Uiso   1.00
O195   O     0.83334   0.20489   0.31607   0.00000  Uiso   1.00
O196   O     0.83333   0.12844   0.18392   0.00000  Uiso   1.00
Zn197  Zn    0.83333   0.21771   0.25000   0.00000  Uiso   1.00
Zn198  Zn    0.83333   0.11563   0.25000   0.00000  Uiso   1.00
C199   C     0.08676   0.49962   0.25355   0.00000  Uiso   1.00
C200   C     0.04229   0.49895   0.25687   0.00000  Uiso   1.00
C201   C     0.19141   0.35789   0.27934   0.00000  Uiso   1.00
C202   C     0.14192   0.64211   0.22066   0.00000  Uiso   1.00
C203   C     0.14217   0.35693   0.22042   0.00000  Uiso   1.00
C204   C     0.19116   0.64307   0.27958   0.00000  Uiso   1.00
C205   C     0.16668   0.49998   0.16328   0.00000  Uiso   1.00
C206   C     0.16665   0.50002   0.33672   0.00000  Uiso   1.00
C207   C     0.16739   0.45882   0.40754   0.00000  Uiso   1.00
C208   C     0.16595   0.54118   0.09246   0.00000  Uiso   1.00
C209   C     0.16651   0.50003   0.38468   0.00000  Uiso   1.00
C210   C     0.24658   0.50038   0.24645   0.00000  Uiso   1.00
C211   C     0.16682   0.49997   0.11532   0.00000  Uiso   1.00
C212   C     0.16550   0.54123   0.40762   0.00000  Uiso   1.00
C213   C     0.16783   0.45877   0.09238   0.00000  Uiso   1.00
C214   C     0.16561   0.54153   0.45370   0.00000  Uiso   1.00
C215   C     0.16773   0.45847   0.04630   0.00000  Uiso   1.00
C216   C     0.16661   0.50001   0.47683   0.00000  Uiso   1.00
C217   C     0.16673   0.49999   0.02317   0.00000  Uiso   1.00
C218   C     0.16748   0.45849   0.45361   0.00000  Uiso   1.00
C219   C     0.16585   0.54151   0.04639   0.00000  Uiso   1.00
C220   C     0.16475   0.58261   0.47695   0.00000  Uiso   1.00
C221   C     0.16487   0.58260   0.02323   0.00000  Uiso   1.00
C222   C     0.16859   0.41739   0.02305   0.00000  Uiso   1.00
C223   C     0.03795   0.41387   0.25742   0.00000  Uiso   1.00
C224   C     0.29539   0.58613   0.24258   0.00000  Uiso   1.00
C225   C     0.29138   0.41902   0.22127   0.00000  Uiso   1.00
C226   C     0.04195   0.58098   0.27873   0.00000  Uiso   1.00
C227   C     0.21842   0.38286   0.30963   0.00000  Uiso   1.00
C228   C     0.11491   0.61714   0.19037   0.00000  Uiso   1.00
C229   C     0.11650   0.38088   0.18879   0.00000  Uiso   1.00
C230   C     0.21683   0.61912   0.31121   0.00000  Uiso   1.00
C231   C     0.16846   0.41740   0.47677   0.00000  Uiso   1.00
C232   C     0.01995   0.45802   0.24996   0.00000  Uiso   1.00
C233   C     0.31338   0.54198   0.25004   0.00000  Uiso   1.00
C234   C     0.31170   0.45962   0.23922   0.00000  Uiso   1.00
C235   C     0.02163   0.54038   0.26078   0.00000  Uiso   1.00
C236   C     0.29104   0.50105   0.24313   0.00000  Uiso   1.00
H237   H     0.16803   0.42696   0.38960   0.00000  Uiso   1.00
H238   H     0.16531   0.57305   0.11040   0.00000  Uiso   1.00
H239   H     0.16461   0.57308   0.38973   0.00000  Uiso   1.00
H240   H     0.16872   0.42692   0.11027   0.00000  Uiso   1.00
H241   H     0.16399   0.61462   0.45936   0.00000  Uiso   1.00
H242   H     0.16934   0.38538   0.04064   0.00000  Uiso   1.00
H243   H     0.16420   0.61460   0.04089   0.00000  Uiso   1.00
H244   H     0.16914   0.38540   0.45910   0.00000  Uiso   1.00
N245   N     0.16667   0.61907   0.25000   0.00000  Uiso   1.00
N246   N     0.23760   0.60024   0.33667   0.00000  Uiso   1.00
N247   N     0.16667   0.38093   0.25000   0.00000  Uiso   1.00
N248   N     0.05179   0.37857   0.26383   0.00000  Uiso   1.00
N249   N     0.28154   0.62143   0.23617   0.00000  Uiso   1.00
N250   N     0.27526   0.38685   0.20676   0.00000  Uiso   1.00
N251   N     0.05808   0.61315   0.29324   0.00000  Uiso   1.00
N252   N     0.24028   0.40260   0.33397   0.00000  Uiso   1.00
N253   N     0.09305   0.59740   0.16603   0.00000  Uiso   1.00
N254   N     0.09573   0.39976   0.16333   0.00000  Uiso   1.00
O255   O     0.10559   0.53821   0.24999   0.00000  Uiso   1.00
O256   O     0.22774   0.46179   0.25001   0.00000  Uiso   1.00
O257   O     0.22774   0.53821   0.25000   0.00000  Uiso   1.00
O258   O     0.10559   0.46179   0.24999   0.00000  Uiso   1.00
O259   O     0.16666   0.53823   0.18392   0.00000  Uiso   1.00
O260   O     0.16667   0.46177   0.31607   0.00000  Uiso   1.00
O261   O     0.16667   0.53823   0.31607   0.00000  Uiso   1.00
O262   O     0.16666   0.46177   0.18392   0.00000  Uiso   1.00
Zn263  Zn    0.16667   0.55104   0.25000   0.00000  Uiso   1.00
Zn264  Zn    0.16667   0.44896   0.25000   0.00000  Uiso   1.00
C265   C     0.42009   0.49962   0.25355   0.00000  Uiso   1.00
C266   C     0.37563   0.49895   0.25687   0.00000  Uiso   1.00
C267   C     0.52475   0.35789   0.27934   0.00000  Uiso   1.00
C268   C     0.47525   0.64211   0.22066   0.00000  Uiso   1.00
C269   C     0.47551   0.35693   0.22042   0.00000  Uiso   1.00
C270   C     0.52449   0.64307   0.27958   0.00000  Uiso   1.00
C271   C     0.50002   0.49998   0.16328   0.00000  Uiso   1.00
C272   C     0.49998   0.50002   0.33672   0.00000  Uiso   1.00
C273   C     0.50072   0.45882   0.40754   0.00000  Uiso   1.00
C274   C     0.49928   0.54118   0.09246   0.00000  Uiso   1.00
C275   C     0.49985   0.50003   0.38468   0.00000  Uiso   1.00
C276   C     0.57991   0.50038   0.24645   0.00000  Uiso   1.00
C277   C     0.50015   0.49997   0.11532   0.00000  Uiso   1.00
C278   C     0.49884   0.54123   0.40762   0.00000  Uiso   1.00
C279   C     0.50116   0.45877   0.09238   0.00000  Uiso   1.00
C280   C     0.49894   0.54153   0.45370   0.00000  Uiso   1.00
C281   C     0.50106   0.45847   0.04630   0.00000  Uiso   1.00
C282   C     0.49994   0.50001   0.47683   0.00000  Uiso   1.00
C283   C     0.50006   0.49999   0.02317   0.00000  Uiso   1.00
C284   C     0.50081   0.45849   0.45361   0.00000  Uiso   1.00
C285   C     0.49919   0.54151   0.04639   0.00000  Uiso   1.00
C286   C     0.49808   0.58261   0.47695   0.00000  Uiso   1.00
C287   C     0.49821   0.58260   0.02323   0.00000  Uiso   1.00
C288   C     0.50192   0.41739   0.02305   0.00000  Uiso   1.00
C289   C     0.37128   0.41387   0.25742   0.00000  Uiso   1.00
C290   C     0.62872   0.58613   0.24258   0.00000  Uiso   1.00
C291   C     0.62471   0.41902   0.22127   0.00000  Uiso   1.00
C292   C     0.37529   0.58098   0.27873   0.00000  Uiso   1.00
C293   C     0.55176   0.38286   0.30963   0.00000  Uiso   1.00
C294   C     0.44825   0.61714   0.19037   0.00000  Uiso   1.00
C295   C     0.44984   0.38088   0.18879   0.00000  Uiso   1.00
C296   C     0.55016   0.61912   0.31121   0.00000  Uiso   1.00
C297   C     0.50179   0.41740   0.47677   0.00000  Uiso   1.00
C298   C     0.35329   0.45802   0.24996   0.00000  Uiso   1.00
C299   C     0.64672   0.54198   0.25004   0.00000  Uiso   1.00
C300   C     0.64503   0.45962   0.23922   0.00000  Uiso   1.00
C301   C     0.35497   0.54038   0.26078   0.00000  Uiso   1.00
C302   C     0.62437   0.50105   0.24313   0.00000  Uiso   1.00
H303   H     0.50136   0.42696   0.38960   0.00000  Uiso   1.00
H304   H     0.49864   0.57305   0.11040   0.00000  Uiso   1.00
H305   H     0.49795   0.57308   0.38973   0.00000  Uiso   1.00
H306   H     0.50206   0.42692   0.11027   0.00000  Uiso   1.00
H307   H     0.49733   0.61462   0.45936   0.00000  Uiso   1.00
H308   H     0.50268   0.38538   0.04064   0.00000  Uiso   1.00
H309   H     0.49753   0.61460   0.04089   0.00000  Uiso   1.00
H310   H     0.50247   0.38540   0.45910   0.00000  Uiso   1.00
N311   N     0.50000   0.61907   0.25000   0.00000  Uiso   1.00
N312   N     0.57093   0.60024   0.33667   0.00000  Uiso   1.00
N313   N     0.50000   0.38093   0.25000   0.00000  Uiso   1.00
N314   N     0.38512   0.37857   0.26383   0.00000  Uiso   1.00
N315   N     0.61488   0.62143   0.23617   0.00000  Uiso   1.00
N316   N     0.60859   0.38685   0.20676   0.00000  Uiso   1.00
N317   N     0.39141   0.61315   0.29324   0.00000  Uiso   1.00
N318   N     0.57362   0.40260   0.33397   0.00000  Uiso   1.00
N319   N     0.42638   0.59740   0.16603   0.00000  Uiso   1.00
N320   N     0.42907   0.39976   0.16333   0.00000  Uiso   1.00
O321   O     0.43892   0.53821   0.24999   0.00000  Uiso   1.00
O322   O     0.56108   0.46179   0.25001   0.00000  Uiso   1.00
O323   O     0.56108   0.53821   0.25000   0.00000  Uiso   1.00
O324   O     0.43892   0.46179   0.24999   0.00000  Uiso   1.00
O325   O     0.49999   0.53823   0.18392   0.00000  Uiso   1.00
O326   O     0.50001   0.46177   0.31607   0.00000  Uiso   1.00
O327   O     0.50001   0.53823   0.31607   0.00000  Uiso   1.00
O328   O     0.49999   0.46177   0.18392   0.00000  Uiso   1.00
Zn329  Zn    0.50000   0.55104   0.25000   0.00000  Uiso   1.00
Zn330  Zn    0.50000   0.44896   0.25000   0.00000  Uiso   1.00
C331   C     0.75343   0.49962   0.25355   0.00000  Uiso   1.00
C332   C     0.70896   0.49895   0.25687   0.00000  Uiso   1.00
C333   C     0.85808   0.35789   0.27934   0.00000  Uiso   1.00
C334   C     0.80859   0.64211   0.22066   0.00000  Uiso   1.00
C335   C     0.80884   0.35693   0.22042   0.00000  Uiso   1.00
C336   C     0.85783   0.64307   0.27958   0.00000  Uiso   1.00
C337   C     0.83335   0.49998   0.16328   0.00000  Uiso   1.00
C338   C     0.83332   0.50002   0.33672   0.00000  Uiso   1.00
C339   C     0.83406   0.45882   0.40754   0.00000  Uiso   1.00
C340   C     0.83261   0.54118   0.09246   0.00000  Uiso   1.00
C341   C     0.83318   0.50003   0.38468   0.00000  Uiso   1.00
C342   C     0.91324   0.50038   0.24645   0.00000  Uiso   1.00
C343   C     0.83349   0.49997   0.11532   0.00000  Uiso   1.00
C344   C     0.83217   0.54123   0.40762   0.00000  Uiso   1.00
C345   C     0.83450   0.45877   0.09238   0.00000  Uiso   1.00
C346   C     0.83227   0.54153   0.45370   0.00000  Uiso   1.00
C347   C     0.83440   0.45847   0.04630   0.00000  Uiso   1.00
C348   C     0.83328   0.50001   0.47683   0.00000  Uiso   1.00
C349   C     0.83339   0.49999   0.02317   0.00000  Uiso   1.00
C350   C     0.83415   0.45849   0.45361   0.00000  Uiso   1.00
C351   C     0.83252   0.54151   0.04639   0.00000  Uiso   1.00
C352   C     0.83141   0.58261   0.47695   0.00000  Uiso   1.00
C353   C     0.83154   0.58260   0.02323   0.00000  Uiso   1.00
C354   C     0.83526   0.41739   0.02305   0.00000  Uiso   1.00
C355   C     0.70461   0.41387   0.25742   0.00000  Uiso   1.00
C356   C     0.96205   0.58613   0.24258   0.00000  Uiso   1.00
C357   C     0.95805   0.41902   0.22127   0.00000  Uiso   1.00
C358   C     0.70862   0.58098   0.27873   0.00000  Uiso   1.00
C359   C     0.88509   0.38286   0.30963   0.00000  Uiso   1.00
C360   C     0.78158   0.61714   0.19037   0.00000  Uiso   1.00
C361   C     0.78317   0.38088   0.18879   0.00000  Uiso   1.00
C362   C     0.88350   0.61912   0.31121   0.00000  Uiso   1.00
C363   C     0.83513   0.41740   0.47677   0.00000  Uiso   1.00
C364   C     0.68662   0.45802   0.24996   0.00000  Uiso   1.00
C365   C     0.98005   0.54198   0.25004   0.00000  Uiso   1.00
C366   C     0.97837   0.45962   0.23922   0.00000  Uiso   1.00
C367   C     0.68830   0.54038   0.26078   0.00000  Uiso   1.00
C368   C     0.95771   0.50105   0.24313   0.00000  Uiso   1.00
H369   H     0.83469   0.42696   0.38960   0.00000  Uiso   1.00
H370   H     0.83197   0.57305   0.11040   0.00000  Uiso   1.00
H371   H     0.83128   0.57308   0.38973   0.00000  Uiso   1.00
H372   H     0.83539   0.42692   0.11027   0.00000  Uiso   1.00
H373   H     0.83066   0.61462   0.45936   0.00000  Uiso   1.00
H374   H     0.83601   0.38538   0.04064   0.00000  Uiso   1.00
H375   H     0.83087   0.61460   0.04089   0.00000  Uiso   1.00
H376   H     0.83580   0.38540   0.45910   0.00000  Uiso   1.00
N377   N     0.83333   0.61907   0.25000   0.00000  Uiso   1.00
N378   N     0.90427   0.60024   0.33667   0.00000  Uiso   1.00
N379   N     0.83333   0.38093   0.25000   0.00000  Uiso   1.00
N380   N     0.71846   0.37857   0.26383   0.00000  Uiso   1.00
N381   N     0.94821   0.62143   0.23617   0.00000  Uiso   1.00
N382   N     0.94192   0.38685   0.20676   0.00000  Uiso   1.00
N383   N     0.72474   0.61315   0.29324   0.00000  Uiso   1.00
N384   N     0.90695   0.40260   0.33397   0.00000  Uiso   1.00
N385   N     0.75972   0.59740   0.16603   0.00000  Uiso   1.00
N386   N     0.76240   0.39976   0.16333   0.00000  Uiso   1.00
O387   O     0.77226   0.53821   0.24999   0.00000  Uiso   1.00
O388   O     0.89441   0.46179   0.25001   0.00000  Uiso   1.00
O389   O     0.89441   0.53821   0.25000   0.00000  Uiso   1.00
O390   O     0.77226   0.46179   0.24999   0.00000  Uiso   1.00
O391   O     0.83333   0.53823   0.18392   0.00000  Uiso   1.00
O392   O     0.83334   0.46177   0.31607   0.00000  Uiso   1.00
O393   O     0.83334   0.53823   0.31607   0.00000  Uiso   1.00
O394   O     0.83333   0.46177   0.18392   0.00000  Uiso   1.00
Zn395  Zn    0.83333   0.55104   0.25000   0.00000  Uiso   1.00
Zn396  Zn    0.83333   0.44896   0.25000   0.00000  Uiso   1.00
C397   C     0.08676   0.83295   0.25355   0.00000  Uiso   1.00
C398   C     0.04229   0.83228   0.25687   0.00000  Uiso   1.00
C399   C     0.19141   0.69122   0.27934   0.00000  Uiso   1.00
C400   C     0.14192   0.97545   0.22066   0.00000  Uiso   1.00
C401   C     0.14217   0.69026   0.22042   0.00000  Uiso   1.00
C402   C     0.19116   0.97640   0.27958   0.00000  Uiso   1.00
C403   C     0.16668   0.83331   0.16328   0.00000  Uiso   1.00
C404   C     0.16665   0.83335   0.33672   0.00000  Uiso   1.00
C405   C     0.16739   0.79215   0.40754   0.00000  Uiso   1.00
C406   C     0.16595   0.87452   0.09246   0.00000  Uiso   1.00
C407   C     0.16651   0.83337   0.38468   0.00000  Uiso   1.00
C408   C     0.24658   0.83372   0.24645   0.00000  Uiso   1.00
C409   C     0.16682   0.83330   0.11532   0.00000  Uiso   1.00
C410   C     0.16550   0.87456   0.40762   0.00000  Uiso   1.00
C411   C     0.16783   0.79210   0.09238   0.00000  Uiso   1.00
C412   C     0.16561   0.87487   0.45370   0.00000  Uiso   1.00
C413   C     0.16773   0.79180   0.04630   0.00000  Uiso   1.00
C414   C     0.16661   0.83334   0.47683   0.00000  Uiso   1.00
C415   C     0.16673   0.83333   0.02317   0.00000  Uiso   1.00
C416   C     0.16748   0.79182   0.45361   0.00000  Uiso   1.00
C417   C     0.16585   0.87484   0.04639   0.00000  Uiso   1.00
C418   C     0.16475   0.91595   0.47695   0.00000  Uiso   1.00
C419   C     0.16487   0.91594   0.02323   0.00000  Uiso   1.00
C420   C     0.16859   0.75072   0.02305   0.00000  Uiso   1.00
C421   C     0.03795   0.74720   0.25742   0.00000  Uiso   1.00
C422   C     0.29539   0.91947   0.24258   0.00000  Uiso   1.00
C423   C     0.29138   0.75235   0.22127   0.00000  Uiso   1.00
C424   C     0.04195   0.91432   0.27873   0.00000  Uiso   1.00
C425   C     0.21842   0.71620   0.30963   0.00000  Uiso   1.00
C426   C     0.11491   0.95047   0.19037   0.00000  Uiso   1.00
C427   C     0.11650   0.71422   0.18879   0.00000  Uiso   1.00
C428   C     0.21683   0.95245   0.31121   0.00000  Uiso   1.00
C429   C     0.16846   0.75073   0.47677   0.00000  Uiso   1.00
C430   C     0.01995   0.79136   0.24996   0.00000  Uiso   1.00
C431   C     0.31338   0.87531   0.25004   0.00000  Uiso   1.00
C432   C     0.31170   0.79296   0.23922   0.00000  Uiso   1.00
C433   C     0.02163   0.87371   0.26078   0.00000  Uiso   1.00
C434   C     0.29104   0.83439   0.24313   0.00000  Uiso   1.00
H435   H     0.16803   0.76029   0.38960   0.00000  Uiso   1.00
H436   H     0.16531   0.90638   0.11040   0.00000  Uiso   1.00
H437   H     0.16461   0.90641   0.38973   0.00000  Uiso   1.00
H438   H     0.16872   0.76025   0.11027   0.00000  Uiso   1.00
H439   H     0.16399   0.94796   0.45936   0.00000  Uiso   1.00
H440   H     0.16934   0.71871   0.04064   0.00000  Uiso   1.00
H441   H     0.16420   0.94794   0.04089   0.00000  Uiso   1.00
H442   H     0.16914   0.71873   0.45910   0.00000  Uiso   1.00
N443   N     0.16667   0.95240   0.25000   0.00000  Uiso   1.00
N444   N     0.23760   0.93358   0.33667   0.00000  Uiso   1.00
N445   N     0.16667   0.71427   0.25000   0.00000  Uiso   1.00
N446   N     0.05179   0.71190   0.26383   0.00000  Uiso   1.00
N447   N     0.28154   0.95476   0.23617   0.00000  Uiso   1.00
N448   N     0.27526   0.72019   0.20676   0.00000  Uiso   1.00
N449   N     0.05808   0.94648   0.29324   0.00000  Uiso   1.00
N450   N     0.24028   0.73593   0.33397   0.00000  Uiso   1.00
N451   N     0.09305   0.93073   0.16603   0.00000  Uiso   1.00
N452   N     0.09573   0.73309   0.16333   0.00000  Uiso   1.00
O453   O     0.10559   0.87154   0.24999   0.00000  Uiso   1.00
O454   O     0.22774   0.79513   0.25001   0.00000  Uiso   1.00
O455   O     0.22774   0.87154   0.25000   0.00000  Uiso   1.00
O456   O     0.10559   0.79513   0.24999   0.00000  Uiso   1.00
O457   O     0.16666   0.87156   0.18392   0.00000  Uiso   1.00
O458   O     0.16667   0.79511   0.31607   0.00000  Uiso   1.00
O459   O     0.16667   0.87156   0.31607   0.00000  Uiso   1.00
O460   O     0.16666   0.79511   0.18392   0.00000  Uiso   1.00
Zn461  Zn    0.16667   0.88437   0.25000   0.00000  Uiso   1.00
Zn462  Zn    0.16667   0.78229   0.25000   0.00000  Uiso   1.00
C463   C     0.42009   0.83295   0.25355   0.00000  Uiso   1.00
C464   C     0.37563   0.83228   0.25687   0.00000  Uiso   1.00
C465   C     0.52475   0.69122   0.27934   0.00000  Uiso   1.00
C466   C     0.47525   0.97545   0.22066   0.00000  Uiso   1.00
C467   C     0.47551   0.69026   0.22042   0.00000  Uiso   1.00
C468   C     0.52449   0.97640   0.27958   0.00000  Uiso   1.00
C469   C     0.50002   0.83331   0.16328   0.00000  Uiso   1.00
C470   C     0.49998   0.83335   0.33672   0.00000  Uiso   1.00
C471   C     0.50072   0.79215   0.40754   0.00000  Uiso   1.00
C472   C     0.49928   0.87452   0.09246   0.00000  Uiso   1.00
C473   C     0.49985   0.83337   0.38468   0.00000  Uiso   1.00
C474   C     0.57991   0.83372   0.24645   0.00000  Uiso   1.00
C475   C     0.50015   0.83330   0.11532   0.00000  Uiso   1.00
C476   C     0.49884   0.87456   0.40762   0.00000  Uiso   1.00
C477   C     0.50116   0.79210   0.09238   0.00000  Uiso   1.00
C478   C     0.49894   0.87487   0.45370   0.00000  Uiso   1.00
C479   C     0.50106   0.79180   0.04630   0.00000  Uiso   1.00
C480   C     0.49994   0.83334   0.47683   0.00000  Uiso   1.00
C481   C     0.50006   0.83333   0.02317   0.00000  Uiso   1.00
C482   C     0.50081   0.79182   0.45361   0.00000  Uiso   1.00
C483   C     0.49919   0.87484   0.04639   0.00000  Uiso   1.00
C484   C     0.49808   0.91595   0.47695   0.00000  Uiso   1.00
C485   C     0.49821   0.91594   0.02323   0.00000  Uiso   1.00
C486   C     0.50192   0.75072   0.02305   0.00000  Uiso   1.00
C487   C     0.37128   0.74720   0.25742   0.00000  Uiso   1.00
C488   C     0.62872   0.91947   0.24258   0.00000  Uiso   1.00
C489   C     0.62471   0.75235   0.22127   0.00000  Uiso   1.00
C490   C     0.37529   0.91432   0.27873   0.00000  Uiso   1.00
C491   C     0.55176   0.71620   0.30963   0.00000  Uiso   1.00
C492   C     0.44825   0.95047   0.19037   0.00000  Uiso   1.00
C493   C     0.44984   0.71422   0.18879   0.00000  Uiso   1.00
C494   C     0.55016   0.95245   0.31121   0.00000  Uiso   1.00
C495   C     0.50179   0.75073   0.47677   0.00000  Uiso   1.00
C496   C     0.35329   0.79136   0.24996   0.00000  Uiso   1.00
C497   C     0.64672   0.87531   0.25004   0.00000  Uiso   1.00
C498   C     0.64503   0.79296   0.23922   0.00000  Uiso   1.00
C499   C     0.35497   0.87371   0.26078   0.00000  Uiso   1.00
C500   C     0.62437   0.83439   0.24313   0.00000  Uiso   1.00
H501   H     0.50136   0.76029   0.38960   0.00000  Uiso   1.00
H502   H     0.49864   0.90638   0.11040   0.00000  Uiso   1.00
H503   H     0.49795   0.90641   0.38973   0.00000  Uiso   1.00
H504   H     0.50206   0.76025   0.11027   0.00000  Uiso   1.00
H505   H     0.49733   0.94796   0.45936   0.00000  Uiso   1.00
H506   H     0.50268   0.71871   0.04064   0.00000  Uiso   1.00
H507   H     0.49753   0.94794   0.04089   0.00000  Uiso   1.00
H508   H     0.50247   0.71873   0.45910   0.00000  Uiso   1.00
N509   N     0.50000   0.95240   0.25000   0.00000  Uiso   1.00
N510   N     0.57093   0.93358   0.33667   0.00000  Uiso   1.00
N511   N     0.50000   0.71427   0.25000   0.00000  Uiso   1.00
N512   N     0.38512   0.71190   0.26383   0.00000  Uiso   1.00
N513   N     0.61488   0.95476   0.23617   0.00000  Uiso   1.00
N514   N     0.60859   0.72019   0.20676   0.00000  Uiso   1.00
N515   N     0.39141   0.94648   0.29324   0.00000  Uiso   1.00
N516   N     0.57362   0.73593   0.33397   0.00000  Uiso   1.00
N517   N     0.42638   0.93073   0.16603   0.00000  Uiso   1.00
N518   N     0.42907   0.73309   0.16333   0.00000  Uiso   1.00
O519   O     0.43892   0.87154   0.24999   0.00000  Uiso   1.00
O520   O     0.56108   0.79513   0.25001   0.00000  Uiso   1.00
O521   O     0.56108   0.87154   0.25000   0.00000  Uiso   1.00
O522   O     0.43892   0.79513   0.24999   0.00000  Uiso   1.00
O523   O     0.49999   0.87156   0.18392   0.00000  Uiso   1.00
O524   O     0.50001   0.79511   0.31607   0.00000  Uiso   1.00
O525   O     0.50001   0.87156   0.31607   0.00000  Uiso   1.00
O526   O     0.49999   0.79511   0.18392   0.00000  Uiso   1.00
Zn527  Zn    0.50000   0.88437   0.25000   0.00000  Uiso   1.00
Zn528  Zn    0.50000   0.78229   0.25000   0.00000  Uiso   1.00
C529   C     0.75343   0.83295   0.25355   0.00000  Uiso   1.00
C530   C     0.70896   0.83228   0.25687   0.00000  Uiso   1.00
C531   C     0.85808   0.69122   0.27934   0.00000  Uiso   1.00
C532   C     0.80859   0.97545   0.22066   0.00000  Uiso   1.00
C533   C     0.80884   0.69026   0.22042   0.00000  Uiso   1.00
C534   C     0.85783   0.97640   0.27958   0.00000  Uiso   1.00
C535   C     0.83335   0.83331   0.16328   0.00000  Uiso   1.00
C536   C     0.83332   0.83335   0.33672   0.00000  Uiso   1.00
C537   C     0.83406   0.79215   0.40754   0.00000  Uiso   1.00
C538   C     0.83261   0.87452   0.09246   0.00000  Uiso   1.00
C539   C     0.83318   0.83337   0.38468   0.00000  Uiso   1.00
C540   C     0.91324   0.83372   0.24645   0.00000  Uiso   1.00
C541   C     0.83349   0.83330   0.11532   0.00000  Uiso   1.00
C542   C     0.83217   0.87456   0.40762   0.00000  Uiso   1.00
C543   C     0.83450   0.79210   0.09238   0.00000  Uiso   1.00
C544   C     0.83227   0.87487   0.45370   0.00000  Uiso   1.00
C545   C     0.83440   0.79180   0.04630   0.00000  Uiso   1.00
C546   C     0.83328   0.83334   0.47683   0.00000  Uiso   1.00
C547   C     0.83339   0.83333   0.02317   0.00000  Uiso   1.00
C548   C     0.83415   0.79182   0.45361   0.00000  Uiso   1.00
C549   C     0.83252   0.87484   0.04639   0.00000  Uiso   1.00
C550   C     0.83141   0.91595   0.47695   0.00000  Uiso   1.00
C551   C     0.83154   0.91594   0.02323   0.00000  Uiso   1.00
C552   C     0.83526   0.75072   0.02305   0.00000  Uiso   1.00
C553   C     0.70461   0.74720   0.25742   0.00000  Uiso   1.00
C554   C     0.96205   0.91947   0.24258   0.00000  Uiso   1.00
C555   C     0.95805   0.75235   0.22127   0.00000  Uiso   1.00
C556   C     0.70862   0.91432   0.27873   0.00000  Uiso   1.00
C557   C     0.88509   0.71620   0.30963   0.00000  Uiso   1.00
C558   C     0.78158   0.95047   0.19037   0.00000  Uiso   1.00
C559   C     0.78317   0.71422   0.18879   0.00000  Uiso   1.00
C560   C     0.88350   0.95245   0.31121   0.00000  Uiso   1.00
C561   C     0.83513   0.75073   0.47677   0.00000  Uiso   1.00
C562   C     0.68662   0.79136   0.24996   0.00000  Uiso   1.00
C563   C     0.98005   0.87531   0.25004   0.00000  Uiso   1.00
C564   C     0.97837   0.79296   0.23922   0.00000  Uiso   1.00
C565   C     0.68830   0.87371   0.26078   0.00000  Uiso   1.00
C566   C     0.95771   0.83439   0.24313   0.00000  Uiso   1.00
H567   H     0.83469   0.76029   0.38960   0.00000  Uiso   1.00
H568   H     0.83197   0.90638   0.11040   0.00000  Uiso   1.00
H569   H     0.83128   0.90641   0.38973   0.00000  Uiso   1.00
H570   H     0.83539   0.76025   0.11027   0.00000  Uiso   1.00
H571   H     0.83066   0.94796   0.45936   0.00000  Uiso   1.00
H572   H     0.83601   0.71871   0.04064   0.00000  Uiso   1.00
H573   H     0.83087   0.94794   0.04089   0.00000  Uiso   1.00
H574   H     0.83580   0.71873   0.45910   0.00000  Uiso   1.00
N575   N     0.83333   0.95240   0.25000   0.00000  Uiso   1.00
N576   N     0.90427   0.93358   0.33667   0.00000  Uiso   1.00
N577   N     0.83333   0.71427   0.25000   0.00000  Uiso   1.00
N578   N     0.71846   0.71190   0.26383   0.00000  Uiso   1.00
N579   N     0.94821   0.95476   0.23617   0.00000  Uiso   1.00
N580   N     0.94192   0.72019   0.20676   0.00000  Uiso   1.00
N581   N     0.72474   0.94648   0.29324   0.00000  Uiso   1.00
N582   N     0.90695   0.73593   0.33397   0.00000  Uiso   1.00
N583   N     0.75972   0.93073   0.16603   0.00000  Uiso   1.00
N584   N     0.76240   0.73309   0.16333   0.00000  Uiso   1.00
O585   O     0.77226   0.87154   0.24999   0.00000  Uiso   1.00
O586   O     0.89441   0.79513   0.25001   0.00000  Uiso   1.00
O587   O     0.89441   0.87154   0.25000   0.00000  Uiso   1.00
O588   O     0.77226   0.79513   0.24999   0.00000  Uiso   1.00
O589   O     0.83333   0.87156   0.18392   0.00000  Uiso   1.00
O590   O     0.83334   0.79511   0.31607   0.00000  Uiso   1.00
O591   O     0.83334   0.87156   0.31607   0.00000  Uiso   1.00
O592   O     0.83333   0.79511   0.18392   0.00000  Uiso   1.00
Zn593  Zn    0.83333   0.88437   0.25000   0.00000  Uiso   1.00
Zn594  Zn    0.83333   0.78229   0.25000   0.00000  Uiso   1.00
C595   C     0.08676   0.16628   0.75355   0.00000  Uiso   1.00
C596   C     0.04229   0.16561   0.75687   0.00000  Uiso   1.00
C597   C     0.19141   0.02455   0.77934   0.00000  Uiso   1.00
C598   C     0.14192   0.30878   0.72066   0.00000  Uiso   1.00
C599   C     0.14217   0.02360   0.72042   0.00000  Uiso   1.00
C600   C     0.19116   0.30974   0.77958   0.00000  Uiso   1.00
C601   C     0.16668   0.16665   0.66328   0.00000  Uiso   1.00
C602   C     0.16665   0.16669   0.83672   0.00000  Uiso   1.00
C603   C     0.16739   0.12548   0.90754   0.00000  Uiso   1.00
C604   C     0.16595   0.20785   0.59246   0.00000  Uiso   1.00
C605   C     0.16651   0.16670   0.88468   0.00000  Uiso   1.00
C606   C     0.24658   0.16705   0.74645   0.00000  Uiso   1.00
C607   C     0.16682   0.16663   0.61532   0.00000  Uiso   1.00
C608   C     0.16550   0.20790   0.90762   0.00000  Uiso   1.00
C609   C     0.16783   0.12544   0.59238   0.00000  Uiso   1.00
C610   C     0.16561   0.20820   0.95370   0.00000  Uiso   1.00
C611   C     0.16773   0.12513   0.54630   0.00000  Uiso   1.00
C612   C     0.16661   0.16667   0.97683   0.00000  Uiso   1.00
C613   C     0.16673   0.16666   0.52317   0.00000  Uiso   1.00
C614   C     0.16748   0.12516   0.95361   0.00000  Uiso   1.00
C615   C     0.16585   0.20818   0.54639   0.00000  Uiso   1.00
C616   C     0.16475   0.24928   0.97695   0.00000  Uiso   1.00
C617   C     0.16487   0.24927   0.52323   0.00000  Uiso   1.00
C618   C     0.16859   0.08405   0.52305   0.00000  Uiso   1.00
C619   C     0.03795   0.08053   0.75742   0.00000  Uiso   1.00
C620   C     0.29539   0.25280   0.74258   0.00000  Uiso   1.00
C621   C     0.29138   0.08568   0.72127   0.00000  Uiso   1.00
C622   C     0.04195   0.24765   0.77873   0.00000  Uiso   1.00
C623   C     0.21842   0.04953   0.80963   0.00000  Uiso   1.00
C624   C     0.11491   0.28380   0.69037   0.00000  Uiso   1.00
C625   C     0.11650   0.04755   0.68879   0.00000  Uiso   1.00
C626   C     0.21683   0.28579   0.81121   0.00000  Uiso   1.00
C627   C     0.16846   0.08407   0.97677   0.00000  Uiso   1.00
C628   C     0.01995   0.12469   0.74996   0.00000  Uiso   1.00
C629   C     0.31338   0.20864   0.75004   0.00000  Uiso   1.00
C630   C     0.31170   0.12629   0.73922   0.00000  Uiso   1.00
C631   C     0.02163   0.20704   0.76078   0.00000  Uiso   1.00
C632   C     0.29104   0.16772   0.74313   0.00000  Uiso   1.00
H633   H     0.16803   0.09362   0.88960   0.00000  Uiso   1.00
H634   H     0.16531   0.23971   0.61040   0.00000  Uiso   1.00
H635   H     0.16461   0.23975   0.88973   0.00000  Uiso   1.00
H636   H     0.16872   0.09359   0.61027   0.00000  Uiso   1.00
H637   H     0.16399   0.28129   0.95936   0.00000  Uiso   1.00
H638   H     0.16934   0.05204   0.54064   0.00000  Uiso   1.00
H639   H     0.16420   0.28127   0.54089   0.00000  Uiso   1.00
H640   H     0.16914   0.05206   0.95910   0.00000  Uiso   1.00
N641   N     0.16667   0.28573   0.75000   0.00000  Uiso   1.00
N642   N     0.23760   0.26691   0.83667   0.00000  Uiso   1.00
N643   N     0.16667   0.04760   0.75000   0.00000  Uiso   1.00
N644   N     0.05179   0.04524   0.76383   0.00000  Uiso   1.00
N645   N     0.28154   0.28810   0.73617   0.00000  Uiso   1.00
N646   N     0.27526   0.05352   0.70676   0.00000  Uiso   1.00
N647   N     0.05808   0.27981   0.79324   0.00000  Uiso   1.00
N648   N     0.24028   0.06927   0.83397   0.00000  Uiso   1.00
N649   N     0.09305   0.26407   0.66603   0.00000  Uiso   1.00
N650   N     0.09573   0.06642   0.66333   0.00000  Uiso   1.00
O651   O     0.10559   0.20487   0.74999   0.00000  Uiso   1.00
O652   O     0.22774   0.12846   0.75001   0.00000  Uiso   1.00
O653   O     0.22774   0.20487   0.75000   0.00000  Uiso   1.00
O654   O     0.10559   0.12846   0.74999   0.00000  Uiso   1.00
O655   O     0.16666   0.20489   0.68392   0.00000  Uiso   1.00
O656   O     0.16667   0.12844   0.81607   0.00000  Uiso   1.00
O657   O     0.16667   0.20489   0.81607   0.00000  Uiso   1.00
O658   O     0.16666   0.12844   0.68392   0.00000  Uiso   1.00
Zn659  Zn    0.16667   0.21771   0.75000   0.00000  Uiso   1.00
Zn660  Zn    0.16667   0.11563   0.75000   0.00000  Uiso   1.00
C661   C     0.42009   0.16628   0.75355   0.00000  Uiso   1.00
C662   C     0.37563   0.16561   0.75687   0.00000  Uiso   1.00
C663   C     0.52475   0.02455   0.77934   0.00000  Uiso   1.00
C664   C     0.47525   0.30878   0.72066   0.00000  Uiso   1.00
C665   C     0.47551   0.02360   0.72042   0.00000  Uiso   1.00
C666   C     0.52449   0.30974   0.77958   0.00000  Uiso   1.00
C667   C     0.50002   0.16665   0.66328   0.00000  Uiso   1.00
C668   C     0.49998   0.16669   0.83672   0.00000  Uiso   1.00
C669   C     0.50072   0.12548   0.90754   0.00000  Uiso   1.00
C670   C     0.49928   0.20785   0.59246   0.00000  Uiso   1.00
C671   C     0.49985   0.16670   0.88468   0.00000  Uiso   1.00
C672   C     0.57991   0.16705   0.74645   0.00000  Uiso   1.00
C673   C     0.50015   0.16663   0.61532   0.00000  Uiso   1.00
C674   C     0.49884   0.20790   0.90762   0.00000  Uiso   1.00
C675   C     0.50116   0.12544   0.59238   0.00000  Uiso   1.00
C676   C     0.49894   0.20820   0.95370   0.00000  Uiso   1.00
C677   C     0.50106   0.12513   0.54630   0.00000  Uiso   1.00
C678   C     0.49994   0.16667   0.97683   0.00000  Uiso   1.00
C679   C     0.50006   0.16666   0.52317   0.00000  Uiso   1.00
C680   C     0.50081   0.12516   0.95361   0.00000  Uiso   1.00
C681   C     0.49919   0.20818   0.54639   0.00000  Uiso   1.00
C682   C     0.49808   0.24928   0.97695   0.00000  Uiso   1.00
C683   C     0.49821   0.24927   0.52323   0.00000  Uiso   1.00
C684   C     0.50192   0.08405   0.52305   0.00000  Uiso   1.00
C685   C     0.37128   0.08053   0.75742   0.00000  Uiso   1.00
C686   C     0.62872   0.25280   0.74258   0.00000  Uiso   1.00
C687   C     0.62471   0.08568   0.72127   0.00000  Uiso   1.00
C688   C     0.37529   0.24765   0.77873   0.00000  Uiso   1.00
C689   C     0.55176   0.04953   0.80963   0.00000  Uiso   1.00
C690   C     0.44825   0.28380   0.69037   0.00000  Uiso   1.00
C691   C     0.44984   0.04755   0.68879   0.00000  Uiso   1.00
C692   C     0.55016   0.28579   0.81121   0.00000  Uiso   1.00
C693   C     0.50179   0.08407   0.97677   0.00000  Uiso   1.00
C694   C     0.35329   0.12469   0.74996   0.00000  Uiso   1.00
C695   C     0.64672   0.20864   0.75004   0.00000  Uiso   1.00
C696   C     0.64503   0.12629   0.73922   0.00000  Uiso   1.00
C697   C     0.35497   0.20704   0.76078   0.00000  Uiso   1.00
C698   C     0.62437   0.16772   0.74313   0.00000  Uiso   1.00
H699   H     0.50136   0.09362   0.88960   0.00000  Uiso   1.00
H700   H     0.49864   0.23971   0.61040   0.00000  Uiso   1.00
H701   H     0.49795   0.23975   0.88973   0.00000  Uiso   1.00
H702   H     0.50206   0.09359   0.61027   0.00000  Uiso   1.00
H703   H     0.49733   0.28129   0.95936   0.00000  Uiso   1.00
H704   H     0.50268   0.05204   0.54064   0.00000  Uiso   1.00
H705   H     0.49753   0.28127   0.54089   0.00000  Uiso   1.00
H706   H     0.50247   0.05206   0.95910   0.00000  Uiso   1.00
N707   N     0.50000   0.28573   0.75000   0.00000  Uiso   1.00
N708   N     0.57093   0.26691   0.83667   0.00000  Uiso   1.00
N709   N     0.50000   0.04760   0.75000   0.00000  Uiso   1.00
N710   N     0.38512   0.04524   0.76383   0.00000  Uiso   1.00
N711   N     0.61488   0.28810   0.73617   0.00000  Uiso   1.00
N712   N     0.60859   0.05352   0.70676   0.00000  Uiso   1.00
N713   N     0.39141   0.27981   0.79324   0.00000  Uiso   1.00
N714   N     0.57362   0.06927   0.83397   0.00000  Uiso   1.00
N715   N     0.42638   0.26407   0.66603   0.00000  Uiso   1.00
N716   N     0.42907   0.06642   0.66333   0.00000  Uiso   1.00
O717   O     0.43892   0.20487   0.74999   0.00000  Uiso   1.00
O718   O     0.56108   0.12846   0.75001   0.00000  Uiso   1.00
O719   O     0.56108   0.20487   0.75000   0.00000  Uiso   1.00
O720   O     0.43892   0.12846   0.74999   0.00000  Uiso   1.00
O721   O     0.49999   0.20489   0.68392   0.00000  Uiso   1.00
O722   O     0.50001   0.12844   0.81607   0.00000  Uiso   1.00
O723   O     0.50001   0.20489   0.81607   0.00000  Uiso   1.00
O724   O     0.49999   0.12844   0.68392   0.00000  Uiso   1.00
Zn725  Zn    0.50000   0.21771   0.75000   0.00000  Uiso   1.00
Zn726  Zn    0.50000   0.11563   0.75000   0.00000  Uiso   1.00
C727   C     0.75343   0.16628   0.75355   0.00000  Uiso   1.00
C728   C     0.70896   0.16561   0.75687   0.00000  Uiso   1.00
C729   C     0.85808   0.02455   0.77934   0.00000  Uiso   1.00
C730   C     0.80859   0.30878   0.72066   0.00000  Uiso   1.00
C731   C     0.80884   0.02360   0.72042   0.00000  Uiso   1.00
C732   C     0.85783   0.30974   0.77958   0.00000  Uiso   1.00
C733   C     0.83335   0.16665   0.66328   0.00000  Uiso   1.00
C734   C     0.83332   0.16669   0.83672   0.00000  Uiso   1.00
C735   C     0.83406   0.12548   0.90754   0.00000  Uiso   1.00
C736   C     0.83261   0.20785   0.59246   0.00000  Uiso   1.00
C737   C     0.83318   0.16670   0.88468   0.00000  Uiso   1.00
C738   C     0.91324   0.16705   0.74645   0.00000  Uiso   1.00
C739   C     0.83349   0.16663   0.61532   0.00000  Uiso   1.00
C740   C     0.83217   0.20790   0.90762   0.00000  Uiso   1.00
C741   C     0.83450   0.12544   0.59238   0.00000  Uiso   1.00
C742   C     0.83227   0.20820   0.95370   0.00000  Uiso   1.00
C743   C     0.83440   0.12513   0.54630   0.00000  Uiso   1.00
C744   C     0.83328   0.16667   0.97683   0.00000  Uiso   1.00
C745   C     0.83339   0.16666   0.52317   0.00000  Uiso   1.00
C746   C     0.83415   0.12516   0.95361   0.00000  Uiso   1.00
C747   C     0.83252   0.20818   0.54639   0.00000  Uiso   1.00
C748   C     0.83141   0.24928   0.97695   0.00000  Uiso   1.00
C749   C     0.83154   0.24927   0.52323   0.00000  Uiso   1.00
C750   C     0.83526   0.08405   0.52305   0.00000  Uiso   1.00
C751   C     0.70461   0.08053   0.75742   0.00000  Uiso   1.00
C752   C     0.96205   0.25280   0.74258   0.00000  Uiso   1.00
C753   C     0.95805   0.08568   0.72127   0.00000  Uiso   1.00
C754   C     0.70862   0.24765   0.77873   0.00000  Uiso   1.00
C755   C     0.88509   0.04953   0.80963   0.00000  Uiso   1.00
C756   C     0.78158   0.28380   0.69037   0.00000  Uiso   1.00
C757   C     0.78317   0.04755   0.68879   0.00000  Uiso   1.00
C758   C     0.88350   0.28579   0.81121   0.00000  Uiso   1.00
C759   C     0.83513   0.08407   0.97677   0.00000  Uiso   1.00
C760   C     0.68662   0.12469   0.74996   0.00000  Uiso   1.00
C761   C     0.98005   0.20864   0.75004   0.00000  Uiso   1.00
C762   C     0.97837   0.12629   0.73922   0.00000  Uiso   1.00
C763   C     0.68830   0.20704   0.76078   0.00000  Uiso   1.00
C764   C     0.95771   0.16772   0.74313   0.00000  Uiso   1.00
H765   H     0.83469   0.09362   0.88960   0.00000  Uiso   1.00
H766   H     0.83197   0.23971   0.61040   0.00000  Uiso   1.00
H767   H     0.83128   0.23975   0.88973   0.00000  Uiso   1.00
H768   H     0.83539   0.09359   0.61027   0.00000  Uiso   1.00
H769   H     0.83066   0.28129   0.95936   0.00000  Uiso   1.00
H770   H     0.83601   0.05204   0.54064   0.00000  Uiso   1.00
H771   H     0.83087   0.28127   0.54089   0.00000  Uiso   1.00
H772   H     0.83580   0.05206   0.95910   0.00000  Uiso   1.00
N773   N     0.83333   0.28573   0.75000   0.00000  Uiso   1.00
N774   N     0.90427   0.26691   0.83667   0.00000  Uiso   1.00
N775   N     0.83333   0.04760   0.75000   0.00000  Uiso   1.00
N776   N     0.71846   0.04524   0.76383   0.00000  Uiso   1.00
N777   N     0.94821   0.28810   0.73617   0.00000  Uiso   1.00
N778   N     0.94192   0.05352   0.70676   0.00000  Uiso   1.00
N779   N     0.72474   0.27981   0.79324   0.00000  Uiso   1.00
N780   N     0.90695   0.06927   0.83397   0.00000  Uiso   1.00
N781   N     0.75972   0.26407   0.66603   0.00000  Uiso   1.00
N782   N     0.76240   0.06642   0.66333   0.00000  Uiso   1.00
O783   O     0.77226   0.20487   0.74999   0.00000  Uiso   1.00
O784   O     0.89441   0.12846   0.75001   0.00000  Uiso   1.00
O785   O     0.89441   0.20487   0.75000   0.00000  Uiso   1.00
O786   O     0.77226   0.12846   0.74999   0.00000  Uiso   1.00
O787   O     0.83333   0.20489   0.68392   0.00000  Uiso   1.00
O788   O     0.83334   0.12844   0.81607   0.00000  Uiso   1.00
O789   O     0.83334   0.20489   0.81607   0.00000  Uiso   1.00
O790   O     0.83333   0.12844   0.68392   0.00000  Uiso   1.00
Zn791  Zn    0.83333   0.21771   0.75000   0.00000  Uiso   1.00
Zn792  Zn    0.83333   0.11563   0.75000   0.00000  Uiso   1.00
C793   C     0.08676   0.49962   0.75355   0.00000  Uiso   1.00
C794   C     0.04229   0.49895   0.75687   0.00000  Uiso   1.00
C795   C     0.19141   0.35789   0.77934   0.00000  Uiso   1.00
C796   C     0.14192   0.64211   0.72066   0.00000  Uiso   1.00
C797   C     0.14217   0.35693   0.72042   0.00000  Uiso   1.00
C798   C     0.19116   0.64307   0.77958   0.00000  Uiso   1.00
C799   C     0.16668   0.49998   0.66328   0.00000  Uiso   1.00
C800   C     0.16665   0.50002   0.83672   0.00000  Uiso   1.00
C801   C     0.16739   0.45882   0.90754   0.00000  Uiso   1.00
C802   C     0.16595   0.54118   0.59246   0.00000  Uiso   1.00
C803   C     0.16651   0.50003   0.88468   0.00000  Uiso   1.00
C804   C     0.24658   0.50038   0.74645   0.00000  Uiso   1.00
C805   C     0.16682   0.49997   0.61532   0.00000  Uiso   1.00
C806   C     0.16550   0.54123   0.90762   0.00000  Uiso   1.00
C807   C     0.16783   0.45877   0.59238   0.00000  Uiso   1.00
C808   C     0.16561   0.54153   0.95370   0.00000  Uiso   1.00
C809   C     0.16773   0.45847   0.54630   0.00000  Uiso   1.00
C810   C     0.16661   0.50001   0.97683   0.00000  Uiso   1.00
C811   C     0.16673   0.49999   0.52317   0.00000  Uiso   1.00
C812   C     0.16748   0.45849   0.95361   0.00000  Uiso   1.00
C813   C     0.16585   0.54151   0.54639   0.00000  Uiso   1.00
C814   C     0.16475   0.58261   0.97695   0.00000  Uiso   1.00
C815   C     0.16487   0.58260   0.52323   0.00000  Uiso   1.00
C816   C     0.16859   0.41739   0.52305   0.00000  Uiso   1.00
C817   C     0.03795   0.41387   0.75742   0.00000  Uiso   1.00
C818   C     0.29539   0.58613   0.74258   0.00000  Uiso   1.00
C819   C     0.29138   0.41902   0.72127   0.00000  Uiso   1.00
C820   C     0.04195   0.58098   0.77873   0.00000  Uiso   1.00
C821   C     0.21842   0.38286   0.80963   0.00000  Uiso   1.00
C822   C     0.11491   0.61714   0.69037   0.00000  Uiso   1.00
C823   C     0.11650   0.38088   0.68879   0.00000  Uiso   1.00
C824   C     0.21683   0.61912   0.81121   0.00000  Uiso   1.00
C825   C     0.16846   0.41740   0.97677   0.00000  Uiso   1.00
C826   C     0.01995   0.45802   0.74996   0.00000  Uiso   1.00
C827   C     0.31338   0.54198   0.75004   0.00000  Uiso   1.00
C828   C     0.31170   0.45962   0.73922   0.00000  Uiso   1.00
C829   C     0.02163   0.54038   0.76078   0.00000  Uiso   1.00
C830   C     0.29104   0.50105   0.74313   0.00000  Uiso   1.00
H831   H     0.16803   0.42696   0.88960   0.00000  Uiso   1.00
H832   H     0.16531   0.57305   0.61040   0.00000  Uiso   1.00
H833   H     0.16461   0.57308   0.88973   0.00000  Uiso   1.00
H834   H     0.16872   0.42692   0.61027   0.00000  Uiso   1.00
H835   H     0.16399   0.61462   0.95936   0.00000  Uiso   1.00
H836   H     0.16934   0.38538   0.54064   0.00000  Uiso   1.00
H837   H     0.16420   0.61460   0.54089   0.00000  Uiso   1.00
H838   H     0.16914   0.38540   0.95910   0.00000  Uiso   1.00
N839   N     0.16667   0.61907   0.75000   0.00000  Uiso   1.00
N840   N     0.23760   0.60024   0.83667   0.00000  Uiso   1.00
N841   N     0.16667   0.38093   0.75000   0.00000  Uiso   1.00
N842   N     0.05179   0.37857   0.76383   0.00000  Uiso   1.00
N843   N     0.28154   0.62143   0.73617   0.00000  Uiso   1.00
N844   N     0.27526   0.38685   0.70676   0.00000  Uiso   1.00
N845   N     0.05808   0.61315   0.79324   0.00000  Uiso   1.00
N846   N     0.24028   0.40260   0.83397   0.00000  Uiso   1.00
N847   N     0.09305   0.59740   0.66603   0.00000  Uiso   1.00
N848   N     0.09573   0.39976   0.66333   0.00000  Uiso   1.00
O849   O     0.10559   0.53821   0.74999   0.00000  Uiso   1.00
O850   O     0.22774   0.46179   0.75001   0.00000  Uiso   1.00
O851   O     0.22774   0.53821   0.75000   0.00000  Uiso   1.00
O852   O     0.10559   0.46179   0.74999   0.00000  Uiso   1.00
O853   O     0.16666   0.53823   0.68392   0.00000  Uiso   1.00
O854   O     0.16667   0.46177   0.81607   0.00000  Uiso   1.00
O855   O     0.16667   0.53823   0.81607   0.00000  Uiso   1.00
O856   O     0.16666   0.46177   0.68392   0.00000  Uiso   1.00
Zn857  Zn    0.16667   0.55104   0.75000   0.00000  Uiso   1.00
Zn858  Zn    0.16667   0.44896   0.75000   0.00000  Uiso   1.00
C859   C     0.42009   0.49962   0.75355   0.00000  Uiso   1.00
C860   C     0.37563   0.49895   0.75687   0.00000  Uiso   1.00
C861   C     0.52475   0.35789   0.77934   0.00000  Uiso   1.00
C862   C     0.47525   0.64211   0.72066   0.00000  Uiso   1.00
C863   C     0.47551   0.35693   0.72042   0.00000  Uiso   1.00
C864   C     0.52449   0.64307   0.77958   0.00000  Uiso   1.00
C865   C     0.50002   0.49998   0.66328   0.00000  Uiso   1.00
C866   C     0.49998   0.50002   0.83672   0.00000  Uiso   1.00
C867   C     0.50072   0.45882   0.90754   0.00000  Uiso   1.00
C868   C     0.49928   0.54118   0.59246   0.00000  Uiso   1.00
C869   C     0.49985   0.50003   0.88468   0.00000  Uiso   1.00
C870   C     0.57991   0.50038   0.74645   0.00000  Uiso   1.00
C871   C     0.50015   0.49997   0.61532   0.00000  Uiso   1.00
C872   C     0.49884   0.54123   0.90762   0.00000  Uiso   1.00
C873   C     0.50116   0.45877   0.59238   0.00000  Uiso   1.00
C874   C     0.49894   0.54153   0.95370   0.00000  Uiso   1.00
C875   C     0.50106   0.45847   0.54630   0.00000  Uiso   1.00
C876   C     0.49994   0.50001   0.97683   0.00000  Uiso   1.00
C877   C     0.50006   0.49999   0.52317   0.00000  Uiso   1.00
C878   C     0.50081   0.45849   0.95361   0.00000  Uiso   1.00
C879   C     0.49919   0.54151   0.54639   0.00000  Uiso   1.00
C880   C     0.49808   0.58261   0.97695   0.00000  Uiso   1.00
C881   C     0.49821   0.58260   0.52323   0.00000  Uiso   1.00
C882   C     0.50192   0.41739   0.52305   0.00000  Uiso   1.00
C883   C     0.37128   0.41387   0.75742   0.00000  Uiso   1.00
C884   C     0.62872   0.58613   0.74258   0.00000  Uiso   1.00
C885   C     0.62471   0.41902   0.72127   0.00000  Uiso   1.00
C886   C     0.37529   0.58098   0.77873   0.00000  Uiso   1.00
C887   C     0.55176   0.38286   0.80963   0.00000  Uiso   1.00
C888   C     0.44825   0.61714   0.69037   0.00000  Uiso   1.00
C889   C     0.44984   0.38088   0.68879   0.00000  Uiso   1.00
C890   C     0.55016   0.61912   0.81121   0.00000  Uiso   1.00
C891   C     0.50179   0.41740   0.97677   0.00000  Uiso   1.00
C892   C     0.35329   0.45802   0.74996   0.00000  Uiso   1.00
C893   C     0.64672   0.54198   0.75004   0.00000  Uiso   1.00
C894   C     0.64503   0.45962   0.73922   0.00000  Uiso   1.00
C895   C     0.35497   0.54038   0.76078   0.00000  Uiso   1.00
C896   C     0.62437   0.50105   0.74313   0.00000  Uiso   1.00
H897   H     0.50136   0.42696   0.88960   0.00000  Uiso   1.00
H898   H     0.49864   0.57305   0.61040   0.00000  Uiso   1.00
H899   H     0.49795   0.57308   0.88973   0.00000  Uiso   1.00
H900   H     0.50206   0.42692   0.61027   0.00000  Uiso   1.00
H901   H     0.49733   0.61462   0.95936   0.00000  Uiso   1.00
H902   H     0.50268   0.38538   0.54064   0.00000  Uiso   1.00
H903   H     0.49753   0.61460   0.54089   0.00000  Uiso   1.00
H904   H     0.50247   0.38540   0.95910   0.00000  Uiso   1.00
N905   N     0.50000   0.61907   0.75000   0.00000  Uiso   1.00
N906   N     0.57093   0.60024   0.83667   0.00000  Uiso   1.00
N907   N     0.50000   0.38093   0.75000   0.00000  Uiso   1.00
N908   N     0.38512   0.37857   0.76383   0.00000  Uiso   1.00
N909   N     0.61488   0.62143   0.73617   0.00000  Uiso   1.00
N910   N     0.60859   0.38685   0.70676   0.00000  Uiso   1.00
N911   N     0.39141   0.61315   0.79324   0.00000  Uiso   1.00
N912   N     0.57362   0.40260   0.83397   0.00000  Uiso   1.00
N913   N     0.42638   0.59740   0.66603   0.00000  Uiso   1.00
N914   N     0.42907   0.39976   0.66333   0.00000  Uiso   1.00
O915   O     0.43892   0.53821   0.74999   0.00000  Uiso   1.00
O916   O     0.56108   0.46179   0.75001   0.00000  Uiso   1.00
O917   O     0.56108   0.53821   0.75000   0.00000  Uiso   1.00
O918   O     0.43892   0.46179   0.74999   0.00000  Uiso   1.00
O919   O     0.49999   0.53823   0.68392   0.00000  Uiso   1.00
O920   O     0.50001   0.46177   0.81607   0.00000  Uiso   1.00
O921   O     0.50001   0.53823   0.81607   0.00000  Uiso   1.00
O922   O     0.49999   0.46177   0.68392   0.00000  Uiso   1.00
Zn923  Zn    0.50000   0.55104   0.75000   0.00000  Uiso   1.00
Zn924  Zn    0.50000   0.44896   0.75000   0.00000  Uiso   1.00
C925   C     0.75343   0.49962   0.75355   0.00000  Uiso   1.00
C926   C     0.70896   0.49895   0.75687   0.00000  Uiso   1.00
C927   C     0.85808   0.35789   0.77934   0.00000  Uiso   1.00
C928   C     0.80859   0.64211   0.72066   0.00000  Uiso   1.00
C929   C     0.80884   0.35693   0.72042   0.00000  Uiso   1.00
C930   C     0.85783   0.64307   0.77958   0.00000  Uiso   1.00
C931   C     0.83335   0.49998   0.66328   0.00000  Uiso   1.00
C932   C     0.83332   0.50002   0.83672   0.00000  Uiso   1.00
C933   C     0.83406   0.45882   0.90754   0.00000  Uiso   1.00
C934   C     0.83261   0.54118   0.59246   0.00000  Uiso   1.00
C935   C     0.83318   0.50003   0.88468   0.00000  Uiso   1.00
C936   C     0.91324   0.50038   0.74645   0.00000  Uiso   1.00
C937   C     0.83349   0.49997   0.61532   0.00000  Uiso   1.00
C938   C     0.83217   0.54123   0.90762   0.00000  Uiso   1.00
C939   C     0.83450   0.45877   0.59238   0.00000  Uiso   1.00
C940   C     0.83227   0.54153   0.95370   0.00000  Uiso   1.00
C941   C     0.83440   0.45847   0.54630   0.00000  Uiso   1.00
C942   C     0.83328   0.50001   0.97683   0.00000  Uiso   1.00
C943   C     0.83339   0.49999   0.52317   0.00000  Uiso   1.00
C944   C     0.83415   0.45849   0.95361   0.00000  Uiso   1.00
C945   C     0.83252   0.54151   0.54639   0.00000  Uiso   1.00
C946   C     0.83141   0.58261   0.97695   0.00000  Uiso   1.00
C947   C     0.83154   0.58260   0.52323   0.00000  Uiso   1.00
C948   C     0.83526   0.41739   0.52305   0.00000  Uiso   1.00
C949   C     0.70461   0.41387   0.75742   0.00000  Uiso   1.00
C950   C     0.96205   0.58613   0.74258   0.00000  Uiso   1.00
C951   C     0.95805   0.41902   0.72127   0.00000  Uiso   1.00
C952   C     0.70862   0.58098   0.77873   0.00000  Uiso   1.00
C953   C     0.88509   0.38286   0.80963   0.00000  Uiso   1.00
C954   C     0.78158   0.61714   0.69037   0.00000  Uiso   1.00
C955   C     0.78317   0.38088   0.68879   0.00000  Uiso   1.00
C956   C     0.88350   0.61912   0.81121   0.00000  Uiso   1.00
C957   C     0.83513   0.41740   0.97677   0.00000  Uiso   1.00
C958   C     0.68662   0.45802   0.74996   0.00000  Uiso   1.00
C959   C     0.98005   0.54198   0.75004   0.00000  Uiso   1.00
C960   C     0.97837   0.45962   0.73922   0.00000  Uiso   1.00
C961   C     0.68830   0.54038   0.76078   0.00000  Uiso   1.00
C962   C     0.95771   0.50105   0.74313   0.00000  Uiso   1.00
H963   H     0.83469   0.42696   0.88960   0.00000  Uiso   1.00
H964   H     0.83197   0.57305   0.61040   0.00000  Uiso   1.00
H965   H     0.83128   0.57308   0.88973   0.00000  Uiso   1.00
H966   H     0.83539   0.42692   0.61027   0.00000  Uiso   1.00
H967   H     0.83066   0.61462   0.95936   0.00000  Uiso   1.00
H968   H     0.83601   0.38538   0.54064   0.00000  Uiso   1.00
H969   H     0.83087   0.61460   0.54089   0.00000  Uiso   1.00
H970   H     0.83580   0.38540   0.95910   0.00000  Uiso   1.00
N971   N     0.83333   0.61907   0.75000   0.00000  Uiso   1.00
N972   N     0.90427   0.60024   0.83667   0.00000  Uiso   1.00
N973   N     0.83333   0.38093   0.75000   0.00000  Uiso   1.00
N974   N     0.71846   0.37857   0.76383   0.00000  Uiso   1.00
N975   N     0.94821   0.62143   0.73617   0.00000  Uiso   1.00
N976   N     0.94192   0.38685   0.70676   0.00000  Uiso   1.00
N977   N     0.72474   0.61315   0.79324   0.00000  Uiso   1.00
N978   N     0.90695   0.40260   0.83397   0.00000  Uiso   1.00
N979   N     0.75972   0.59740   0.66603   0.00000  Uiso   1.00
N980   N     0.76240   0.39976   0.66333   0.00000  Uiso   1.00
O981   O     0.77226   0.53821   0.74999   0.00000  Uiso   1.00
O982   O     0.89441   0.46179   0.75001   0.00000  Uiso   1.00
O983   O     0.89441   0.53821   0.75000   0.00000  Uiso   1.00
O984   O     0.77226   0.46179   0.74999   0.00000  Uiso   1.00
O985   O     0.83333   0.53823   0.68392   0.00000  Uiso   1.00
O986   O     0.83334   0.46177   0.81607   0.00000  Uiso   1.00
O987   O     0.83334   0.53823   0.81607   0.00000  Uiso   1.00
O988   O     0.83333   0.46177   0.68392   0.00000  Uiso   1.00
Zn989  Zn    0.83333   0.55104   0.75000   0.00000  Uiso   1.00
Zn990  Zn    0.83333   0.44896   0.75000   0.00000  Uiso   1.00
C991   C     0.08676   0.83295   0.75355   0.00000  Uiso   1.00
C992   C     0.04229   0.83228   0.75687   0.00000  Uiso   1.00
C993   C     0.19141   0.69122   0.77934   0.00000  Uiso   1.00
C994   C     0.14192   0.97545   0.72066   0.00000  Uiso   1.00
C995   C     0.14217   0.69026   0.72042   0.00000  Uiso   1.00
C996   C     0.19116   0.97640   0.77958   0.00000  Uiso   1.00
C997   C     0.16668   0.83331   0.66328   0.00000  Uiso   1.00
C998   C     0.16665   0.83335   0.83672   0.00000  Uiso   1.00
C999   C     0.16739   0.79215   0.90754   0.00000  Uiso   1.00
C1000  C     0.16595   0.87452   0.59246   0.00000  Uiso   1.00
C1001  C     0.16651   0.83337   0.88468   0.00000  Uiso   1.00
C1002  C     0.24658   0.83372   0.74645   0.00000  Uiso   1.00
C1003  C     0.16682   0.83330   0.61532   0.00000  Uiso   1.00
C1004  C     0.16550   0.87456   0.90762   0.00000  Uiso   1.00
C1005  C     0.16783   0.79210   0.59238   0.00000  Uiso   1.00
C1006  C     0.16561   0.87487   0.95370   0.00000  Uiso   1.00
C1007  C     0.16773   0.79180   0.54630   0.00000  Uiso   1.00
C1008  C     0.16661   0.83334   0.97683   0.00000  Uiso   1.00
C1009  C     0.16673   0.83333   0.52317   0.00000  Uiso   1.00
C1010  C     0.16748   0.79182   0.95361   0.00000  Uiso   1.00
C1011  C     0.16585   0.87484   0.54639   0.00000  Uiso   1.00
C1012  C     0.16475   0.91595   0.97695   0.00000  Uiso   1.00
C1013  C     0.16487   0.91594   0.52323   0.00000  Uiso   1.00
C1014  C     0.16859   0.75072   0.52305   0.00000  Uiso   1.00
C1015  C     0.03795   0.74720   0.75742   0.00000  Uiso   1.00
C1016  C     0.29539   0.91947   0.74258   0.00000  Uiso   1.00
C1017  C     0.29138   0.75235   0.72127   0.00000  Uiso   1.00
C1018  C     0.04195   0.91432   0.77873   0.00000  Uiso   1.00
C1019  C     0.21842   0.71620   0.80963   0.00000  Uiso   1.00
C1020  C     0.11491   0.95047   0.69037   0.00000  Uiso   1.00
C1021  C     0.11650   0.71422   0.68879   0.00000  Uiso   1.00
C1022  C     0.21683   0.95245   0.81121   0.00000  Uiso   1.00
C1023  C     0.16846   0.75073   0.97677   0.00000  Uiso   1.00
C1024  C     0.01995   0.79136   0.74996   0.00000  Uiso   1.00
C1025  C     0.31338   0.87531   0.75004   0.00000  Uiso   1.00
C1026  C     0.31170   0.79296   0.73922   0.00000  Uiso   1.00
C1027  C     0.02163   0.87371   0.76078   0.00000  Uiso   1.00
C1028  C     0.29104   0.83439   0.74313   0.00000  Uiso   1.00
H1029  H     0.16803   0.76029   0.88960   0.00000  Uiso   1.00
H1030  H     0.16531   0.90638   0.61040   0.00000  Uiso   1.00
H1031  H     0.16461   0.90641   0.88973   0.00000  Uiso   1.00
H1032  H     0.16872   0.76025   0.61027   0.00000  Uiso   1.00
H1033  H     0.16399   0.94796   0.95936   0.00000  Uiso   1.00
H1034  H     0.16934   0.71871   0.54064   0.00000  Uiso   1.00
H1035  H     0.16420   0.94794   0.54089   0.00000  Uiso   1.00
H1036  H     0.16914   0.71873   0.95910   0.00000  Uiso   1.00
N1037  N     0.16667   0.95240   0.75000   0.00000  Uiso   1.00
N1038  N     0.23760   0.93358   0.83667   0.00000  Uiso   1.00
N1039  N     0.16667   0.71427   0.75000   0.00000  Uiso   1.00
N1040  N     0.05179   0.71190   0.76383   0.00000  Uiso   1.00
N1041  N     0.28154   0.95476   0.73617   0.00000  Uiso   1.00
N1042  N     0.27526   0.72019   0.70676   0.00000  Uiso   1.00
N1043  N     0.05808   0.94648   0.79324   0.00000  Uiso   1.00
N1044  N     0.24028   0.73593   0.83397   0.00000  Uiso   1.00
N1045  N     0.09305   0.93073   0.66603   0.00000  Uiso   1.00
N1046  N     0.09573   0.73309   0.66333   0.00000  Uiso   1.00
O1047  O     0.10559   0.87154   0.74999   0.00000  Uiso   1.00
O1048  O     0.22774   0.79513   0.75001   0.00000  Uiso   1.00
O1049  O     0.22774   0.87154   0.75000   0.00000  Uiso   1.00
O1050  O     0.10559   0.79513   0.74999   0.00000  Uiso   1.00
O1051  O     0.16666   0.87156   0.68392   0.00000  Uiso   1.00
O1052  O     0.16667   0.79511   0.81607   0.00000  Uiso   1.00
O1053  O     0.16667   0.87156   0.81607   0.00000  Uiso   1.00
O1054  O     0.16666   0.79511   0.68392   0.00000  Uiso   1.00
Zn1055 Zn    0.16667   0.88437   0.75000   0.00000  Uiso   1.00
Zn1056 Zn    0.16667   0.78229   0.75000   0.00000  Uiso   1.00
C1057  C     0.42009   0.83295   0.75355   0.00000  Uiso   1.00
C1058  C     0.37563   0.83228   0.75687   0.00000  Uiso   1.00
C1059  C     0.52475   0.69122   0.77934   0.00000  Uiso   1.00
C1060  C     0.47525   0.97545   0.72066   0.00000  Uiso   1.00
C1061  C     0.47551   0.69026   0.72042   0.00000  Uiso   1.00
C1062  C     0.52449   0.97640   0.77958   0.00000  Uiso   1.00
C1063  C     0.50002   0.83331   0.66328   0.00000  Uiso   1.00
C1064  C     0.49998   0.83335   0.83672   0.00000  Uiso   1.00
C1065  C     0.50072   0.79215   0.90754   0.00000  Uiso   1.00
C1066  C     0.49928   0.87452   0.59246   0.00000  Uiso   1.00
C1067  C     0.49985   0.83337   0.88468   0.00000  Uiso   1.00
C1068  C     0.57991   0.83372   0.74645   0.00000  Uiso   1.00
C1069  C     0.50015   0.83330   0.61532   0.00000  Uiso   1.00
C1070  C     0.49884   0.87456   0.90762   0.00000  Uiso   1.00
C1071  C     0.50116   0.79210   0.59238   0.00000  Uiso   1.00
C1072  C     0.49894   0.87487   0.95370   0.00000  Uiso   1.00
C1073  C     0.50106   0.79180   0.54630   0.00000  Uiso   1.00
C1074  C     0.49994   0.83334   0.97683   0.00000  Uiso   1.00
C1075  C     0.50006   0.83333   0.52317   0.00000  Uiso   1.00
C1076  C     0.50081   0.79182   0.95361   0.00000  Uiso   1.00
C1077  C     0.49919   0.87484   0.54639   0.00000  Uiso   1.00
C1078  C     0.49808   0.91595   0.97695   0.00000  Uiso   1.00
C1079  C     0.49821   0.91594   0.52323   0.00000  Uiso   1.00
C1080  C     0.50192   0.75072   0.52305   0.00000  Uiso   1.00
C1081  C     0.37128   0.74720   0.75742   0.00000  Uiso   1.00
C1082  C     0.62872   0.91947   0.74258   0.00000  Uiso   1.00
C1083  C     0.62471   0.75235   0.72127   0.00000  Uiso   1.00
C1084  C     0.37529   0.91432   0.77873   0.00000  Uiso   1.00
C1085  C     0.55176   0.71620   0.80963   0.00000  Uiso   1.00
C1086  C     0.44825   0.95047   0.69037   0.00000  Uiso   1.00
C1087  C     0.44984   0.71422   0.68879   0.00000  Uiso   1.00
C1088  C     0.55016   0.95245   0.81121   0.00000  Uiso   1.00
C1089  C     0.50179   0.75073   0.97677   0.00000  Uiso   1.00
C1090  C     0.35329   0.79136   0.74996   0.00000  Uiso   1.00
C1091  C     0.64672   0.87531   0.75004   0.00000  Uiso   1.00
C1092  C     0.64503   0.79296   0.73922   0.00000  Uiso   1.00
C1093  C     0.35497   0.87371   0.76078   0.00000  Uiso   1.00
C1094  C     0.62437   0.83439   0.74313   0.00000  Uiso   1.00
H1095  H     0.50136   0.76029   0.88960   0.00000  Uiso   1.00
H1096  H     0.49864   0.90638   0.61040   0.00000  Uiso   1.00
H1097  H     0.49795   0.90641   0.88973   0.00000  Uiso   1.00
H1098  H     0.50206   0.76025   0.61027   0.00000  Uiso   1.00
H1099  H     0.49733   0.94796   0.95936   0.00000  Uiso   1.00
H1100  H     0.50268   0.71871   0.54064   0.00000  Uiso   1.00
H1101  H     0.49753   0.94794   0.54089   0.00000  Uiso   1.00
H1102  H     0.50247   0.71873   0.95910   0.00000  Uiso   1.00
N1103  N     0.50000   0.95240   0.75000   0.00000  Uiso   1.00
N1104  N     0.57093   0.93358   0.83667   0.00000  Uiso   1.00
N1105  N     0.50000   0.71427   0.75000   0.00000  Uiso   1.00
N1106  N     0.38512   0.71190   0.76383   0.00000  Uiso   1.00
N1107  N     0.61488   0.95476   0.73617   0.00000  Uiso   1.00
N1108  N     0.60859   0.72019   0.70676   0.00000  Uiso   1.00
N1109  N     0.39141   0.94648   0.79324   0.00000  Uiso   1.00
N1110  N     0.57362   0.73593   0.83397   0.00000  Uiso   1.00
N1111  N     0.42638   0.93073   0.66603   0.00000  Uiso   1.00
N1112  N     0.42907   0.73309   0.66333   0.00000  Uiso   1.00
O1113  O     0.43892   0.87154   0.74999   0.00000  Uiso   1.00
O1114  O     0.56108   0.79513   0.75001   0.00000  Uiso   1.00
O1115  O     0.56108   0.87154   0.75000   0.00000  Uiso   1.00
O1116  O     0.43892   0.79513   0.74999   0.00000  Uiso   1.00
O1117  O     0.49999   0.87156   0.68392   0.00000  Uiso   1.00
O1118  O     0.50001   0.79511   0.81607   0.00000  Uiso   1.00
O1119  O     0.50001   0.87156   0.81607   0.00000  Uiso   1.00
O1120  O     0.49999   0.79511   0.68392   0.00000  Uiso   1.00
Zn1121 Zn    0.50000   0.88437   0.75000   0.00000  Uiso   1.00
Zn1122 Zn    0.50000   0.78229   0.75000   0.00000  Uiso   1.00
C1123  C     0.75343   0.83295   0.75355   0.00000  Uiso   1.00
C1124  C     0.70896   0.83228   0.75687   0.00000  Uiso   1.00
C1125  C     0.85808   0.69122   0.77934   0.00000  Uiso   1.00
C1126  C     0.80859   0.97545   0.72066   0.00000  Uiso   1.00
C1127  C     0.80884   0.69026   0.72042   0.00000  Uiso   1.00
C1128  C     0.85783   0.97640   0.77958   0.00000  Uiso   1.00
C1129  C     0.83335   0.83331   0.66328   0.00000  Uiso   1.00
C1130  C     0.83332   0.83335   0.83672   0.00000  Uiso   1.00
C1131  C     0.83406   0.79215   0.90754   0.00000  Uiso   1.00
C1132  C     0.83261   0.87452   0.59246   0.00000  Uiso   1.00
C1133  C     0.83318   0.83337   0.88468   0.00000  Uiso   1.00
C1134  C     0.91324   0.83372   0.74645   0.00000  Uiso   1.00
C1135  C     0.83349   0.83330   0.61532   0.00000  Uiso   1.00
C1136  C     0.83217   0.87456   0.90762   0.00000  Uiso   1.00
C1137  C     0.83450   0.79210   0.59238   0.00000  Uiso   1.00
C1138  C     0.83227   0.87487   0.95370   0.00000  Uiso   1.00
C1139  C     0.83440   0.79180   0.54630   0.00000  Uiso   1.00
C1140  C     0.83328   0.83334   0.97683   0.00000  Uiso   1.00
C1141  C     0.83339   0.83333   0.52317   0.00000  Uiso   1.00
C1142  C     0.83415   0.79182   0.95361   0.00000  Uiso   1.00
C1143  C     0.83252   0.87484   0.54639   0.00000  Uiso   1.00
C1144  C     0.83141   0.91595   0.97695   0.00000  Uiso   1.00
C1145  C     0.83154   0.91594   0.52323   0.00000  Uiso   1.00
C1146  C     0.83526   0.75072   0.52305   0.00000  Uiso   1.00
C1147  C     0.70461   0.74720   0.75742   0.00000  Uiso   1.00
C1148  C     0.96205   0.91947   0.74258   0.00000  Uiso   1.00
C1149  C     0.95805   0.75235   0.72127   0.00000  Uiso   1.00
C1150  C     0.70862   0.91432   0.77873   0.00000  Uiso   1.00
C1151  C     0.88509   0.71620   0.80963   0.00000  Uiso   1.00
C1152  C     0.78158   0.95047   0.69037   0.00000  Uiso   1.00
C1153  C     0.78317   0.71422   0.68879   0.00000  Uiso   1.00
C1154  C     0.88350   0.95245   0.81121   0.00000  Uiso   1.00
C1155  C     0.83513   0.75073   0.97677   0.00000  Uiso   1.00
C1156  C     0.68662   0.79136   0.74996   0.00000  Uiso   1.00
C1157  C     0.98005   0.87531   0.75004   0.00000  Uiso   1.00
C1158  C     0.97837   0.79296   0.73922   0.00000  Uiso   1.00
C1159  C     0.68830   0.87371   0.76078   0.00000  Uiso   1.00
C1160  C     0.95771   0.83439   0.74313   0.00000  Uiso   1.00
H1161  H     0.83469   0.76029   0.88960   0.00000  Uiso   1.00
H1162  H     0.83197   0.90638   0.61040   0.00000  Uiso   1.00
H1163  H     0.83128   0.90641   0.88973   0.00000  Uiso   1.00
H1164  H     0.83539   0.76025   0.61027   0.00000  Uiso   1.00
H1165  H     0.83066   0.94796   0.95936   0.00000  Uiso   1.00
H1166  H     0.83601   0.71871   0.54064   0.00000  Uiso   1.00
H1167  H     0.83087   0.94794   0.54089   0.00000  Uiso   1.00
H1168  H     0.83580   0.71873   0.95910   0.00000  Uiso   1.00
N1169  N     0.83333   0.95240   0.75000   0.00000  Uiso   1.00
N1170  N     0.90427   0.93358   0.83667   0.00000  Uiso   1.00
N1171  N     0.83333   0.71427   0.75000   0.00000  Uiso   1.00
N1172  N     0.71846   0.71190   0.76383   0.00000  Uiso   1.00
N1173  N     0.94821   0.95476   0.73617   0.00000  Uiso   1.00
N1174  N     0.94192   0.72019   0.70676   0.00000  Uiso   1.00
N1175  N     0.72474   0.94648   0.79324   0.00000  Uiso   1.00
N1176  N     0.90695   0.73593   0.83397   0.00000  Uiso   1.00
N1177  N     0.75972   0.93073   0.66603   0.00000  Uiso   1.00
N1178  N     0.76240   0.73309   0.66333   0.00000  Uiso   1.00
O1179  O     0.77226   0.87154   0.74999   0.00000  Uiso   1.00
O1180  O     0.89441   0.79513   0.75001   0.00000  Uiso   1.00
O1181  O     0.89441   0.87154   0.75000   0.00000  Uiso   1.00
O1182  O     0.77226   0.79513   0.74999   0.00000  Uiso   1.00
O1183  O     0.83333   0.87156   0.68392   0.00000  Uiso   1.00
O1184  O     0.83334   0.79511   0.81607   0.00000  Uiso   1.00
O1185  O     0.83334   0.87156   0.81607   0.00000  Uiso   1.00
O1186  O     0.83333   0.79511   0.68392   0.00000  Uiso   1.00
Zn1187 Zn    0.83333   0.88437   0.75000   0.00000  Uiso   1.00
Zn1188 Zn    0.83333   0.78229   0.75000   0.00000  Uiso   1.00
loop_
_geom_bond_atom_site_label_1
_geom_bond_atom_site_label_2
_geom_bond_distance
_geom_bond_site_symmetry_2
_ccdc_geom_bond_type
C1     O57     1.290   .     A
C1     C2      1.448   .     S
C1     O60     1.288   .     A
C2     C34     1.412   .     A
C2     C37     1.411   .     A
C3     N49     1.369   .     A
C3     C29     1.443   .     S
C3     C402    1.422   1_545 S
C4     C30     1.443   .     S
C4     N47     1.369   .     A
C4     C203    1.422   .     S
C5     N49     1.369   .     A
C5     C31     1.443   .     S
C5     C400    1.422   1_545 S
C6     C32     1.443   .     S
C6     N47     1.369   .     A
C6     C201    1.422   .     S
C7     C13     1.440   .     S
C7     O64     1.288   .     A
C7     O61     1.288   .     A
C8     C11     1.440   .     S
C8     O63     1.288   .     A
C8     O62     1.288   .     A
C9     C11     1.399   .     A
C9     C20     1.383   .     A
C9     H39     1.084   .     S
C10    C13     1.399   .     A
C10    H40     1.084   .     S
C10    C21     1.383   .     A
C11    C14     1.399   .     A
C12    O58     1.290   .     A
C12    C38     1.448   .     S
C12    O59     1.288   .     A
C13    C15     1.399   .     A
C14    H41     1.084   .     S
C14    C16     1.383   .     A
C15    C17     1.383   .     A
C15    H42     1.084   .     S
C16    C18     1.411   .     A
C16    C22     1.400   .     A
C17    C24     1.400   .     A
C17    C19     1.411   .     A
C18    C20     1.411   .     A
C18    C613    1.391   .     S
C19    C21     1.411   .     A
C19    C612    1.391   1_554 S
C20    C33     1.400   .     A
C21    C23     1.400   .     A
C22    H43     1.084   .     S
C22    C617    1.389   .     S
C23    H45     1.084   .     S
C23    C616    1.389   1_554 S
C24    H44     1.084   .     S
C24    C627    1.389   1_554 S
C25    C34     1.453   .     S
C25    N50     1.157   .     T
C26    N51     1.157   .     T
C26    C35     1.453   .     S
C27    C36     1.457   .     S
C27    N52     1.157   .     T
C28    N53     1.157   .     T
C28    C37     1.457   .     S
C29    N54     1.158   .     T
C30    N55     1.158   .     T
C31    N56     1.158   .     T
C32    N48     1.158   .     T
C33    H46     1.084   .     S
C33    C618    1.389   .     S
C34    C168    1.382   1_455 S
C35    C38     1.412   .     A
C35    C103    1.382   .     S
C36    C38     1.411   .     A
C36    C100    1.382   .     S
C37    C167    1.382   1_455 S
N47    Zn65    2.010   .     S
N49    Zn66    2.010   .     S
O57    Zn65    2.012   .     S
O58    Zn66    2.012   .     S
O59    Zn65    2.024   .     S
O60    Zn66    2.024   .     S
O61    Zn65    2.019   .     S
O62    Zn66    2.019   .     S
O63    Zn65    2.020   .     S
O64    Zn66    2.020   .     S
C67    O123    1.290   .     A
C67    C68     1.448   .     S
C67    O126    1.288   .     A
C68    C100    1.412   .     A
C68    C103    1.411   .     A
C69    N115    1.369   .     A
C69    C95     1.443   .     S
C69    C468    1.422   1_545 S
C70    C96     1.443   .     S
C70    N113    1.369   .     A
C70    C269    1.422   .     S
C71    N115    1.369   .     A
C71    C97     1.443   .     S
C71    C466    1.422   1_545 S
C72    C98     1.443   .     S
C72    N113    1.369   .     A
C72    C267    1.422   .     S
C73    C79     1.440   .     S
C73    O130    1.288   .     A
C73    O127    1.288   .     A
C74    C77     1.440   .     S
C74    O129    1.288   .     A
C74    O128    1.288   .     A
C75    C77     1.399   .     A
C75    C86     1.383   .     A
C75    H105    1.084   .     S
C76    C79     1.399   .     A
C76    H106    1.084   .     S
C76    C87     1.383   .     A
C77    C80     1.399   .     A
C78    O124    1.290   .     A
C78    C104    1.448   .     S
C78    O125    1.288   .     A
C79    C81     1.399   .     A
C80    H107    1.084   .     S
C80    C82     1.383   .     A
C81    C83     1.383   .     A
C81    H108    1.084   .     S
C82    C84     1.411   .     A
C82    C88     1.400   .     A
C83    C90     1.400   .     A
C83    C85     1.411   .     A
C84    C86     1.411   .     A
C84    C679    1.391   .     S
C85    C87     1.411   .     A
C85    C678    1.391   1_554 S
C86    C99     1.400   .     A
C87    C89     1.400   .     A
C88    H109    1.084   .     S
C88    C683    1.389   .     S
C89    H111    1.084   .     S
C89    C682    1.389   1_554 S
C90    H110    1.084   .     S
C90    C693    1.389   1_554 S
C91    C100    1.453   .     S
C91    N116    1.157   .     T
C92    N117    1.157   .     T
C92    C101    1.453   .     S
C93    C102    1.457   .     S
C93    N118    1.157   .     T
C94    N119    1.157   .     T
C94    C103    1.457   .     S
C95    N120    1.158   .     T
C96    N121    1.158   .     T
C97    N122    1.158   .     T
C98    N114    1.158   .     T
C99    H112    1.084   .     S
C99    C684    1.389   .     S
C101   C104    1.412   .     A
C101   C169    1.382   .     S
C102   C104    1.411   .     A
C102   C166    1.382   .     S
N113   Zn131   2.010   .     S
N115   Zn132   2.010   .     S
O123   Zn131   2.012   .     S
O124   Zn132   2.012   .     S
O125   Zn131   2.024   .     S
O126   Zn132   2.024   .     S
O127   Zn131   2.019   .     S
O128   Zn132   2.019   .     S
O129   Zn131   2.020   .     S
O130   Zn132   2.020   .     S
C133   O189    1.290   .     A
C133   C134    1.448   .     S
C133   O192    1.288   .     A
C134   C166    1.412   .     A
C134   C169    1.411   .     A
C135   N181    1.369   .     A
C135   C161    1.443   .     S
C135   C534    1.422   1_545 S
C136   C162    1.443   .     S
C136   N179    1.369   .     A
C136   C335    1.422   .     S
C137   N181    1.369   .     A
C137   C163    1.443   .     S
C137   C532    1.422   1_545 S
C138   C164    1.443   .     S
C138   N179    1.369   .     A
C138   C333    1.422   .     S
C139   C145    1.440   .     S
C139   O196    1.288   .     A
C139   O193    1.288   .     A
C140   C143    1.440   .     S
C140   O195    1.288   .     A
C140   O194    1.288   .     A
C141   C143    1.399   .     A
C141   C152    1.383   .     A
C141   H171    1.084   .     S
C142   C145    1.399   .     A
C142   H172    1.084   .     S
C142   C153    1.383   .     A
C143   C146    1.399   .     A
C144   O190    1.290   .     A
C144   C170    1.448   .     S
C144   O191    1.288   .     A
C145   C147    1.399   .     A
C146   H173    1.084   .     S
C146   C148    1.383   .     A
C147   C149    1.383   .     A
C147   H174    1.084   .     S
C148   C150    1.411   .     A
C148   C154    1.400   .     A
C149   C156    1.400   .     A
C149   C151    1.411   .     A
C150   C152    1.411   .     A
C150   C745    1.391   .     S
C151   C153    1.411   .     A
C151   C744    1.391   1_554 S
C152   C165    1.400   .     A
C153   C155    1.400   .     A
C154   H175    1.084   .     S
C154   C749    1.389   .     S
C155   H177    1.084   .     S
C155   C748    1.389   1_554 S
C156   H176    1.084   .     S
C156   C759    1.389   1_554 S
C157   C166    1.453   .     S
C157   N182    1.157   .     T
C158   N183    1.157   .     T
C158   C167    1.453   .     S
C159   C168    1.457   .     S
C159   N184    1.157   .     T
C160   N185    1.157   .     T
C160   C169    1.457   .     S
C161   N186    1.158   .     T
C162   N187    1.158   .     T
C163   N188    1.158   .     T
C164   N180    1.158   .     T
C165   H178    1.084   .     S
C165   C750    1.389   .     S
C167   C170    1.412   .     A
C167   C37     1.382   1_655 S
C168   C170    1.411   .     A
C168   C34     1.382   1_655 S
N179   Zn197   2.010   .     S
N181   Zn198   2.010   .     S
O189   Zn197   2.012   .     S
O190   Zn198   2.012   .     S
O191   Zn197   2.024   .     S
O192   Zn198   2.024   .     S
O193   Zn197   2.019   .     S
O194   Zn198   2.019   .     S
O195   Zn197   2.020   .     S
O196   Zn198   2.020   .     S
C199   O255    1.290   .     A
C199   C200    1.448   .     S
C199   O258    1.288   .     A
C200   C232    1.412   .     A
C200   C235    1.411   .     A
C201   N247    1.369   .     A
C201   C227    1.443   .     S
C202   C228    1.443   .     S
C202   N245    1.369   .     A
C202   C401    1.422   .     S
C203   N247    1.369   .     A
C203   C229    1.443   .     S
C204   C230    1.443   .     S
C204   N245    1.369   .     A
C204   C399    1.422   .     S
C205   C211    1.440   .     S
C205   O262    1.288   .     A
C205   O259    1.288   .     A
C206   C209    1.440   .     S
C206   O261    1.288   .     A
C206   O260    1.288   .     A
C207   C209    1.399   .     A
C207   C218    1.383   .     A
C207   H237    1.084   .     S
C208   C211    1.399   .     A
C208   H238    1.084   .     S
C208   C219    1.383   .     A
C209   C212    1.399   .     A
C210   O256    1.290   .     A
C210   C236    1.448   .     S
C210   O257    1.288   .     A
C211   C213    1.399   .     A
C212   H239    1.084   .     S
C212   C214    1.383   .     A
C213   C215    1.383   .     A
C213   H240    1.084   .     S
C214   C216    1.411   .     A
C214   C220    1.400   .     A
C215   C222    1.400   .     A
C215   C217    1.411   .     A
C216   C218    1.411   .     A
C216   C811    1.391   .     S
C217   C219    1.411   .     A
C217   C810    1.391   1_554 S
C218   C231    1.400   .     A
C219   C221    1.400   .     A
C220   H241    1.084   .     S
C220   C815    1.389   .     S
C221   H243    1.084   .     S
C221   C814    1.389   1_554 S
C222   H242    1.084   .     S
C222   C825    1.389   1_554 S
C223   C232    1.453   .     S
C223   N248    1.157   .     T
C224   N249    1.157   .     T
C224   C233    1.453   .     S
C225   C234    1.457   .     S
C225   N250    1.157   .     T
C226   N251    1.157   .     T
C226   C235    1.457   .     S
C227   N252    1.158   .     T
C228   N253    1.158   .     T
C229   N254    1.158   .     T
C230   N246    1.158   .     T
C231   H244    1.084   .     S
C231   C816    1.389   .     S
C232   C366    1.382   1_455 S
C233   C236    1.412   .     A
C233   C301    1.382   .     S
C234   C236    1.411   .     A
C234   C298    1.382   .     S
C235   C365    1.382   1_455 S
N245   Zn263   2.010   .     S
N247   Zn264   2.010   .     S
O255   Zn263   2.012   .     S
O256   Zn264   2.012   .     S
O257   Zn263   2.024   .     S
O258   Zn264   2.024   .     S
O259   Zn263   2.019   .     S
O260   Zn264   2.019   .     S
O261   Zn263   2.020   .     S
O262   Zn264   2.020   .     S
C265   O321    1.290   .     A
C265   C266    1.448   .     S
C265   O324    1.288   .     A
C266   C298    1.412   .     A
C266   C301    1.411   .     A
C267   N313    1.369   .     A
C267   C293    1.443   .     S
C268   C294    1.443   .     S
C268   N311    1.369   .     A
C268   C467    1.422   .     S
C269   N313    1.369   .     A
C269   C295    1.443   .     S
C270   C296    1.443   .     S
C270   N311    1.369   .     A
C270   C465    1.422   .     S
C271   C277    1.440   .     S
C271   O328    1.288   .     A
C271   O325    1.288   .     A
C272   C275    1.440   .     S
C272   O327    1.288   .     A
C272   O326    1.288   .     A
C273   C275    1.399   .     A
C273   C284    1.383   .     A
C273   H303    1.084   .     S
C274   C277    1.399   .     A
C274   H304    1.084   .     S
C274   C285    1.383   .     A
C275   C278    1.399   .     A
C276   O322    1.290   .     A
C276   C302    1.448   .     S
C276   O323    1.288   .     A
C277   C279    1.399   .     A
C278   H305    1.084   .     S
C278   C280    1.383   .     A
C279   C281    1.383   .     A
C279   H306    1.084   .     S
C280   C282    1.411   .     A
C280   C286    1.400   .     A
C281   C288    1.400   .     A
C281   C283    1.411   .     A
C282   C284    1.411   .     A
C282   C877    1.391   .     S
C283   C285    1.411   .     A
C283   C876    1.391   1_554 S
C284   C297    1.400   .     A
C285   C287    1.400   .     A
C286   H307    1.084   .     S
C286   C881    1.389   .     S
C287   H309    1.084   .     S
C287   C880    1.389   1_554 S
C288   H308    1.084   .     S
C288   C891    1.389   1_554 S
C289   C298    1.453   .     S
C289   N314    1.157   .     T
C290   N315    1.157   .     T
C290   C299    1.453   .     S
C291   C300    1.457   .     S
C291   N316    1.157   .     T
C292   N317    1.157   .     T
C292   C301    1.457   .     S
C293   N318    1.158   .     T
C294   N319    1.158   .     T
C295   N320    1.158   .     T
C296   N312    1.158   .     T
C297   H310    1.084   .     S
C297   C882    1.389   .     S
C299   C302    1.412   .     A
C299   C367    1.382   .     S
C300   C302    1.411   .     A
C300   C364    1.382   .     S
N311   Zn329   2.010   .     S
N313   Zn330   2.010   .     S
O321   Zn329   2.012   .     S
O322   Zn330   2.012   .     S
O323   Zn329   2.024   .     S
O324   Zn330   2.024   .     S
O325   Zn329   2.019   .     S
O326   Zn330   2.019   .     S
O327   Zn329   2.020   .     S
O328   Zn330   2.020   .     S
C331   O387    1.290   .     A
C331   C332    1.448   .     S
C331   O390    1.288   .     A
C332   C364    1.412   .     A
C332   C367    1.411   .     A
C333   N379    1.369   .     A
C333   C359    1.443   .     S
C334   C360    1.443   .     S
C334   N377    1.369   .     A
C334   C533    1.422   .     S
C335   N379    1.369   .     A
C335   C361    1.443   .     S
C336   C362    1.443   .     S
C336   N377    1.369   .     A
C336   C531    1.422   .     S
C337   C343    1.440   .     S
C337   O394    1.288   .     A
C337   O391    1.288   .     A
C338   C341    1.440   .     S
C338   O393    1.288   .     A
C338   O392    1.288   .     A
C339   C341    1.399   .     A
C339   C350    1.383   .     A
C339   H369    1.084   .     S
C340   C343    1.399   .     A
C340   H370    1.084   .     S
C340   C351    1.383   .     A
C341   C344    1.399   .     A
C342   O388    1.290   .     A
C342   C368    1.448   .     S
C342   O389    1.288   .     A
C343   C345    1.399   .     A
C344   H371    1.084   .     S
C344   C346    1.383   .     A
C345   C347    1.383   .     A
C345   H372    1.084   .     S
C346   C348    1.411   .     A
C346   C352    1.400   .     A
C347   C354    1.400   .     A
C347   C349    1.411   .     A
C348   C350    1.411   .     A
C348   C943    1.391   .     S
C349   C351    1.411   .     A
C349   C942    1.391   1_554 S
C350   C363    1.400   .     A
C351   C353    1.400   .     A
C352   H373    1.084   .     S
C352   C947    1.389   .     S
C353   H375    1.084   .     S
C353   C946    1.389   1_554 S
C354   H374    1.084   .     S
C354   C957    1.389   1_554 S
C355   C364    1.453   .     S
C355   N380    1.157   .     T
C356   N381    1.157   .     T
C356   C365    1.453   .     S
C357   C366    1.457   .     S
C357   N382    1.157   .     T
C358   N383    1.157   .     T
C358   C367    1.457   .     S
C359   N384    1.158   .     T
C360   N385    1.158   .     T
C361   N386    1.158   .     T
C362   N378    1.158   .     T
C363   H376    1.084   .     S
C363   C948    1.389   .     S
C365   C368    1.412   .     A
C365   C235    1.382   1_655 S
C366   C368    1.411   .     A
C366   C232    1.382   1_655 S
N377   Zn395   2.010   .     S
N379   Zn396   2.010   .     S
O387   Zn395   2.012   .     S
O388   Zn396   2.012   .     S
O389   Zn395   2.024   .     S
O390   Zn396   2.024   .     S
O391   Zn395   2.019   .     S
O392   Zn396   2.019   .     S
O393   Zn395   2.020   .     S
O394   Zn396   2.020   .     S
C397   O453    1.290   .     A
C397   C398    1.448   .     S
C397   O456    1.288   .     A
C398   C430    1.412   .     A
C398   C433    1.411   .     A
C399   N445    1.369   .     A
C399   C425    1.443   .     S
C400   C426    1.443   .     S
C400   N443    1.369   .     A
C400   C5      1.422   1_565 S
C401   N445    1.369   .     A
C401   C427    1.443   .     S
C402   C428    1.443   .     S
C402   N443    1.369   .     A
C402   C3      1.422   1_565 S
C403   C409    1.440   .     S
C403   O460    1.288   .     A
C403   O457    1.288   .     A
C404   C407    1.440   .     S
C404   O459    1.288   .     A
C404   O458    1.288   .     A
C405   C407    1.399   .     A
C405   C416    1.383   .     A
C405   H435    1.084   .     S
C406   C409    1.399   .     A
C406   H436    1.084   .     S
C406   C417    1.383   .     A
C407   C410    1.399   .     A
C408   O454    1.290   .     A
C408   C434    1.448   .     S
C408   O455    1.288   .     A
C409   C411    1.399   .     A
C410   H437    1.084   .     S
C410   C412    1.383   .     A
C411   C413    1.383   .     A
C411   H438    1.084   .     S
C412   C414    1.411   .     A
C412   C418    1.400   .     A
C413   C420    1.400   .     A
C413   C415    1.411   .     A
C414   C416    1.411   .     A
C414   C1009   1.391   .     S
C415   C417    1.411   .     A
C415   C1008   1.391   1_554 S
C416   C429    1.400   .     A
C417   C419    1.400   .     A
C418   H439    1.084   .     S
C418   C1013   1.389   .     S
C419   H441    1.084   .     S
C419   C1012   1.389   1_554 S
C420   H440    1.084   .     S
C420   C1023   1.389   1_554 S
C421   C430    1.453   .     S
C421   N446    1.157   .     T
C422   N447    1.157   .     T
C422   C431    1.453   .     S
C423   C432    1.457   .     S
C423   N448    1.157   .     T
C424   N449    1.157   .     T
C424   C433    1.457   .     S
C425   N450    1.158   .     T
C426   N451    1.158   .     T
C427   N452    1.158   .     T
C428   N444    1.158   .     T
C429   H442    1.084   .     S
C429   C1014   1.389   .     S
C430   C564    1.382   1_455 S
C431   C434    1.412   .     A
C431   C499    1.382   .     S
C432   C434    1.411   .     A
C432   C496    1.382   .     S
C433   C563    1.382   1_455 S
N443   Zn461   2.010   .     S
N445   Zn462   2.010   .     S
O453   Zn461   2.012   .     S
O454   Zn462   2.012   .     S
O455   Zn461   2.024   .     S
O456   Zn462   2.024   .     S
O457   Zn461   2.019   .     S
O458   Zn462   2.019   .     S
O459   Zn461   2.020   .     S
O460   Zn462   2.020   .     S
C463   O519    1.290   .     A
C463   C464    1.448   .     S
C463   O522    1.288   .     A
C464   C496    1.412   .     A
C464   C499    1.411   .     A
C465   N511    1.369   .     A
C465   C491    1.443   .     S
C466   C492    1.443   .     S
C466   N509    1.369   .     A
C466   C71     1.422   1_565 S
C467   N511    1.369   .     A
C467   C493    1.443   .     S
C468   C494    1.443   .     S
C468   N509    1.369   .     A
C468   C69     1.422   1_565 S
C469   C475    1.440   .     S
C469   O526    1.288   .     A
C469   O523    1.288   .     A
C470   C473    1.440   .     S
C470   O525    1.288   .     A
C470   O524    1.288   .     A
C471   C473    1.399   .     A
C471   C482    1.383   .     A
C471   H501    1.084   .     S
C472   C475    1.399   .     A
C472   H502    1.084   .     S
C472   C483    1.383   .     A
C473   C476    1.399   .     A
C474   O520    1.290   .     A
C474   C500    1.448   .     S
C474   O521    1.288   .     A
C475   C477    1.399   .     A
C476   H503    1.084   .     S
C476   C478    1.383   .     A
C477   C479    1.383   .     A
C477   H504    1.084   .     S
C478   C480    1.411   .     A
C478   C484    1.400   .     A
C479   C486    1.400   .     A
C479   C481    1.411   .     A
C480   C482    1.411   .     A
C480   C1075   1.391   .     S
C481   C483    1.411   .     A
C481   C1074   1.391   1_554 S
C482   C495    1.400   .     A
C483   C485    1.400   .     A
C484   H505    1.084   .     S
C484   C1079   1.389   .     S
C485   H507    1.084   .     S
C485   C1078   1.389   1_554 S
C486   H506    1.084   .     S
C486   C1089   1.389   1_554 S
C487   C496    1.453   .     S
C487   N512    1.157   .     T
C488   N513    1.157   .     T
C488   C497    1.453   .     S
C489   C498    1.457   .     S
C489   N514    1.157   .     T
C490   N515    1.157   .     T
C490   C499    1.457   .     S
C491   N516    1.158   .     T
C492   N517    1.158   .     T
C493   N518    1.158   .     T
C494   N510    1.158   .     T
C495   H508    1.084   .     S
C495   C1080   1.389   .     S
C497   C500    1.412   .     A
C497   C565    1.382   .     S
C498   C500    1.411   .     A
C498   C562    1.382   .     S
N509   Zn527   2.010   .     S
N511   Zn528   2.010   .     S
O519   Zn527   2.012   .     S
O520   Zn528   2.012   .     S
O521   Zn527   2.024   .     S
O522   Zn528   2.024   .     S
O523   Zn527   2.019   .     S
O524   Zn528   2.019   .     S
O525   Zn527   2.020   .     S
O526   Zn528   2.020   .     S
C529   O585    1.290   .     A
C529   C530    1.448   .     S
C529   O588    1.288   .     A
C530   C562    1.412   .     A
C530   C565    1.411   .     A
C531   N577    1.369   .     A
C531   C557    1.443   .     S
C532   C558    1.443   .     S
C532   N575    1.369   .     A
C532   C137    1.422   1_565 S
C533   N577    1.369   .     A
C533   C559    1.443   .     S
C534   C560    1.443   .     S
C534   N575    1.369   .     A
C534   C135    1.422   1_565 S
C535   C541    1.440   .     S
C535   O592    1.288   .     A
C535   O589    1.288   .     A
C536   C539    1.440   .     S
C536   O591    1.288   .     A
C536   O590    1.288   .     A
C537   C539    1.399   .     A
C537   C548    1.383   .     A
C537   H567    1.084   .     S
C538   C541    1.399   .     A
C538   H568    1.084   .     S
C538   C549    1.383   .     A
C539   C542    1.399   .     A
C540   O586    1.290   .     A
C540   C566    1.448   .     S
C540   O587    1.288   .     A
C541   C543    1.399   .     A
C542   H569    1.084   .     S
C542   C544    1.383   .     A
C543   C545    1.383   .     A
C543   H570    1.084   .     S
C544   C546    1.411   .     A
C544   C550    1.400   .     A
C545   C552    1.400   .     A
C545   C547    1.411   .     A
C546   C548    1.411   .     A
C546   C1141   1.391   .     S
C547   C549    1.411   .     A
C547   C1140   1.391   1_554 S
C548   C561    1.400   .     A
C549   C551    1.400   .     A
C550   H571    1.084   .     S
C550   C1145   1.389   .     S
C551   H573    1.084   .     S
C551   C1144   1.389   1_554 S
C552   H572    1.084   .     S
C552   C1155   1.389   1_554 S
C553   C562    1.453   .     S
C553   N578    1.157   .     T
C554   N579    1.157   .     T
C554   C563    1.453   .     S
C555   C564    1.457   .     S
C555   N580    1.157   .     T
C556   N581    1.157   .     T
C556   C565    1.457   .     S
C557   N582    1.158   .     T
C558   N583    1.158   .     T
C559   N584    1.158   .     T
C560   N576    1.158   .     T
C561   H574    1.084   .     S
C561   C1146   1.389   .     S
C563   C566    1.412   .     A
C563   C433    1.382   1_655 S
C564   C566    1.411   .     A
C564   C430    1.382   1_655 S
N575   Zn593   2.010   .     S
N577   Zn594   2.010   .     S
O585   Zn593   2.012   .     S
O586   Zn594   2.012   .     S
O587   Zn593   2.024   .     S
O588   Zn594   2.024   .     S
O589   Zn593   2.019   .     S
O590   Zn594   2.019   .     S
O591   Zn593   2.020   .     S
O592   Zn594   2.020   .     S
C595   O651    1.290   .     A
C595   C596    1.448   .     S
C595   O654    1.288   .     A
C596   C628    1.412   .     A
C596   C631    1.411   .     A
C597   N643    1.369   .     A
C597   C623    1.443   .     S
C597   C996    1.422   1_545 S
C598   C624    1.443   .     S
C598   N641    1.369   .     A
C598   C797    1.422   .     S
C599   N643    1.369   .     A
C599   C625    1.443   .     S
C599   C994    1.422   1_545 S
C600   C626    1.443   .     S
C600   N641    1.369   .     A
C600   C795    1.422   .     S
C601   C607    1.440   .     S
C601   O658    1.288   .     A
C601   O655    1.288   .     A
C602   C605    1.440   .     S
C602   O657    1.288   .     A
C602   O656    1.288   .     A
C603   C605    1.399   .     A
C603   C614    1.383   .     A
C603   H633    1.084   .     S
C604   C607    1.399   .     A
C604   H634    1.084   .     S
C604   C615    1.383   .     A
C605   C608    1.399   .     A
C606   O652    1.290   .     A
C606   C632    1.448   .     S
C606   O653    1.288   .     A
C607   C609    1.399   .     A
C608   H635    1.084   .     S
C608   C610    1.383   .     A
C609   C611    1.383   .     A
C609   H636    1.084   .     S
C610   C612    1.411   .     A
C610   C616    1.400   .     A
C611   C618    1.400   .     A
C611   C613    1.411   .     A
C612   C614    1.411   .     A
C612   C19     1.391   1_556 S
C613   C615    1.411   .     A
C614   C627    1.400   .     A
C615   C617    1.400   .     A
C616   H637    1.084   .     S
C616   C23     1.389   1_556 S
C617   H639    1.084   .     S
C618   H638    1.084   .     S
C619   C628    1.453   .     S
C619   N644    1.157   .     T
C620   N645    1.157   .     T
C620   C629    1.453   .     S
C621   C630    1.457   .     S
C621   N646    1.157   .     T
C622   N647    1.157   .     T
C622   C631    1.457   .     S
C623   N648    1.158   .     T
C624   N649    1.158   .     T
C625   N650    1.158   .     T
C626   N642    1.158   .     T
C627   H640    1.084   .     S
C627   C24     1.389   1_556 S
C628   C762    1.382   1_455 S
C629   C632    1.412   .     A
C629   C697    1.382   .     S
C630   C632    1.411   .     A
C630   C694    1.382   .     S
C631   C761    1.382   1_455 S
N641   Zn659   2.010   .     S
N643   Zn660   2.010   .     S
O651   Zn659   2.012   .     S
O652   Zn660   2.012   .     S
O653   Zn659   2.024   .     S
O654   Zn660   2.024   .     S
O655   Zn659   2.019   .     S
O656   Zn660   2.019   .     S
O657   Zn659   2.020   .     S
O658   Zn660   2.020   .     S
C661   O717    1.290   .     A
C661   C662    1.448   .     S
C661   O720    1.288   .     A
C662   C694    1.412   .     A
C662   C697    1.411   .     A
C663   N709    1.369   .     A
C663   C689    1.443   .     S
C663   C1062   1.422   1_545 S
C664   C690    1.443   .     S
C664   N707    1.369   .     A
C664   C863    1.422   .     S
C665   N709    1.369   .     A
C665   C691    1.443   .     S
C665   C1060   1.422   1_545 S
C666   C692    1.443   .     S
C666   N707    1.369   .     A
C666   C861    1.422   .     S
C667   C673    1.440   .     S
C667   O724    1.288   .     A
C667   O721    1.288   .     A
C668   C671    1.440   .     S
C668   O723    1.288   .     A
C668   O722    1.288   .     A
C669   C671    1.399   .     A
C669   C680    1.383   .     A
C669   H699    1.084   .     S
C670   C673    1.399   .     A
C670   H700    1.084   .     S
C670   C681    1.383   .     A
C671   C674    1.399   .     A
C672   O718    1.290   .     A
C672   C698    1.448   .     S
C672   O719    1.288   .     A
C673   C675    1.399   .     A
C674   H701    1.084   .     S
C674   C676    1.383   .     A
C675   C677    1.383   .     A
C675   H702    1.084   .     S
C676   C678    1.411   .     A
C676   C682    1.400   .     A
C677   C684    1.400   .     A
C677   C679    1.411   .     A
C678   C680    1.411   .     A
C678   C85     1.391   1_556 S
C679   C681    1.411   .     A
C680   C693    1.400   .     A
C681   C683    1.400   .     A
C682   H703    1.084   .     S
C682   C89     1.389   1_556 S
C683   H705    1.084   .     S
C684   H704    1.084   .     S
C685   C694    1.453   .     S
C685   N710    1.157   .     T
C686   N711    1.157   .     T
C686   C695    1.453   .     S
C687   C696    1.457   .     S
C687   N712    1.157   .     T
C688   N713    1.157   .     T
C688   C697    1.457   .     S
C689   N714    1.158   .     T
C690   N715    1.158   .     T
C691   N716    1.158   .     T
C692   N708    1.158   .     T
C693   H706    1.084   .     S
C693   C90     1.389   1_556 S
C695   C698    1.412   .     A
C695   C763    1.382   .     S
C696   C698    1.411   .     A
C696   C760    1.382   .     S
N707   Zn725   2.010   .     S
N709   Zn726   2.010   .     S
O717   Zn725   2.012   .     S
O718   Zn726   2.012   .     S
O719   Zn725   2.024   .     S
O720   Zn726   2.024   .     S
O721   Zn725   2.019   .     S
O722   Zn726   2.019   .     S
O723   Zn725   2.020   .     S
O724   Zn726   2.020   .     S
C727   O783    1.290   .     A
C727   C728    1.448   .     S
C727   O786    1.288   .     A
C728   C760    1.412   .     A
C728   C763    1.411   .     A
C729   N775    1.369   .     A
C729   C755    1.443   .     S
C729   C1128   1.422   1_545 S
C730   C756    1.443   .     S
C730   N773    1.369   .     A
C730   C929    1.422   .     S
C731   N775    1.369   .     A
C731   C757    1.443   .     S
C731   C1126   1.422   1_545 S
C732   C758    1.443   .     S
C732   N773    1.369   .     A
C732   C927    1.422   .     S
C733   C739    1.440   .     S
C733   O790    1.288   .     A
C733   O787    1.288   .     A
C734   C737    1.440   .     S
C734   O789    1.288   .     A
C734   O788    1.288   .     A
C735   C737    1.399   .     A
C735   C746    1.383   .     A
C735   H765    1.084   .     S
C736   C739    1.399   .     A
C736   H766    1.084   .     S
C736   C747    1.383   .     A
C737   C740    1.399   .     A
C738   O784    1.290   .     A
C738   C764    1.448   .     S
C738   O785    1.288   .     A
C739   C741    1.399   .     A
C740   H767    1.084   .     S
C740   C742    1.383   .     A
C741   C743    1.383   .     A
C741   H768    1.084   .     S
C742   C744    1.411   .     A
C742   C748    1.400   .     A
C743   C750    1.400   .     A
C743   C745    1.411   .     A
C744   C746    1.411   .     A
C744   C151    1.391   1_556 S
C745   C747    1.411   .     A
C746   C759    1.400   .     A
C747   C749    1.400   .     A
C748   H769    1.084   .     S
C748   C155    1.389   1_556 S
C749   H771    1.084   .     S
C750   H770    1.084   .     S
C751   C760    1.453   .     S
C751   N776    1.157   .     T
C752   N777    1.157   .     T
C752   C761    1.453   .     S
C753   C762    1.457   .     S
C753   N778    1.157   .     T
C754   N779    1.157   .     T
C754   C763    1.457   .     S
C755   N780    1.158   .     T
C756   N781    1.158   .     T
C757   N782    1.158   .     T
C758   N774    1.158   .     T
C759   H772    1.084   .     S
C759   C156    1.389   1_556 S
C761   C764    1.412   .     A
C761   C631    1.382   1_655 S
C762   C764    1.411   .     A
C762   C628    1.382   1_655 S
N773   Zn791   2.010   .     S
N775   Zn792   2.010   .     S
O783   Zn791   2.012   .     S
O784   Zn792   2.012   .     S
O785   Zn791   2.024   .     S
O786   Zn792   2.024   .     S
O787   Zn791   2.019   .     S
O788   Zn792   2.019   .     S
O789   Zn791   2.020   .     S
O790   Zn792   2.020   .     S
C793   O849    1.290   .     A
C793   C794    1.448   .     S
C793   O852    1.288   .     A
C794   C826    1.412   .     A
C794   C829    1.411   .     A
C795   N841    1.369   .     A
C795   C821    1.443   .     S
C796   C822    1.443   .     S
C796   N839    1.369   .     A
C796   C995    1.422   .     S
C797   N841    1.369   .     A
C797   C823    1.443   .     S
C798   C824    1.443   .     S
C798   N839    1.369   .     A
C798   C993    1.422   .     S
C799   C805    1.440   .     S
C799   O856    1.288   .     A
C799   O853    1.288   .     A
C800   C803    1.440   .     S
C800   O855    1.288   .     A
C800   O854    1.288   .     A
C801   C803    1.399   .     A
C801   C812    1.383   .     A
C801   H831    1.084   .     S
C802   C805    1.399   .     A
C802   H832    1.084   .     S
C802   C813    1.383   .     A
C803   C806    1.399   .     A
C804   O850    1.290   .     A
C804   C830    1.448   .     S
C804   O851    1.288   .     A
C805   C807    1.399   .     A
C806   H833    1.084   .     S
C806   C808    1.383   .     A
C807   C809    1.383   .     A
C807   H834    1.084   .     S
C808   C810    1.411   .     A
C808   C814    1.400   .     A
C809   C816    1.400   .     A
C809   C811    1.411   .     A
C810   C812    1.411   .     A
C810   C217    1.391   1_556 S
C811   C813    1.411   .     A
C812   C825    1.400   .     A
C813   C815    1.400   .     A
C814   H835    1.084   .     S
C814   C221    1.389   1_556 S
C815   H837    1.084   .     S
C816   H836    1.084   .     S
C817   C826    1.453   .     S
C817   N842    1.157   .     T
C818   N843    1.157   .     T
C818   C827    1.453   .     S
C819   C828    1.457   .     S
C819   N844    1.157   .     T
C820   N845    1.157   .     T
C820   C829    1.457   .     S
C821   N846    1.158   .     T
C822   N847    1.158   .     T
C823   N848    1.158   .     T
C824   N840    1.158   .     T
C825   H838    1.084   .     S
C825   C222    1.389   1_556 S
C826   C960    1.382   1_455 S
C827   C830    1.412   .     A
C827   C895    1.382   .     S
C828   C830    1.411   .     A
C828   C892    1.382   .     S
C829   C959    1.382   1_455 S
N839   Zn857   2.010   .     S
N841   Zn858   2.010   .     S
O849   Zn857   2.012   .     S
O850   Zn858   2.012   .     S
O851   Zn857   2.024   .     S
O852   Zn858   2.024   .     S
O853   Zn857   2.019   .     S
O854   Zn858   2.019   .     S
O855   Zn857   2.020   .     S
O856   Zn858   2.020   .     S
C859   O915    1.290   .     A
C859   C860    1.448   .     S
C859   O918    1.288   .     A
C860   C892    1.412   .     A
C860   C895    1.411   .     A
C861   N907    1.369   .     A
C861   C887    1.443   .     S
C862   C888    1.443   .     S
C862   N905    1.369   .     A
C862   C1061   1.422   .     S
C863   N907    1.369   .     A
C863   C889    1.443   .     S
C864   C890    1.443   .     S
C864   N905    1.369   .     A
C864   C1059   1.422   .     S
C865   C871    1.440   .     S
C865   O922    1.288   .     A
C865   O919    1.288   .     A
C866   C869    1.440   .     S
C866   O921    1.288   .     A
C866   O920    1.288   .     A
C867   C869    1.399   .     A
C867   C878    1.383   .     A
C867   H897    1.084   .     S
C868   C871    1.399   .     A
C868   H898    1.084   .     S
C868   C879    1.383   .     A
C869   C872    1.399   .     A
C870   O916    1.290   .     A
C870   C896    1.448   .     S
C870   O917    1.288   .     A
C871   C873    1.399   .     A
C872   H899    1.084   .     S
C872   C874    1.383   .     A
C873   C875    1.383   .     A
C873   H900    1.084   .     S
C874   C876    1.411   .     A
C874   C880    1.400   .     A
C875   C882    1.400   .     A
C875   C877    1.411   .     A
C876   C878    1.411   .     A
C876   C283    1.391   1_556 S
C877   C879    1.411   .     A
C878   C891    1.400   .     A
C879   C881    1.400   .     A
C880   H901    1.084   .     S
C880   C287    1.389   1_556 S
C881   H903    1.084   .     S
C882   H902    1.084   .     S
C883   C892    1.453   .     S
C883   N908    1.157   .     T
C884   N909    1.157   .     T
C884   C893    1.453   .     S
C885   C894    1.457   .     S
C885   N910    1.157   .     T
C886   N911    1.157   .     T
C886   C895    1.457   .     S
C887   N912    1.158   .     T
C888   N913    1.158   .     T
C889   N914    1.158   .     T
C890   N906    1.158   .     T
C891   H904    1.084   .     S
C891   C288    1.389   1_556 S
C893   C896    1.412   .     A
C893   C961    1.382   .     S
C894   C896    1.411   .     A
C894   C958    1.382   .     S
N905   Zn923   2.010   .     S
N907   Zn924   2.010   .     S
O915   Zn923   2.012   .     S
O916   Zn924   2.012   .     S
O917   Zn923   2.024   .     S
O918   Zn924   2.024   .     S
O919   Zn923   2.019   .     S
O920   Zn924   2.019   .     S
O921   Zn923   2.020   .     S
O922   Zn924   2.020   .     S
C925   O981    1.290   .     A
C925   C926    1.448   .     S
C925   O984    1.288   .     A
C926   C958    1.412   .     A
C926   C961    1.411   .     A
C927   N973    1.369   .     A
C927   C953    1.443   .     S
C928   C954    1.443   .     S
C928   N971    1.369   .     A
C928   C1127   1.422   .     S
C929   N973    1.369   .     A
C929   C955    1.443   .     S
C930   C956    1.443   .     S
C930   N971    1.369   .     A
C930   C1125   1.422   .     S
C931   C937    1.440   .     S
C931   O988    1.288   .     A
C931   O985    1.288   .     A
C932   C935    1.440   .     S
C932   O987    1.288   .     A
C932   O986    1.288   .     A
C933   C935    1.399   .     A
C933   C944    1.383   .     A
C933   H963    1.084   .     S
C934   C937    1.399   .     A
C934   H964    1.084   .     S
C934   C945    1.383   .     A
C935   C938    1.399   .     A
C936   O982    1.290   .     A
C936   C962    1.448   .     S
C936   O983    1.288   .     A
C937   C939    1.399   .     A
C938   H965    1.084   .     S
C938   C940    1.383   .     A
C939   C941    1.383   .     A
C939   H966    1.084   .     S
C940   C942    1.411   .     A
C940   C946    1.400   .     A
C941   C948    1.400   .     A
C941   C943    1.411   .     A
C942   C944    1.411   .     A
C942   C349    1.391   1_556 S
C943   C945    1.411   .     A
C944   C957    1.400   .     A
C945   C947    1.400   .     A
C946   H967    1.084   .     S
C946   C353    1.389   1_556 S
C947   H969    1.084   .     S
C948   H968    1.084   .     S
C949   C958    1.453   .     S
C949   N974    1.157   .     T
C950   N975    1.157   .     T
C950   C959    1.453   .     S
C951   C960    1.457   .     S
C951   N976    1.157   .     T
C952   N977    1.157   .     T
C952   C961    1.457   .     S
C953   N978    1.158   .     T
C954   N979    1.158   .     T
C955   N980    1.158   .     T
C956   N972    1.158   .     T
C957   H970    1.084   .     S
C957   C354    1.389   1_556 S
C959   C962    1.412   .     A
C959   C829    1.382   1_655 S
C960   C962    1.411   .     A
C960   C826    1.382   1_655 S
N971   Zn989   2.010   .     S
N973   Zn990   2.010   .     S
O981   Zn989   2.012   .     S
O982   Zn990   2.012   .     S
O983   Zn989   2.024   .     S
O984   Zn990   2.024   .     S
O985   Zn989   2.019   .     S
O986   Zn990   2.019   .     S
O987   Zn989   2.020   .     S
O988   Zn990   2.020   .     S
C991   O1047   1.290   .     A
C991   C992    1.448   .     S
C991   O1050   1.288   .     A
C992   C1024   1.412   .     A
C992   C1027   1.411   .     A
C993   N1039   1.369   .     A
C993   C1019   1.443   .     S
C994   C1020   1.443   .     S
C994   N1037   1.369   .     A
C994   C599    1.422   1_565 S
C995   N1039   1.369   .     A
C995   C1021   1.443   .     S
C996   C1022   1.443   .     S
C996   N1037   1.369   .     A
C996   C597    1.422   1_565 S
C997   C1003   1.440   .     S
C997   O1054   1.288   .     A
C997   O1051   1.288   .     A
C998   C1001   1.440   .     S
C998   O1053   1.288   .     A
C998   O1052   1.288   .     A
C999   C1001   1.399   .     A
C999   C1010   1.383   .     A
C999   H1029   1.084   .     S
C1000  C1003   1.399   .     A
C1000  H1030   1.084   .     S
C1000  C1011   1.383   .     A
C1001  C1004   1.399   .     A
C1002  O1048   1.290   .     A
C1002  C1028   1.448   .     S
C1002  O1049   1.288   .     A
C1003  C1005   1.399   .     A
C1004  H1031   1.084   .     S
C1004  C1006   1.383   .     A
C1005  C1007   1.383   .     A
C1005  H1032   1.084   .     S
C1006  C1008   1.411   .     A
C1006  C1012   1.400   .     A
C1007  C1014   1.400   .     A
C1007  C1009   1.411   .     A
C1008  C1010   1.411   .     A
C1008  C415    1.391   1_556 S
C1009  C1011   1.411   .     A
C1010  C1023   1.400   .     A
C1011  C1013   1.400   .     A
C1012  H1033   1.084   .     S
C1012  C419    1.389   1_556 S
C1013  H1035   1.084   .     S
C1014  H1034   1.084   .     S
C1015  C1024   1.453   .     S
C1015  N1040   1.157   .     T
C1016  N1041   1.157   .     T
C1016  C1025   1.453   .     S
C1017  C1026   1.457   .     S
C1017  N1042   1.157   .     T
C1018  N1043   1.157   .     T
C1018  C1027   1.457   .     S
C1019  N1044   1.158   .     T
C1020  N1045   1.158   .     T
C1021  N1046   1.158   .     T
C1022  N1038   1.158   .     T
C1023  H1036   1.084   .     S
C1023  C420    1.389   1_556 S
C1024  C1158   1.382   1_455 S
C1025  C1028   1.412   .     A
C1025  C1093   1.382   .     S
C1026  C1028   1.411   .     A
C1026  C1090   1.382   .     S
C1027  C1157   1.382   1_455 S
N1037  Zn1055  2.010   .     S
N1039  Zn1056  2.010   .     S
O1047  Zn1055  2.012   .     S
O1048  Zn1056  2.012   .     S
O1049  Zn1055  2.024   .     S
O1050  Zn1056  2.024   .     S
O1051  Zn1055  2.019   .     S
O1052  Zn1056  2.019   .     S
O1053  Zn1055  2.020   .     S
O1054  Zn1056  2.020   .     S
C1057  O1113   1.290   .     A
C1057  C1058   1.448   .     S
C1057  O1116   1.288   .     A
C1058  C1090   1.412   .     A
C1058  C1093   1.411   .     A
C1059  N1105   1.369   .     A
C1059  C1085   1.443   .     S
C1060  C1086   1.443   .     S
C1060  N1103   1.369   .     A
C1060  C665    1.422   1_565 S
C1061  N1105   1.369   .     A
C1061  C1087   1.443   .     S
C1062  C1088   1.443   .     S
C1062  N1103   1.369   .     A
C1062  C663    1.422   1_565 S
C1063  C1069   1.440   .     S
C1063  O1120   1.288   .     A
C1063  O1117   1.288   .     A
C1064  C1067   1.440   .     S
C1064  O1119   1.288   .     A
C1064  O1118   1.288   .     A
C1065  C1067   1.399   .     A
C1065  C1076   1.383   .     A
C1065  H1095   1.084   .     S
C1066  C1069   1.399   .     A
C1066  H1096   1.084   .     S
C1066  C1077   1.383   .     A
C1067  C1070   1.399   .     A
C1068  O1114   1.290   .     A
C1068  C1094   1.448   .     S
C1068  O1115   1.288   .     A
C1069  C1071   1.399   .     A
C1070  H1097   1.084   .     S
C1070  C1072   1.383   .     A
C1071  C1073   1.383   .     A
C1071  H1098   1.084   .     S
C1072  C1074   1.411   .     A
C1072  C1078   1.400   .     A
C1073  C1080   1.400   .     A
C1073  C1075   1.411   .     A
C1074  C1076   1.411   .     A
C1074  C481    1.391   1_556 S
C1075  C1077   1.411   .     A
C1076  C1089   1.400   .     A
C1077  C1079   1.400   .     A
C1078  H1099   1.084   .     S
C1078  C485    1.389   1_556 S
C1079  H1101   1.084   .     S
C1080  H1100   1.084   .     S
C1081  C1090   1.453   .     S
C1081  N1106   1.157   .     T
C1082  N1107   1.157   .     T
C1082  C1091   1.453   .     S
C1083  C1092   1.457   .     S
C1083  N1108   1.157   .     T
C1084  N1109   1.157   .     T
C1084  C1093   1.457   .     S
C1085  N1110   1.158   .     T
C1086  N1111   1.158   .     T
C1087  N1112   1.158   .     T
C1088  N1104   1.158   .     T
C1089  H1102   1.084   .     S
C1089  C486    1.389   1_556 S
C1091  C1094   1.412   .     A
C1091  C1159   1.382   .     S
C1092  C1094   1.411   .     A
C1092  C1156   1.382   .     S
N1103  Zn1121  2.010   .     S
N1105  Zn1122  2.010   .     S
O1113  Zn1121  2.012   .     S
O1114  Zn1122  2.012   .     S
O1115  Zn1121  2.024   .     S
O1116  Zn1122  2.024   .     S
O1117  Zn1121  2.019   .     S
O1118  Zn1122  2.019   .     S
O1119  Zn1121  2.020   .     S
O1120  Zn1122  2.020   .     S
C1123  O1179   1.290   .     A
C1123  C1124   1.448   .     S
C1123  O1182   1.288   .     A
C1124  C1156   1.412   .     A
C1124  C1159   1.411   .     A
C1125  N1171   1.369   .     A
C1125  C1151   1.443   .     S
C1126  C1152   1.443   .     S
C1126  N1169   1.369   .     A
C1126  C731    1.422   1_565 S
C1127  N1171   1.369   .     A
C1127  C1153   1.443   .     S
C1128  C1154   1.443   .     S
C1128  N1169   1.369   .     A
C1128  C729    1.422   1_565 S
C1129  C1135   1.440   .     S
C1129  O1186   1.288   .     A
C1129  O1183   1.288   .     A
C1130  C1133   1.440   .     S
C1130  O1185   1.288   .     A
C1130  O1184   1.288   .     A
C1131  C1133   1.399   .     A
C1131  C1142   1.383   .     A
C1131  H1161   1.084   .     S
C1132  C1135   1.399   .     A
C1132  H1162   1.084   .     S
C1132  C1143   1.383   .     A
C1133  C1136   1.399   .     A
C1134  O1180   1.290   .     A
C1134  C1160   1.448   .     S
C1134  O1181   1.288   .     A
C1135  C1137   1.399   .     A
C1136  H1163   1.084   .     S
C1136  C1138   1.383   .     A
C1137  C1139   1.383   .     A
C1137  H1164   1.084   .     S
C1138  C1140   1.411   .     A
C1138  C1144   1.400   .     A
C1139  C1146   1.400   .     A
C1139  C1141   1.411   .     A
C1140  C1142   1.411   .     A
C1140  C547    1.391   1_556 S
C1141  C1143   1.411   .     A
C1142  C1155   1.400   .     A
C1143  C1145   1.400   .     A
C1144  H1165   1.084   .     S
C1144  C551    1.389   1_556 S
C1145  H1167   1.084   .     S
C1146  H1166   1.084   .     S
C1147  C1156   1.453   .     S
C1147  N1172   1.157   .     T
C1148  N1173   1.157   .     T
C1148  C1157   1.453   .     S
C1149  C1158   1.457   .     S
C1149  N1174   1.157   .     T
C1150  N1175   1.157   .     T
C1150  C1159   1.457   .     S
C1151  N1176   1.158   .     T
C1152  N1177   1.158   .     T
C1153  N1178   1.158   .     T
C1154  N1170   1.158   .     T
C1155  H1168   1.084   .     S
C1155  C552    1.389   1_556 S
C1157  C1160   1.412   .     A
C1157  C1027   1.382   1_655 S
C1158  C1160   1.411   .     A
C1158  C1024   1.382   1_655 S
N1169  Zn1187  2.010   .     S
N1171  Zn1188  2.010   .     S
O1179  Zn1187  2.012   .     S
O1180  Zn1188  2.012   .     S
O1181  Zn1187  2.024   .     S
O1182  Zn1188  2.024   .     S
O1183  Zn1187  2.019   .     S
O1184  Zn1188  2.019   .     S
O1185  Zn1187  2.020   .     S
O1186  Zn1188  2.020   .     S
