data_str_m1_o10_o16_pcu_sym.32
_audit_creation_date              2020-01-03
_audit_creation_method            'Materials Studio'
_symmetry_space_group_name_H-M    'P1'
_symmetry_Int_Tables_number       1
_symmetry_cell_setting            triclinic
loop_
_symmetry_equiv_pos_as_xyz
  x,y,z
_cell_length_a                    32.6111
_cell_length_b                    32.5084
_cell_length_c                    31.0941
_cell_angle_alpha                 96.1055
_cell_angle_beta                  74.1104
_cell_angle_gamma                 98.6569
loop_
_atom_site_label
_atom_site_type_symbol
_atom_site_fract_x
_atom_site_fract_y
_atom_site_fract_z
_atom_site_U_iso_or_equiv
_atom_site_adp_type
_atom_site_occupancy
C1     C     0.05266   0.15930   0.26073   0.00000  Uiso   1.00
C2     C     0.16596   0.15370   0.05953   0.00000  Uiso   1.00
C3     C     0.23674   0.13700   0.05633   0.00000  Uiso   1.00
C4     C     0.28105   0.17386   0.23950   0.00000  Uiso   1.00
C5     C     0.13848   0.18973   0.42023   0.00000  Uiso   1.00
C6     C     0.32753   0.17667   0.23358   0.00000  Uiso   1.00
C7     C     0.00782   0.15851   0.26322   0.00000  Uiso   1.00
C8     C     0.18077   0.32263   0.23614   0.00000  Uiso   1.00
C9     C     0.15216   0.01175   0.26380   0.00000  Uiso   1.00
C10    C     0.15635   0.05591   0.26005   0.00000  Uiso   1.00
C11    C     0.17671   0.27800   0.24004   0.00000  Uiso   1.00
C12    C     0.08268   0.19529   0.48963   0.00000  Uiso   1.00
C13    C     0.18561   0.14853   0.12929   0.00000  Uiso   1.00
C14    C     0.14903   0.18510   0.37084   0.00000  Uiso   1.00
C15    C     0.24989   0.14235   0.01072   0.00000  Uiso   1.00
C16    C     0.19508   0.14325   0.08079   0.00000  Uiso   1.00
C17    C     0.09703   0.19828   0.44362   0.00000  Uiso   1.00
C18    C     0.02361   0.19934   0.19503   0.00000  Uiso   1.00
C19    C     0.10888   0.18269   0.01301   0.00000  Uiso   1.00
C20    C     0.15130   0.17452   0.49090   0.00000  Uiso   1.00
C21    C     0.16687   0.18052   0.44424   0.00000  Uiso   1.00
C22    C     0.17893   0.16088   0.01349   0.00000  Uiso   1.00
C23    C     0.22184   0.15526   0.48937   0.00000  Uiso   1.00
C24    C     0.23721   0.16438   0.44465   0.00000  Uiso   1.00
C25    C     0.21052   0.17769   0.42272   0.00000  Uiso   1.00
H26    H     0.25964   0.12974   0.07303   0.00000  Uiso   1.00
H27    H     0.31860   0.14306   0.29117   0.00000  Uiso   1.00
H28    H     0.05038   0.20147   0.00717   0.00000  Uiso   1.00
H29    H     0.01023   0.21144   0.17133   0.00000  Uiso   1.00
H30    H     0.20722   0.00398   0.21063   0.00000  Uiso   1.00
H31    H     0.12540   0.33113   0.28946   0.00000  Uiso   1.00
H32    H     0.27038   0.16188   0.42663   0.00000  Uiso   1.00
H33    H     0.28264   0.13822   0.49252   0.00000  Uiso   1.00
H34    H     0.13454   0.15857   0.08048   0.00000  Uiso   1.00
H35    H     0.07491   0.20567   0.42602   0.00000  Uiso   1.00
H36    H     0.09495   0.18003   0.04838   0.00000  Uiso   1.00
H37    H     0.22505   0.18661   0.38887   0.00000  Uiso   1.00
O38    O     0.16667   0.16667   0.25000   0.00000  Uiso   1.00
O39    O     0.15451   0.12637   0.15459   0.00000  Uiso   1.00
O40    O     0.12940   0.20391   0.34968   0.00000  Uiso   1.00
O41    O     0.20824   0.17759   0.14606   0.00000  Uiso   1.00
O42    O     0.17451   0.15880   0.34968   0.00000  Uiso   1.00
O43    O     0.06256   0.20509   0.18912   0.00000  Uiso   1.00
O44    O     0.17930   0.08019   0.28214   0.00000  Uiso   1.00
O45    O     0.14632   0.26085   0.27014   0.00000  Uiso   1.00
O46    O     0.07412   0.13291   0.23413   0.00000  Uiso   1.00
O47    O     0.26693   0.19272   0.21361   0.00000  Uiso   1.00
O48    O     0.07071   0.18878   0.28213   0.00000  Uiso   1.00
O49    O     0.25491   0.15226   0.27014   0.00000  Uiso   1.00
O50    O     0.13760   0.06944   0.23413   0.00000  Uiso   1.00
O51    O     0.20345   0.25620   0.21361   0.00000  Uiso   1.00
Zn52   Zn    0.19338   0.13994   0.28734   0.00000  Uiso   1.00
Zn53   Zn    0.13379   0.12458   0.21876   0.00000  Uiso   1.00
Zn54   Zn    0.21056   0.19775   0.20657   0.00000  Uiso   1.00
Zn55   Zn    0.12893   0.20439   0.28734   0.00000  Uiso   1.00
C56    C     0.38600   0.15930   0.26073   0.00000  Uiso   1.00
C57    C     0.49929   0.15370   0.05953   0.00000  Uiso   1.00
C58    C     0.57007   0.13700   0.05633   0.00000  Uiso   1.00
C59    C     0.61439   0.17386   0.23950   0.00000  Uiso   1.00
C60    C     0.47181   0.18973   0.42023   0.00000  Uiso   1.00
C61    C     0.66087   0.17667   0.23358   0.00000  Uiso   1.00
C62    C     0.34115   0.15851   0.26322   0.00000  Uiso   1.00
C63    C     0.51410   0.32263   0.23614   0.00000  Uiso   1.00
C64    C     0.48550   0.01175   0.26380   0.00000  Uiso   1.00
C65    C     0.48968   0.05591   0.26005   0.00000  Uiso   1.00
C66    C     0.51005   0.27800   0.24004   0.00000  Uiso   1.00
C67    C     0.41601   0.19529   0.48963   0.00000  Uiso   1.00
C68    C     0.51895   0.14853   0.12929   0.00000  Uiso   1.00
C69    C     0.48237   0.18510   0.37084   0.00000  Uiso   1.00
C70    C     0.58322   0.14235   0.01072   0.00000  Uiso   1.00
C71    C     0.52841   0.14325   0.08079   0.00000  Uiso   1.00
C72    C     0.43036   0.19828   0.44362   0.00000  Uiso   1.00
C73    C     0.35694   0.19934   0.19503   0.00000  Uiso   1.00
C74    C     0.44222   0.18269   0.01301   0.00000  Uiso   1.00
C75    C     0.48463   0.17452   0.49090   0.00000  Uiso   1.00
C76    C     0.50020   0.18052   0.44424   0.00000  Uiso   1.00
C77    C     0.51226   0.16088   0.01349   0.00000  Uiso   1.00
C78    C     0.55518   0.15526   0.48937   0.00000  Uiso   1.00
C79    C     0.57054   0.16438   0.44465   0.00000  Uiso   1.00
C80    C     0.54385   0.17769   0.42272   0.00000  Uiso   1.00
H81    H     0.59298   0.12974   0.07303   0.00000  Uiso   1.00
H82    H     0.65193   0.14306   0.29117   0.00000  Uiso   1.00
H83    H     0.38372   0.20147   0.00717   0.00000  Uiso   1.00
H84    H     0.34357   0.21144   0.17133   0.00000  Uiso   1.00
H85    H     0.54055   0.00398   0.21063   0.00000  Uiso   1.00
H86    H     0.45873   0.33113   0.28946   0.00000  Uiso   1.00
H87    H     0.60371   0.16188   0.42663   0.00000  Uiso   1.00
H88    H     0.61598   0.13822   0.49252   0.00000  Uiso   1.00
H89    H     0.46788   0.15857   0.08048   0.00000  Uiso   1.00
H90    H     0.40824   0.20567   0.42602   0.00000  Uiso   1.00
H91    H     0.42828   0.18003   0.04838   0.00000  Uiso   1.00
H92    H     0.55838   0.18661   0.38887   0.00000  Uiso   1.00
O93    O     0.50000   0.16667   0.25000   0.00000  Uiso   1.00
O94    O     0.48784   0.12637   0.15459   0.00000  Uiso   1.00
O95    O     0.46274   0.20391   0.34968   0.00000  Uiso   1.00
O96    O     0.54157   0.17759   0.14606   0.00000  Uiso   1.00
O97    O     0.50785   0.15880   0.34968   0.00000  Uiso   1.00
O98    O     0.39590   0.20509   0.18912   0.00000  Uiso   1.00
O99    O     0.51264   0.08019   0.28214   0.00000  Uiso   1.00
O100   O     0.47965   0.26085   0.27014   0.00000  Uiso   1.00
O101   O     0.40745   0.13291   0.23413   0.00000  Uiso   1.00
O102   O     0.60026   0.19272   0.21361   0.00000  Uiso   1.00
O103   O     0.40405   0.18878   0.28213   0.00000  Uiso   1.00
O104   O     0.58824   0.15226   0.27014   0.00000  Uiso   1.00
O105   O     0.47093   0.06944   0.23413   0.00000  Uiso   1.00
O106   O     0.53678   0.25620   0.21361   0.00000  Uiso   1.00
Zn107  Zn    0.52672   0.13994   0.28734   0.00000  Uiso   1.00
Zn108  Zn    0.46713   0.12458   0.21876   0.00000  Uiso   1.00
Zn109  Zn    0.54389   0.19775   0.20657   0.00000  Uiso   1.00
Zn110  Zn    0.46226   0.20439   0.28734   0.00000  Uiso   1.00
C111   C     0.71933   0.15930   0.26073   0.00000  Uiso   1.00
C112   C     0.83263   0.15370   0.05953   0.00000  Uiso   1.00
C113   C     0.90340   0.13700   0.05633   0.00000  Uiso   1.00
C114   C     0.94772   0.17386   0.23950   0.00000  Uiso   1.00
C115   C     0.80515   0.18973   0.42023   0.00000  Uiso   1.00
C116   C     0.99420   0.17667   0.23358   0.00000  Uiso   1.00
C117   C     0.67449   0.15851   0.26322   0.00000  Uiso   1.00
C118   C     0.84743   0.32263   0.23614   0.00000  Uiso   1.00
C119   C     0.81883   0.01175   0.26380   0.00000  Uiso   1.00
C120   C     0.82301   0.05591   0.26005   0.00000  Uiso   1.00
C121   C     0.84338   0.27800   0.24004   0.00000  Uiso   1.00
C122   C     0.74934   0.19529   0.48963   0.00000  Uiso   1.00
C123   C     0.85228   0.14853   0.12929   0.00000  Uiso   1.00
C124   C     0.81570   0.18510   0.37084   0.00000  Uiso   1.00
C125   C     0.91655   0.14235   0.01072   0.00000  Uiso   1.00
C126   C     0.86174   0.14325   0.08079   0.00000  Uiso   1.00
C127   C     0.76369   0.19828   0.44362   0.00000  Uiso   1.00
C128   C     0.69028   0.19934   0.19503   0.00000  Uiso   1.00
C129   C     0.77555   0.18269   0.01301   0.00000  Uiso   1.00
C130   C     0.81797   0.17452   0.49090   0.00000  Uiso   1.00
C131   C     0.83353   0.18052   0.44424   0.00000  Uiso   1.00
C132   C     0.84559   0.16088   0.01349   0.00000  Uiso   1.00
C133   C     0.88851   0.15526   0.48937   0.00000  Uiso   1.00
C134   C     0.90387   0.16438   0.44465   0.00000  Uiso   1.00
C135   C     0.87718   0.17769   0.42272   0.00000  Uiso   1.00
H136   H     0.92631   0.12974   0.07303   0.00000  Uiso   1.00
H137   H     0.98526   0.14306   0.29117   0.00000  Uiso   1.00
H138   H     0.71705   0.20147   0.00717   0.00000  Uiso   1.00
H139   H     0.67690   0.21144   0.17133   0.00000  Uiso   1.00
H140   H     0.87388   0.00398   0.21063   0.00000  Uiso   1.00
H141   H     0.79207   0.33113   0.28946   0.00000  Uiso   1.00
H142   H     0.93705   0.16188   0.42663   0.00000  Uiso   1.00
H143   H     0.94931   0.13822   0.49252   0.00000  Uiso   1.00
H144   H     0.80121   0.15857   0.08048   0.00000  Uiso   1.00
H145   H     0.74158   0.20567   0.42602   0.00000  Uiso   1.00
H146   H     0.76161   0.18003   0.04838   0.00000  Uiso   1.00
H147   H     0.89172   0.18661   0.38887   0.00000  Uiso   1.00
O148   O     0.83333   0.16667   0.25000   0.00000  Uiso   1.00
O149   O     0.82118   0.12637   0.15459   0.00000  Uiso   1.00
O150   O     0.79607   0.20391   0.34968   0.00000  Uiso   1.00
O151   O     0.87491   0.17759   0.14606   0.00000  Uiso   1.00
O152   O     0.84118   0.15880   0.34968   0.00000  Uiso   1.00
O153   O     0.72923   0.20509   0.18912   0.00000  Uiso   1.00
O154   O     0.84597   0.08019   0.28214   0.00000  Uiso   1.00
O155   O     0.81298   0.26085   0.27014   0.00000  Uiso   1.00
O156   O     0.74078   0.13291   0.23413   0.00000  Uiso   1.00
O157   O     0.93360   0.19272   0.21361   0.00000  Uiso   1.00
O158   O     0.73738   0.18878   0.28213   0.00000  Uiso   1.00
O159   O     0.92158   0.15226   0.27014   0.00000  Uiso   1.00
O160   O     0.80426   0.06944   0.23413   0.00000  Uiso   1.00
O161   O     0.87012   0.25620   0.21361   0.00000  Uiso   1.00
Zn162  Zn    0.86005   0.13994   0.28734   0.00000  Uiso   1.00
Zn163  Zn    0.80046   0.12458   0.21876   0.00000  Uiso   1.00
Zn164  Zn    0.87723   0.19775   0.20657   0.00000  Uiso   1.00
Zn165  Zn    0.79560   0.20439   0.28734   0.00000  Uiso   1.00
C166   C     0.05266   0.49263   0.26073   0.00000  Uiso   1.00
C167   C     0.16596   0.48703   0.05953   0.00000  Uiso   1.00
C168   C     0.23674   0.47033   0.05633   0.00000  Uiso   1.00
C169   C     0.28105   0.50719   0.23950   0.00000  Uiso   1.00
C170   C     0.13848   0.52306   0.42023   0.00000  Uiso   1.00
C171   C     0.32753   0.51000   0.23358   0.00000  Uiso   1.00
C172   C     0.00782   0.49184   0.26322   0.00000  Uiso   1.00
C173   C     0.18077   0.65596   0.23614   0.00000  Uiso   1.00
C174   C     0.15216   0.34508   0.26380   0.00000  Uiso   1.00
C175   C     0.15635   0.38924   0.26005   0.00000  Uiso   1.00
C176   C     0.17671   0.61133   0.24004   0.00000  Uiso   1.00
C177   C     0.08268   0.52862   0.48963   0.00000  Uiso   1.00
C178   C     0.18561   0.48187   0.12929   0.00000  Uiso   1.00
C179   C     0.14903   0.51843   0.37084   0.00000  Uiso   1.00
C180   C     0.24989   0.47569   0.01072   0.00000  Uiso   1.00
C181   C     0.19508   0.47658   0.08079   0.00000  Uiso   1.00
C182   C     0.09703   0.53161   0.44362   0.00000  Uiso   1.00
C183   C     0.02361   0.53268   0.19503   0.00000  Uiso   1.00
C184   C     0.10888   0.51602   0.01301   0.00000  Uiso   1.00
C185   C     0.15130   0.50785   0.49090   0.00000  Uiso   1.00
C186   C     0.16687   0.51385   0.44424   0.00000  Uiso   1.00
C187   C     0.17893   0.49421   0.01349   0.00000  Uiso   1.00
C188   C     0.22184   0.48859   0.48937   0.00000  Uiso   1.00
C189   C     0.23721   0.49771   0.44465   0.00000  Uiso   1.00
C190   C     0.21052   0.51102   0.42272   0.00000  Uiso   1.00
H191   H     0.25964   0.46307   0.07303   0.00000  Uiso   1.00
H192   H     0.31860   0.47640   0.29117   0.00000  Uiso   1.00
H193   H     0.05038   0.53480   0.00717   0.00000  Uiso   1.00
H194   H     0.01023   0.54478   0.17133   0.00000  Uiso   1.00
H195   H     0.20722   0.33732   0.21063   0.00000  Uiso   1.00
H196   H     0.12540   0.66446   0.28946   0.00000  Uiso   1.00
H197   H     0.27038   0.49521   0.42663   0.00000  Uiso   1.00
H198   H     0.28264   0.47156   0.49252   0.00000  Uiso   1.00
H199   H     0.13454   0.49190   0.08048   0.00000  Uiso   1.00
H200   H     0.07491   0.53901   0.42602   0.00000  Uiso   1.00
H201   H     0.09495   0.51337   0.04838   0.00000  Uiso   1.00
H202   H     0.22505   0.51994   0.38887   0.00000  Uiso   1.00
O203   O     0.16667   0.50000   0.25000   0.00000  Uiso   1.00
O204   O     0.15451   0.45970   0.15459   0.00000  Uiso   1.00
O205   O     0.12940   0.53724   0.34968   0.00000  Uiso   1.00
O206   O     0.20824   0.51092   0.14606   0.00000  Uiso   1.00
O207   O     0.17451   0.49213   0.34968   0.00000  Uiso   1.00
O208   O     0.06256   0.53842   0.18912   0.00000  Uiso   1.00
O209   O     0.17930   0.41352   0.28214   0.00000  Uiso   1.00
O210   O     0.14632   0.59418   0.27014   0.00000  Uiso   1.00
O211   O     0.07412   0.46625   0.23413   0.00000  Uiso   1.00
O212   O     0.26693   0.52605   0.21361   0.00000  Uiso   1.00
O213   O     0.07071   0.52211   0.28213   0.00000  Uiso   1.00
O214   O     0.25491   0.48559   0.27014   0.00000  Uiso   1.00
O215   O     0.13760   0.40277   0.23413   0.00000  Uiso   1.00
O216   O     0.20345   0.58953   0.21361   0.00000  Uiso   1.00
Zn217  Zn    0.19338   0.47327   0.28734   0.00000  Uiso   1.00
Zn218  Zn    0.13379   0.45791   0.21876   0.00000  Uiso   1.00
Zn219  Zn    0.21056   0.53109   0.20657   0.00000  Uiso   1.00
Zn220  Zn    0.12893   0.53773   0.28734   0.00000  Uiso   1.00
C221   C     0.38600   0.49263   0.26073   0.00000  Uiso   1.00
C222   C     0.49929   0.48703   0.05953   0.00000  Uiso   1.00
C223   C     0.57007   0.47033   0.05633   0.00000  Uiso   1.00
C224   C     0.61439   0.50719   0.23950   0.00000  Uiso   1.00
C225   C     0.47181   0.52306   0.42023   0.00000  Uiso   1.00
C226   C     0.66087   0.51000   0.23358   0.00000  Uiso   1.00
C227   C     0.34115   0.49184   0.26322   0.00000  Uiso   1.00
C228   C     0.51410   0.65596   0.23614   0.00000  Uiso   1.00
C229   C     0.48550   0.34508   0.26380   0.00000  Uiso   1.00
C230   C     0.48968   0.38924   0.26005   0.00000  Uiso   1.00
C231   C     0.51005   0.61133   0.24004   0.00000  Uiso   1.00
C232   C     0.41601   0.52862   0.48963   0.00000  Uiso   1.00
C233   C     0.51895   0.48187   0.12929   0.00000  Uiso   1.00
C234   C     0.48237   0.51843   0.37084   0.00000  Uiso   1.00
C235   C     0.58322   0.47569   0.01072   0.00000  Uiso   1.00
C236   C     0.52841   0.47658   0.08079   0.00000  Uiso   1.00
C237   C     0.43036   0.53161   0.44362   0.00000  Uiso   1.00
C238   C     0.35694   0.53268   0.19503   0.00000  Uiso   1.00
C239   C     0.44222   0.51602   0.01301   0.00000  Uiso   1.00
C240   C     0.48463   0.50785   0.49090   0.00000  Uiso   1.00
C241   C     0.50020   0.51385   0.44424   0.00000  Uiso   1.00
C242   C     0.51226   0.49421   0.01349   0.00000  Uiso   1.00
C243   C     0.55518   0.48859   0.48937   0.00000  Uiso   1.00
C244   C     0.57054   0.49771   0.44465   0.00000  Uiso   1.00
C245   C     0.54385   0.51102   0.42272   0.00000  Uiso   1.00
H246   H     0.59298   0.46307   0.07303   0.00000  Uiso   1.00
H247   H     0.65193   0.47640   0.29117   0.00000  Uiso   1.00
H248   H     0.38372   0.53480   0.00717   0.00000  Uiso   1.00
H249   H     0.34357   0.54478   0.17133   0.00000  Uiso   1.00
H250   H     0.54055   0.33732   0.21063   0.00000  Uiso   1.00
H251   H     0.45873   0.66446   0.28946   0.00000  Uiso   1.00
H252   H     0.60371   0.49521   0.42663   0.00000  Uiso   1.00
H253   H     0.61598   0.47156   0.49252   0.00000  Uiso   1.00
H254   H     0.46788   0.49190   0.08048   0.00000  Uiso   1.00
H255   H     0.40824   0.53901   0.42602   0.00000  Uiso   1.00
H256   H     0.42828   0.51337   0.04838   0.00000  Uiso   1.00
H257   H     0.55838   0.51994   0.38887   0.00000  Uiso   1.00
O258   O     0.50000   0.50000   0.25000   0.00000  Uiso   1.00
O259   O     0.48784   0.45970   0.15459   0.00000  Uiso   1.00
O260   O     0.46274   0.53724   0.34968   0.00000  Uiso   1.00
O261   O     0.54157   0.51092   0.14606   0.00000  Uiso   1.00
O262   O     0.50785   0.49213   0.34968   0.00000  Uiso   1.00
O263   O     0.39590   0.53842   0.18912   0.00000  Uiso   1.00
O264   O     0.51264   0.41352   0.28214   0.00000  Uiso   1.00
O265   O     0.47965   0.59418   0.27014   0.00000  Uiso   1.00
O266   O     0.40745   0.46625   0.23413   0.00000  Uiso   1.00
O267   O     0.60026   0.52605   0.21361   0.00000  Uiso   1.00
O268   O     0.40405   0.52211   0.28213   0.00000  Uiso   1.00
O269   O     0.58824   0.48559   0.27014   0.00000  Uiso   1.00
O270   O     0.47093   0.40277   0.23413   0.00000  Uiso   1.00
O271   O     0.53678   0.58953   0.21361   0.00000  Uiso   1.00
Zn272  Zn    0.52672   0.47327   0.28734   0.00000  Uiso   1.00
Zn273  Zn    0.46713   0.45791   0.21876   0.00000  Uiso   1.00
Zn274  Zn    0.54389   0.53109   0.20657   0.00000  Uiso   1.00
Zn275  Zn    0.46226   0.53773   0.28734   0.00000  Uiso   1.00
C276   C     0.71933   0.49263   0.26073   0.00000  Uiso   1.00
C277   C     0.83263   0.48703   0.05953   0.00000  Uiso   1.00
C278   C     0.90340   0.47033   0.05633   0.00000  Uiso   1.00
C279   C     0.94772   0.50719   0.23950   0.00000  Uiso   1.00
C280   C     0.80515   0.52306   0.42023   0.00000  Uiso   1.00
C281   C     0.99420   0.51000   0.23358   0.00000  Uiso   1.00
C282   C     0.67449   0.49184   0.26322   0.00000  Uiso   1.00
C283   C     0.84743   0.65596   0.23614   0.00000  Uiso   1.00
C284   C     0.81883   0.34508   0.26380   0.00000  Uiso   1.00
C285   C     0.82301   0.38924   0.26005   0.00000  Uiso   1.00
C286   C     0.84338   0.61133   0.24004   0.00000  Uiso   1.00
C287   C     0.74934   0.52862   0.48963   0.00000  Uiso   1.00
C288   C     0.85228   0.48187   0.12929   0.00000  Uiso   1.00
C289   C     0.81570   0.51843   0.37084   0.00000  Uiso   1.00
C290   C     0.91655   0.47569   0.01072   0.00000  Uiso   1.00
C291   C     0.86174   0.47658   0.08079   0.00000  Uiso   1.00
C292   C     0.76369   0.53161   0.44362   0.00000  Uiso   1.00
C293   C     0.69028   0.53268   0.19503   0.00000  Uiso   1.00
C294   C     0.77555   0.51602   0.01301   0.00000  Uiso   1.00
C295   C     0.81797   0.50785   0.49090   0.00000  Uiso   1.00
C296   C     0.83353   0.51385   0.44424   0.00000  Uiso   1.00
C297   C     0.84559   0.49421   0.01349   0.00000  Uiso   1.00
C298   C     0.88851   0.48859   0.48937   0.00000  Uiso   1.00
C299   C     0.90387   0.49771   0.44465   0.00000  Uiso   1.00
C300   C     0.87718   0.51102   0.42272   0.00000  Uiso   1.00
H301   H     0.92631   0.46307   0.07303   0.00000  Uiso   1.00
H302   H     0.98526   0.47640   0.29117   0.00000  Uiso   1.00
H303   H     0.71705   0.53480   0.00717   0.00000  Uiso   1.00
H304   H     0.67690   0.54478   0.17133   0.00000  Uiso   1.00
H305   H     0.87388   0.33732   0.21063   0.00000  Uiso   1.00
H306   H     0.79207   0.66446   0.28946   0.00000  Uiso   1.00
H307   H     0.93705   0.49521   0.42663   0.00000  Uiso   1.00
H308   H     0.94931   0.47156   0.49252   0.00000  Uiso   1.00
H309   H     0.80121   0.49190   0.08048   0.00000  Uiso   1.00
H310   H     0.74158   0.53901   0.42602   0.00000  Uiso   1.00
H311   H     0.76161   0.51337   0.04838   0.00000  Uiso   1.00
H312   H     0.89172   0.51994   0.38887   0.00000  Uiso   1.00
O313   O     0.83333   0.50000   0.25000   0.00000  Uiso   1.00
O314   O     0.82118   0.45970   0.15459   0.00000  Uiso   1.00
O315   O     0.79607   0.53724   0.34968   0.00000  Uiso   1.00
O316   O     0.87491   0.51092   0.14606   0.00000  Uiso   1.00
O317   O     0.84118   0.49213   0.34968   0.00000  Uiso   1.00
O318   O     0.72923   0.53842   0.18912   0.00000  Uiso   1.00
O319   O     0.84597   0.41352   0.28214   0.00000  Uiso   1.00
O320   O     0.81298   0.59418   0.27014   0.00000  Uiso   1.00
O321   O     0.74078   0.46625   0.23413   0.00000  Uiso   1.00
O322   O     0.93360   0.52605   0.21361   0.00000  Uiso   1.00
O323   O     0.73738   0.52211   0.28213   0.00000  Uiso   1.00
O324   O     0.92158   0.48559   0.27014   0.00000  Uiso   1.00
O325   O     0.80426   0.40277   0.23413   0.00000  Uiso   1.00
O326   O     0.87012   0.58953   0.21361   0.00000  Uiso   1.00
Zn327  Zn    0.86005   0.47327   0.28734   0.00000  Uiso   1.00
Zn328  Zn    0.80046   0.45791   0.21876   0.00000  Uiso   1.00
Zn329  Zn    0.87723   0.53109   0.20657   0.00000  Uiso   1.00
Zn330  Zn    0.79560   0.53773   0.28734   0.00000  Uiso   1.00
C331   C     0.05266   0.82597   0.26073   0.00000  Uiso   1.00
C332   C     0.16596   0.82036   0.05953   0.00000  Uiso   1.00
C333   C     0.23674   0.80367   0.05633   0.00000  Uiso   1.00
C334   C     0.28105   0.84053   0.23950   0.00000  Uiso   1.00
C335   C     0.13848   0.85640   0.42023   0.00000  Uiso   1.00
C336   C     0.32753   0.84334   0.23358   0.00000  Uiso   1.00
C337   C     0.00782   0.82517   0.26322   0.00000  Uiso   1.00
C338   C     0.18077   0.98930   0.23614   0.00000  Uiso   1.00
C339   C     0.15216   0.67841   0.26380   0.00000  Uiso   1.00
C340   C     0.15635   0.72258   0.26005   0.00000  Uiso   1.00
C341   C     0.17671   0.94467   0.24004   0.00000  Uiso   1.00
C342   C     0.08268   0.86195   0.48963   0.00000  Uiso   1.00
C343   C     0.18561   0.81520   0.12929   0.00000  Uiso   1.00
C344   C     0.14903   0.85177   0.37084   0.00000  Uiso   1.00
C345   C     0.24989   0.80902   0.01072   0.00000  Uiso   1.00
C346   C     0.19508   0.80992   0.08079   0.00000  Uiso   1.00
C347   C     0.09703   0.86495   0.44362   0.00000  Uiso   1.00
C348   C     0.02361   0.86601   0.19503   0.00000  Uiso   1.00
C349   C     0.10888   0.84936   0.01301   0.00000  Uiso   1.00
C350   C     0.15130   0.84119   0.49090   0.00000  Uiso   1.00
C351   C     0.16687   0.84719   0.44424   0.00000  Uiso   1.00
C352   C     0.17893   0.82754   0.01349   0.00000  Uiso   1.00
C353   C     0.22184   0.82192   0.48937   0.00000  Uiso   1.00
C354   C     0.23721   0.83105   0.44465   0.00000  Uiso   1.00
C355   C     0.21052   0.84435   0.42272   0.00000  Uiso   1.00
H356   H     0.25964   0.79641   0.07303   0.00000  Uiso   1.00
H357   H     0.31860   0.80973   0.29117   0.00000  Uiso   1.00
H358   H     0.05038   0.86813   0.00717   0.00000  Uiso   1.00
H359   H     0.01023   0.87811   0.17133   0.00000  Uiso   1.00
H360   H     0.20722   0.67065   0.21063   0.00000  Uiso   1.00
H361   H     0.12540   0.99780   0.28946   0.00000  Uiso   1.00
H362   H     0.27038   0.82854   0.42663   0.00000  Uiso   1.00
H363   H     0.28264   0.80489   0.49252   0.00000  Uiso   1.00
H364   H     0.13454   0.82524   0.08048   0.00000  Uiso   1.00
H365   H     0.07491   0.87234   0.42602   0.00000  Uiso   1.00
H366   H     0.09495   0.84670   0.04838   0.00000  Uiso   1.00
H367   H     0.22505   0.85328   0.38887   0.00000  Uiso   1.00
O368   O     0.16667   0.83333   0.25000   0.00000  Uiso   1.00
O369   O     0.15451   0.79304   0.15459   0.00000  Uiso   1.00
O370   O     0.12940   0.87058   0.34968   0.00000  Uiso   1.00
O371   O     0.20824   0.84425   0.14606   0.00000  Uiso   1.00
O372   O     0.17451   0.82546   0.34968   0.00000  Uiso   1.00
O373   O     0.06256   0.87175   0.18912   0.00000  Uiso   1.00
O374   O     0.17930   0.74686   0.28214   0.00000  Uiso   1.00
O375   O     0.14632   0.92751   0.27014   0.00000  Uiso   1.00
O376   O     0.07412   0.79958   0.23413   0.00000  Uiso   1.00
O377   O     0.26693   0.85939   0.21361   0.00000  Uiso   1.00
O378   O     0.07071   0.85544   0.28213   0.00000  Uiso   1.00
O379   O     0.25491   0.81892   0.27014   0.00000  Uiso   1.00
O380   O     0.13760   0.73610   0.23413   0.00000  Uiso   1.00
O381   O     0.20345   0.92286   0.21361   0.00000  Uiso   1.00
Zn382  Zn    0.19338   0.80661   0.28734   0.00000  Uiso   1.00
Zn383  Zn    0.13379   0.79124   0.21876   0.00000  Uiso   1.00
Zn384  Zn    0.21056   0.86442   0.20657   0.00000  Uiso   1.00
Zn385  Zn    0.12893   0.87106   0.28734   0.00000  Uiso   1.00
C386   C     0.38600   0.82597   0.26073   0.00000  Uiso   1.00
C387   C     0.49929   0.82036   0.05953   0.00000  Uiso   1.00
C388   C     0.57007   0.80367   0.05633   0.00000  Uiso   1.00
C389   C     0.61439   0.84053   0.23950   0.00000  Uiso   1.00
C390   C     0.47181   0.85640   0.42023   0.00000  Uiso   1.00
C391   C     0.66087   0.84334   0.23358   0.00000  Uiso   1.00
C392   C     0.34115   0.82517   0.26322   0.00000  Uiso   1.00
C393   C     0.51410   0.98930   0.23614   0.00000  Uiso   1.00
C394   C     0.48550   0.67841   0.26380   0.00000  Uiso   1.00
C395   C     0.48968   0.72258   0.26005   0.00000  Uiso   1.00
C396   C     0.51005   0.94467   0.24004   0.00000  Uiso   1.00
C397   C     0.41601   0.86195   0.48963   0.00000  Uiso   1.00
C398   C     0.51895   0.81520   0.12929   0.00000  Uiso   1.00
C399   C     0.48237   0.85177   0.37084   0.00000  Uiso   1.00
C400   C     0.58322   0.80902   0.01072   0.00000  Uiso   1.00
C401   C     0.52841   0.80992   0.08079   0.00000  Uiso   1.00
C402   C     0.43036   0.86495   0.44362   0.00000  Uiso   1.00
C403   C     0.35694   0.86601   0.19503   0.00000  Uiso   1.00
C404   C     0.44222   0.84936   0.01301   0.00000  Uiso   1.00
C405   C     0.48463   0.84119   0.49090   0.00000  Uiso   1.00
C406   C     0.50020   0.84719   0.44424   0.00000  Uiso   1.00
C407   C     0.51226   0.82754   0.01349   0.00000  Uiso   1.00
C408   C     0.55518   0.82192   0.48937   0.00000  Uiso   1.00
C409   C     0.57054   0.83105   0.44465   0.00000  Uiso   1.00
C410   C     0.54385   0.84435   0.42272   0.00000  Uiso   1.00
H411   H     0.59298   0.79641   0.07303   0.00000  Uiso   1.00
H412   H     0.65193   0.80973   0.29117   0.00000  Uiso   1.00
H413   H     0.38372   0.86813   0.00717   0.00000  Uiso   1.00
H414   H     0.34357   0.87811   0.17133   0.00000  Uiso   1.00
H415   H     0.54055   0.67065   0.21063   0.00000  Uiso   1.00
H416   H     0.45873   0.99780   0.28946   0.00000  Uiso   1.00
H417   H     0.60371   0.82854   0.42663   0.00000  Uiso   1.00
H418   H     0.61598   0.80489   0.49252   0.00000  Uiso   1.00
H419   H     0.46788   0.82524   0.08048   0.00000  Uiso   1.00
H420   H     0.40824   0.87234   0.42602   0.00000  Uiso   1.00
H421   H     0.42828   0.84670   0.04838   0.00000  Uiso   1.00
H422   H     0.55838   0.85328   0.38887   0.00000  Uiso   1.00
O423   O     0.50000   0.83333   0.25000   0.00000  Uiso   1.00
O424   O     0.48784   0.79304   0.15459   0.00000  Uiso   1.00
O425   O     0.46274   0.87058   0.34968   0.00000  Uiso   1.00
O426   O     0.54157   0.84425   0.14606   0.00000  Uiso   1.00
O427   O     0.50785   0.82546   0.34968   0.00000  Uiso   1.00
O428   O     0.39590   0.87175   0.18912   0.00000  Uiso   1.00
O429   O     0.51264   0.74686   0.28214   0.00000  Uiso   1.00
O430   O     0.47965   0.92751   0.27014   0.00000  Uiso   1.00
O431   O     0.40745   0.79958   0.23413   0.00000  Uiso   1.00
O432   O     0.60026   0.85939   0.21361   0.00000  Uiso   1.00
O433   O     0.40405   0.85544   0.28213   0.00000  Uiso   1.00
O434   O     0.58824   0.81892   0.27014   0.00000  Uiso   1.00
O435   O     0.47093   0.73610   0.23413   0.00000  Uiso   1.00
O436   O     0.53678   0.92286   0.21361   0.00000  Uiso   1.00
Zn437  Zn    0.52672   0.80661   0.28734   0.00000  Uiso   1.00
Zn438  Zn    0.46713   0.79124   0.21876   0.00000  Uiso   1.00
Zn439  Zn    0.54389   0.86442   0.20657   0.00000  Uiso   1.00
Zn440  Zn    0.46226   0.87106   0.28734   0.00000  Uiso   1.00
C441   C     0.71933   0.82597   0.26073   0.00000  Uiso   1.00
C442   C     0.83263   0.82036   0.05953   0.00000  Uiso   1.00
C443   C     0.90340   0.80367   0.05633   0.00000  Uiso   1.00
C444   C     0.94772   0.84053   0.23950   0.00000  Uiso   1.00
C445   C     0.80515   0.85640   0.42023   0.00000  Uiso   1.00
C446   C     0.99420   0.84334   0.23358   0.00000  Uiso   1.00
C447   C     0.67449   0.82517   0.26322   0.00000  Uiso   1.00
C448   C     0.84743   0.98930   0.23614   0.00000  Uiso   1.00
C449   C     0.81883   0.67841   0.26380   0.00000  Uiso   1.00
C450   C     0.82301   0.72258   0.26005   0.00000  Uiso   1.00
C451   C     0.84338   0.94467   0.24004   0.00000  Uiso   1.00
C452   C     0.74934   0.86195   0.48963   0.00000  Uiso   1.00
C453   C     0.85228   0.81520   0.12929   0.00000  Uiso   1.00
C454   C     0.81570   0.85177   0.37084   0.00000  Uiso   1.00
C455   C     0.91655   0.80902   0.01072   0.00000  Uiso   1.00
C456   C     0.86174   0.80992   0.08079   0.00000  Uiso   1.00
C457   C     0.76369   0.86495   0.44362   0.00000  Uiso   1.00
C458   C     0.69028   0.86601   0.19503   0.00000  Uiso   1.00
C459   C     0.77555   0.84936   0.01301   0.00000  Uiso   1.00
C460   C     0.81797   0.84119   0.49090   0.00000  Uiso   1.00
C461   C     0.83353   0.84719   0.44424   0.00000  Uiso   1.00
C462   C     0.84559   0.82754   0.01349   0.00000  Uiso   1.00
C463   C     0.88851   0.82192   0.48937   0.00000  Uiso   1.00
C464   C     0.90387   0.83105   0.44465   0.00000  Uiso   1.00
C465   C     0.87718   0.84435   0.42272   0.00000  Uiso   1.00
H466   H     0.92631   0.79641   0.07303   0.00000  Uiso   1.00
H467   H     0.98526   0.80973   0.29117   0.00000  Uiso   1.00
H468   H     0.71705   0.86813   0.00717   0.00000  Uiso   1.00
H469   H     0.67690   0.87811   0.17133   0.00000  Uiso   1.00
H470   H     0.87388   0.67065   0.21063   0.00000  Uiso   1.00
H471   H     0.79207   0.99780   0.28946   0.00000  Uiso   1.00
H472   H     0.93705   0.82854   0.42663   0.00000  Uiso   1.00
H473   H     0.94931   0.80489   0.49252   0.00000  Uiso   1.00
H474   H     0.80121   0.82524   0.08048   0.00000  Uiso   1.00
H475   H     0.74158   0.87234   0.42602   0.00000  Uiso   1.00
H476   H     0.76161   0.84670   0.04838   0.00000  Uiso   1.00
H477   H     0.89172   0.85328   0.38887   0.00000  Uiso   1.00
O478   O     0.83333   0.83333   0.25000   0.00000  Uiso   1.00
O479   O     0.82118   0.79304   0.15459   0.00000  Uiso   1.00
O480   O     0.79607   0.87058   0.34968   0.00000  Uiso   1.00
O481   O     0.87491   0.84425   0.14606   0.00000  Uiso   1.00
O482   O     0.84118   0.82546   0.34968   0.00000  Uiso   1.00
O483   O     0.72923   0.87175   0.18912   0.00000  Uiso   1.00
O484   O     0.84597   0.74686   0.28214   0.00000  Uiso   1.00
O485   O     0.81298   0.92751   0.27014   0.00000  Uiso   1.00
O486   O     0.74078   0.79958   0.23413   0.00000  Uiso   1.00
O487   O     0.93360   0.85939   0.21361   0.00000  Uiso   1.00
O488   O     0.73738   0.85544   0.28213   0.00000  Uiso   1.00
O489   O     0.92158   0.81892   0.27014   0.00000  Uiso   1.00
O490   O     0.80426   0.73610   0.23413   0.00000  Uiso   1.00
O491   O     0.87012   0.92286   0.21361   0.00000  Uiso   1.00
Zn492  Zn    0.86005   0.80661   0.28734   0.00000  Uiso   1.00
Zn493  Zn    0.80046   0.79124   0.21876   0.00000  Uiso   1.00
Zn494  Zn    0.87723   0.86442   0.20657   0.00000  Uiso   1.00
Zn495  Zn    0.79560   0.87106   0.28734   0.00000  Uiso   1.00
C496   C     0.05266   0.15930   0.76073   0.00000  Uiso   1.00
C497   C     0.16596   0.15370   0.55953   0.00000  Uiso   1.00
C498   C     0.23674   0.13700   0.55633   0.00000  Uiso   1.00
C499   C     0.28105   0.17386   0.73950   0.00000  Uiso   1.00
C500   C     0.13848   0.18973   0.92023   0.00000  Uiso   1.00
C501   C     0.32753   0.17667   0.73358   0.00000  Uiso   1.00
C502   C     0.00782   0.15851   0.76322   0.00000  Uiso   1.00
C503   C     0.18077   0.32263   0.73614   0.00000  Uiso   1.00
C504   C     0.15216   0.01175   0.76380   0.00000  Uiso   1.00
C505   C     0.15635   0.05591   0.76005   0.00000  Uiso   1.00
C506   C     0.17671   0.27800   0.74004   0.00000  Uiso   1.00
C507   C     0.08268   0.19529   0.98963   0.00000  Uiso   1.00
C508   C     0.18561   0.14853   0.62929   0.00000  Uiso   1.00
C509   C     0.14903   0.18510   0.87084   0.00000  Uiso   1.00
C510   C     0.24989   0.14235   0.51072   0.00000  Uiso   1.00
C511   C     0.19508   0.14325   0.58079   0.00000  Uiso   1.00
C512   C     0.09703   0.19828   0.94362   0.00000  Uiso   1.00
C513   C     0.02361   0.19934   0.69503   0.00000  Uiso   1.00
C514   C     0.10888   0.18269   0.51301   0.00000  Uiso   1.00
C515   C     0.15130   0.17452   0.99090   0.00000  Uiso   1.00
C516   C     0.16687   0.18052   0.94424   0.00000  Uiso   1.00
C517   C     0.17893   0.16088   0.51349   0.00000  Uiso   1.00
C518   C     0.22184   0.15526   0.98937   0.00000  Uiso   1.00
C519   C     0.23721   0.16438   0.94465   0.00000  Uiso   1.00
C520   C     0.21052   0.17769   0.92272   0.00000  Uiso   1.00
H521   H     0.25964   0.12974   0.57303   0.00000  Uiso   1.00
H522   H     0.31860   0.14306   0.79117   0.00000  Uiso   1.00
H523   H     0.05038   0.20147   0.50717   0.00000  Uiso   1.00
H524   H     0.01023   0.21144   0.67133   0.00000  Uiso   1.00
H525   H     0.20722   0.00398   0.71063   0.00000  Uiso   1.00
H526   H     0.12540   0.33113   0.78946   0.00000  Uiso   1.00
H527   H     0.27038   0.16188   0.92663   0.00000  Uiso   1.00
H528   H     0.28264   0.13822   0.99252   0.00000  Uiso   1.00
H529   H     0.13454   0.15857   0.58048   0.00000  Uiso   1.00
H530   H     0.07491   0.20567   0.92602   0.00000  Uiso   1.00
H531   H     0.09495   0.18003   0.54838   0.00000  Uiso   1.00
H532   H     0.22505   0.18661   0.88887   0.00000  Uiso   1.00
O533   O     0.16667   0.16667   0.75000   0.00000  Uiso   1.00
O534   O     0.15451   0.12637   0.65459   0.00000  Uiso   1.00
O535   O     0.12940   0.20391   0.84968   0.00000  Uiso   1.00
O536   O     0.20824   0.17759   0.64606   0.00000  Uiso   1.00
O537   O     0.17451   0.15880   0.84968   0.00000  Uiso   1.00
O538   O     0.06256   0.20509   0.68912   0.00000  Uiso   1.00
O539   O     0.17930   0.08019   0.78214   0.00000  Uiso   1.00
O540   O     0.14632   0.26085   0.77014   0.00000  Uiso   1.00
O541   O     0.07412   0.13291   0.73413   0.00000  Uiso   1.00
O542   O     0.26693   0.19272   0.71361   0.00000  Uiso   1.00
O543   O     0.07071   0.18878   0.78213   0.00000  Uiso   1.00
O544   O     0.25491   0.15226   0.77014   0.00000  Uiso   1.00
O545   O     0.13760   0.06944   0.73413   0.00000  Uiso   1.00
O546   O     0.20345   0.25620   0.71361   0.00000  Uiso   1.00
Zn547  Zn    0.19338   0.13994   0.78734   0.00000  Uiso   1.00
Zn548  Zn    0.13379   0.12458   0.71876   0.00000  Uiso   1.00
Zn549  Zn    0.21056   0.19775   0.70657   0.00000  Uiso   1.00
Zn550  Zn    0.12893   0.20439   0.78734   0.00000  Uiso   1.00
C551   C     0.38600   0.15930   0.76073   0.00000  Uiso   1.00
C552   C     0.49929   0.15370   0.55953   0.00000  Uiso   1.00
C553   C     0.57007   0.13700   0.55633   0.00000  Uiso   1.00
C554   C     0.61439   0.17386   0.73950   0.00000  Uiso   1.00
C555   C     0.47181   0.18973   0.92023   0.00000  Uiso   1.00
C556   C     0.66087   0.17667   0.73358   0.00000  Uiso   1.00
C557   C     0.34115   0.15851   0.76322   0.00000  Uiso   1.00
C558   C     0.51410   0.32263   0.73614   0.00000  Uiso   1.00
C559   C     0.48550   0.01175   0.76380   0.00000  Uiso   1.00
C560   C     0.48968   0.05591   0.76005   0.00000  Uiso   1.00
C561   C     0.51005   0.27800   0.74004   0.00000  Uiso   1.00
C562   C     0.41601   0.19529   0.98963   0.00000  Uiso   1.00
C563   C     0.51895   0.14853   0.62929   0.00000  Uiso   1.00
C564   C     0.48237   0.18510   0.87084   0.00000  Uiso   1.00
C565   C     0.58322   0.14235   0.51072   0.00000  Uiso   1.00
C566   C     0.52841   0.14325   0.58079   0.00000  Uiso   1.00
C567   C     0.43036   0.19828   0.94362   0.00000  Uiso   1.00
C568   C     0.35694   0.19934   0.69503   0.00000  Uiso   1.00
C569   C     0.44222   0.18269   0.51301   0.00000  Uiso   1.00
C570   C     0.48463   0.17452   0.99090   0.00000  Uiso   1.00
C571   C     0.50020   0.18052   0.94424   0.00000  Uiso   1.00
C572   C     0.51226   0.16088   0.51349   0.00000  Uiso   1.00
C573   C     0.55518   0.15526   0.98937   0.00000  Uiso   1.00
C574   C     0.57054   0.16438   0.94465   0.00000  Uiso   1.00
C575   C     0.54385   0.17769   0.92272   0.00000  Uiso   1.00
H576   H     0.59298   0.12974   0.57303   0.00000  Uiso   1.00
H577   H     0.65193   0.14306   0.79117   0.00000  Uiso   1.00
H578   H     0.38372   0.20147   0.50717   0.00000  Uiso   1.00
H579   H     0.34357   0.21144   0.67133   0.00000  Uiso   1.00
H580   H     0.54055   0.00398   0.71063   0.00000  Uiso   1.00
H581   H     0.45873   0.33113   0.78946   0.00000  Uiso   1.00
H582   H     0.60371   0.16188   0.92663   0.00000  Uiso   1.00
H583   H     0.61598   0.13822   0.99252   0.00000  Uiso   1.00
H584   H     0.46788   0.15857   0.58048   0.00000  Uiso   1.00
H585   H     0.40824   0.20567   0.92602   0.00000  Uiso   1.00
H586   H     0.42828   0.18003   0.54838   0.00000  Uiso   1.00
H587   H     0.55838   0.18661   0.88887   0.00000  Uiso   1.00
O588   O     0.50000   0.16667   0.75000   0.00000  Uiso   1.00
O589   O     0.48784   0.12637   0.65459   0.00000  Uiso   1.00
O590   O     0.46274   0.20391   0.84968   0.00000  Uiso   1.00
O591   O     0.54157   0.17759   0.64606   0.00000  Uiso   1.00
O592   O     0.50785   0.15880   0.84968   0.00000  Uiso   1.00
O593   O     0.39590   0.20509   0.68912   0.00000  Uiso   1.00
O594   O     0.51264   0.08019   0.78214   0.00000  Uiso   1.00
O595   O     0.47965   0.26085   0.77014   0.00000  Uiso   1.00
O596   O     0.40745   0.13291   0.73413   0.00000  Uiso   1.00
O597   O     0.60026   0.19272   0.71361   0.00000  Uiso   1.00
O598   O     0.40405   0.18878   0.78213   0.00000  Uiso   1.00
O599   O     0.58824   0.15226   0.77014   0.00000  Uiso   1.00
O600   O     0.47093   0.06944   0.73413   0.00000  Uiso   1.00
O601   O     0.53678   0.25620   0.71361   0.00000  Uiso   1.00
Zn602  Zn    0.52672   0.13994   0.78734   0.00000  Uiso   1.00
Zn603  Zn    0.46713   0.12458   0.71876   0.00000  Uiso   1.00
Zn604  Zn    0.54389   0.19775   0.70657   0.00000  Uiso   1.00
Zn605  Zn    0.46226   0.20439   0.78734   0.00000  Uiso   1.00
C606   C     0.71933   0.15930   0.76073   0.00000  Uiso   1.00
C607   C     0.83263   0.15370   0.55953   0.00000  Uiso   1.00
C608   C     0.90340   0.13700   0.55633   0.00000  Uiso   1.00
C609   C     0.94772   0.17386   0.73950   0.00000  Uiso   1.00
C610   C     0.80515   0.18973   0.92023   0.00000  Uiso   1.00
C611   C     0.99420   0.17667   0.73358   0.00000  Uiso   1.00
C612   C     0.67449   0.15851   0.76322   0.00000  Uiso   1.00
C613   C     0.84743   0.32263   0.73614   0.00000  Uiso   1.00
C614   C     0.81883   0.01175   0.76380   0.00000  Uiso   1.00
C615   C     0.82301   0.05591   0.76005   0.00000  Uiso   1.00
C616   C     0.84338   0.27800   0.74004   0.00000  Uiso   1.00
C617   C     0.74934   0.19529   0.98963   0.00000  Uiso   1.00
C618   C     0.85228   0.14853   0.62929   0.00000  Uiso   1.00
C619   C     0.81570   0.18510   0.87084   0.00000  Uiso   1.00
C620   C     0.91655   0.14235   0.51072   0.00000  Uiso   1.00
C621   C     0.86174   0.14325   0.58079   0.00000  Uiso   1.00
C622   C     0.76369   0.19828   0.94362   0.00000  Uiso   1.00
C623   C     0.69028   0.19934   0.69503   0.00000  Uiso   1.00
C624   C     0.77555   0.18269   0.51301   0.00000  Uiso   1.00
C625   C     0.81797   0.17452   0.99090   0.00000  Uiso   1.00
C626   C     0.83353   0.18052   0.94424   0.00000  Uiso   1.00
C627   C     0.84559   0.16088   0.51349   0.00000  Uiso   1.00
C628   C     0.88851   0.15526   0.98937   0.00000  Uiso   1.00
C629   C     0.90387   0.16438   0.94465   0.00000  Uiso   1.00
C630   C     0.87718   0.17769   0.92272   0.00000  Uiso   1.00
H631   H     0.92631   0.12974   0.57303   0.00000  Uiso   1.00
H632   H     0.98526   0.14306   0.79117   0.00000  Uiso   1.00
H633   H     0.71705   0.20147   0.50717   0.00000  Uiso   1.00
H634   H     0.67690   0.21144   0.67133   0.00000  Uiso   1.00
H635   H     0.87388   0.00398   0.71063   0.00000  Uiso   1.00
H636   H     0.79207   0.33113   0.78946   0.00000  Uiso   1.00
H637   H     0.93705   0.16188   0.92663   0.00000  Uiso   1.00
H638   H     0.94931   0.13822   0.99252   0.00000  Uiso   1.00
H639   H     0.80121   0.15857   0.58048   0.00000  Uiso   1.00
H640   H     0.74158   0.20567   0.92602   0.00000  Uiso   1.00
H641   H     0.76161   0.18003   0.54838   0.00000  Uiso   1.00
H642   H     0.89172   0.18661   0.88887   0.00000  Uiso   1.00
O643   O     0.83333   0.16667   0.75000   0.00000  Uiso   1.00
O644   O     0.82118   0.12637   0.65459   0.00000  Uiso   1.00
O645   O     0.79607   0.20391   0.84968   0.00000  Uiso   1.00
O646   O     0.87491   0.17759   0.64606   0.00000  Uiso   1.00
O647   O     0.84118   0.15880   0.84968   0.00000  Uiso   1.00
O648   O     0.72923   0.20509   0.68912   0.00000  Uiso   1.00
O649   O     0.84597   0.08019   0.78214   0.00000  Uiso   1.00
O650   O     0.81298   0.26085   0.77014   0.00000  Uiso   1.00
O651   O     0.74078   0.13291   0.73413   0.00000  Uiso   1.00
O652   O     0.93360   0.19272   0.71361   0.00000  Uiso   1.00
O653   O     0.73738   0.18878   0.78213   0.00000  Uiso   1.00
O654   O     0.92158   0.15226   0.77014   0.00000  Uiso   1.00
O655   O     0.80426   0.06944   0.73413   0.00000  Uiso   1.00
O656   O     0.87012   0.25620   0.71361   0.00000  Uiso   1.00
Zn657  Zn    0.86005   0.13994   0.78734   0.00000  Uiso   1.00
Zn658  Zn    0.80046   0.12458   0.71876   0.00000  Uiso   1.00
Zn659  Zn    0.87723   0.19775   0.70657   0.00000  Uiso   1.00
Zn660  Zn    0.79560   0.20439   0.78734   0.00000  Uiso   1.00
C661   C     0.05266   0.49263   0.76073   0.00000  Uiso   1.00
C662   C     0.16596   0.48703   0.55953   0.00000  Uiso   1.00
C663   C     0.23674   0.47033   0.55633   0.00000  Uiso   1.00
C664   C     0.28105   0.50719   0.73950   0.00000  Uiso   1.00
C665   C     0.13848   0.52306   0.92023   0.00000  Uiso   1.00
C666   C     0.32753   0.51000   0.73358   0.00000  Uiso   1.00
C667   C     0.00782   0.49184   0.76322   0.00000  Uiso   1.00
C668   C     0.18077   0.65596   0.73614   0.00000  Uiso   1.00
C669   C     0.15216   0.34508   0.76380   0.00000  Uiso   1.00
C670   C     0.15635   0.38924   0.76005   0.00000  Uiso   1.00
C671   C     0.17671   0.61133   0.74004   0.00000  Uiso   1.00
C672   C     0.08268   0.52862   0.98963   0.00000  Uiso   1.00
C673   C     0.18561   0.48187   0.62929   0.00000  Uiso   1.00
C674   C     0.14903   0.51843   0.87084   0.00000  Uiso   1.00
C675   C     0.24989   0.47569   0.51072   0.00000  Uiso   1.00
C676   C     0.19508   0.47658   0.58079   0.00000  Uiso   1.00
C677   C     0.09703   0.53161   0.94362   0.00000  Uiso   1.00
C678   C     0.02361   0.53268   0.69503   0.00000  Uiso   1.00
C679   C     0.10888   0.51602   0.51301   0.00000  Uiso   1.00
C680   C     0.15130   0.50785   0.99090   0.00000  Uiso   1.00
C681   C     0.16687   0.51385   0.94424   0.00000  Uiso   1.00
C682   C     0.17893   0.49421   0.51349   0.00000  Uiso   1.00
C683   C     0.22184   0.48859   0.98937   0.00000  Uiso   1.00
C684   C     0.23721   0.49771   0.94465   0.00000  Uiso   1.00
C685   C     0.21052   0.51102   0.92272   0.00000  Uiso   1.00
H686   H     0.25964   0.46307   0.57303   0.00000  Uiso   1.00
H687   H     0.31860   0.47640   0.79117   0.00000  Uiso   1.00
H688   H     0.05038   0.53480   0.50717   0.00000  Uiso   1.00
H689   H     0.01023   0.54478   0.67133   0.00000  Uiso   1.00
H690   H     0.20722   0.33732   0.71063   0.00000  Uiso   1.00
H691   H     0.12540   0.66446   0.78946   0.00000  Uiso   1.00
H692   H     0.27038   0.49521   0.92663   0.00000  Uiso   1.00
H693   H     0.28264   0.47156   0.99252   0.00000  Uiso   1.00
H694   H     0.13454   0.49190   0.58048   0.00000  Uiso   1.00
H695   H     0.07491   0.53901   0.92602   0.00000  Uiso   1.00
H696   H     0.09495   0.51337   0.54838   0.00000  Uiso   1.00
H697   H     0.22505   0.51994   0.88887   0.00000  Uiso   1.00
O698   O     0.16667   0.50000   0.75000   0.00000  Uiso   1.00
O699   O     0.15451   0.45970   0.65459   0.00000  Uiso   1.00
O700   O     0.12940   0.53724   0.84968   0.00000  Uiso   1.00
O701   O     0.20824   0.51092   0.64606   0.00000  Uiso   1.00
O702   O     0.17451   0.49213   0.84968   0.00000  Uiso   1.00
O703   O     0.06256   0.53842   0.68912   0.00000  Uiso   1.00
O704   O     0.17930   0.41352   0.78214   0.00000  Uiso   1.00
O705   O     0.14632   0.59418   0.77014   0.00000  Uiso   1.00
O706   O     0.07412   0.46625   0.73413   0.00000  Uiso   1.00
O707   O     0.26693   0.52605   0.71361   0.00000  Uiso   1.00
O708   O     0.07071   0.52211   0.78213   0.00000  Uiso   1.00
O709   O     0.25491   0.48559   0.77014   0.00000  Uiso   1.00
O710   O     0.13760   0.40277   0.73413   0.00000  Uiso   1.00
O711   O     0.20345   0.58953   0.71361   0.00000  Uiso   1.00
Zn712  Zn    0.19338   0.47327   0.78734   0.00000  Uiso   1.00
Zn713  Zn    0.13379   0.45791   0.71876   0.00000  Uiso   1.00
Zn714  Zn    0.21056   0.53109   0.70657   0.00000  Uiso   1.00
Zn715  Zn    0.12893   0.53773   0.78734   0.00000  Uiso   1.00
C716   C     0.38600   0.49263   0.76073   0.00000  Uiso   1.00
C717   C     0.49929   0.48703   0.55953   0.00000  Uiso   1.00
C718   C     0.57007   0.47033   0.55633   0.00000  Uiso   1.00
C719   C     0.61439   0.50719   0.73950   0.00000  Uiso   1.00
C720   C     0.47181   0.52306   0.92023   0.00000  Uiso   1.00
C721   C     0.66087   0.51000   0.73358   0.00000  Uiso   1.00
C722   C     0.34115   0.49184   0.76322   0.00000  Uiso   1.00
C723   C     0.51410   0.65596   0.73614   0.00000  Uiso   1.00
C724   C     0.48550   0.34508   0.76380   0.00000  Uiso   1.00
C725   C     0.48968   0.38924   0.76005   0.00000  Uiso   1.00
C726   C     0.51005   0.61133   0.74004   0.00000  Uiso   1.00
C727   C     0.41601   0.52862   0.98963   0.00000  Uiso   1.00
C728   C     0.51895   0.48187   0.62929   0.00000  Uiso   1.00
C729   C     0.48237   0.51843   0.87084   0.00000  Uiso   1.00
C730   C     0.58322   0.47569   0.51072   0.00000  Uiso   1.00
C731   C     0.52841   0.47658   0.58079   0.00000  Uiso   1.00
C732   C     0.43036   0.53161   0.94362   0.00000  Uiso   1.00
C733   C     0.35694   0.53268   0.69503   0.00000  Uiso   1.00
C734   C     0.44222   0.51602   0.51301   0.00000  Uiso   1.00
C735   C     0.48463   0.50785   0.99090   0.00000  Uiso   1.00
C736   C     0.50020   0.51385   0.94424   0.00000  Uiso   1.00
C737   C     0.51226   0.49421   0.51349   0.00000  Uiso   1.00
C738   C     0.55518   0.48859   0.98937   0.00000  Uiso   1.00
C739   C     0.57054   0.49771   0.94465   0.00000  Uiso   1.00
C740   C     0.54385   0.51102   0.92272   0.00000  Uiso   1.00
H741   H     0.59298   0.46307   0.57303   0.00000  Uiso   1.00
H742   H     0.65193   0.47640   0.79117   0.00000  Uiso   1.00
H743   H     0.38372   0.53480   0.50717   0.00000  Uiso   1.00
H744   H     0.34357   0.54478   0.67133   0.00000  Uiso   1.00
H745   H     0.54055   0.33732   0.71063   0.00000  Uiso   1.00
H746   H     0.45873   0.66446   0.78946   0.00000  Uiso   1.00
H747   H     0.60371   0.49521   0.92663   0.00000  Uiso   1.00
H748   H     0.61598   0.47156   0.99252   0.00000  Uiso   1.00
H749   H     0.46788   0.49190   0.58048   0.00000  Uiso   1.00
H750   H     0.40824   0.53901   0.92602   0.00000  Uiso   1.00
H751   H     0.42828   0.51337   0.54838   0.00000  Uiso   1.00
H752   H     0.55838   0.51994   0.88887   0.00000  Uiso   1.00
O753   O     0.50000   0.50000   0.75000   0.00000  Uiso   1.00
O754   O     0.48784   0.45970   0.65459   0.00000  Uiso   1.00
O755   O     0.46274   0.53724   0.84968   0.00000  Uiso   1.00
O756   O     0.54157   0.51092   0.64606   0.00000  Uiso   1.00
O757   O     0.50785   0.49213   0.84968   0.00000  Uiso   1.00
O758   O     0.39590   0.53842   0.68912   0.00000  Uiso   1.00
O759   O     0.51264   0.41352   0.78214   0.00000  Uiso   1.00
O760   O     0.47965   0.59418   0.77014   0.00000  Uiso   1.00
O761   O     0.40745   0.46625   0.73413   0.00000  Uiso   1.00
O762   O     0.60026   0.52605   0.71361   0.00000  Uiso   1.00
O763   O     0.40405   0.52211   0.78213   0.00000  Uiso   1.00
O764   O     0.58824   0.48559   0.77014   0.00000  Uiso   1.00
O765   O     0.47093   0.40277   0.73413   0.00000  Uiso   1.00
O766   O     0.53678   0.58953   0.71361   0.00000  Uiso   1.00
Zn767  Zn    0.52672   0.47327   0.78734   0.00000  Uiso   1.00
Zn768  Zn    0.46713   0.45791   0.71876   0.00000  Uiso   1.00
Zn769  Zn    0.54389   0.53109   0.70657   0.00000  Uiso   1.00
Zn770  Zn    0.46226   0.53773   0.78734   0.00000  Uiso   1.00
C771   C     0.71933   0.49263   0.76073   0.00000  Uiso   1.00
C772   C     0.83263   0.48703   0.55953   0.00000  Uiso   1.00
C773   C     0.90340   0.47033   0.55633   0.00000  Uiso   1.00
C774   C     0.94772   0.50719   0.73950   0.00000  Uiso   1.00
C775   C     0.80515   0.52306   0.92023   0.00000  Uiso   1.00
C776   C     0.99420   0.51000   0.73358   0.00000  Uiso   1.00
C777   C     0.67449   0.49184   0.76322   0.00000  Uiso   1.00
C778   C     0.84743   0.65596   0.73614   0.00000  Uiso   1.00
C779   C     0.81883   0.34508   0.76380   0.00000  Uiso   1.00
C780   C     0.82301   0.38924   0.76005   0.00000  Uiso   1.00
C781   C     0.84338   0.61133   0.74004   0.00000  Uiso   1.00
C782   C     0.74934   0.52862   0.98963   0.00000  Uiso   1.00
C783   C     0.85228   0.48187   0.62929   0.00000  Uiso   1.00
C784   C     0.81570   0.51843   0.87084   0.00000  Uiso   1.00
C785   C     0.91655   0.47569   0.51072   0.00000  Uiso   1.00
C786   C     0.86174   0.47658   0.58079   0.00000  Uiso   1.00
C787   C     0.76369   0.53161   0.94362   0.00000  Uiso   1.00
C788   C     0.69028   0.53268   0.69503   0.00000  Uiso   1.00
C789   C     0.77555   0.51602   0.51301   0.00000  Uiso   1.00
C790   C     0.81797   0.50785   0.99090   0.00000  Uiso   1.00
C791   C     0.83353   0.51385   0.94424   0.00000  Uiso   1.00
C792   C     0.84559   0.49421   0.51349   0.00000  Uiso   1.00
C793   C     0.88851   0.48859   0.98937   0.00000  Uiso   1.00
C794   C     0.90387   0.49771   0.94465   0.00000  Uiso   1.00
C795   C     0.87718   0.51102   0.92272   0.00000  Uiso   1.00
H796   H     0.92631   0.46307   0.57303   0.00000  Uiso   1.00
H797   H     0.98526   0.47640   0.79117   0.00000  Uiso   1.00
H798   H     0.71705   0.53480   0.50717   0.00000  Uiso   1.00
H799   H     0.67690   0.54478   0.67133   0.00000  Uiso   1.00
H800   H     0.87388   0.33732   0.71063   0.00000  Uiso   1.00
H801   H     0.79207   0.66446   0.78946   0.00000  Uiso   1.00
H802   H     0.93705   0.49521   0.92663   0.00000  Uiso   1.00
H803   H     0.94931   0.47156   0.99252   0.00000  Uiso   1.00
H804   H     0.80121   0.49190   0.58048   0.00000  Uiso   1.00
H805   H     0.74158   0.53901   0.92602   0.00000  Uiso   1.00
H806   H     0.76161   0.51337   0.54838   0.00000  Uiso   1.00
H807   H     0.89172   0.51994   0.88887   0.00000  Uiso   1.00
O808   O     0.83333   0.50000   0.75000   0.00000  Uiso   1.00
O809   O     0.82118   0.45970   0.65459   0.00000  Uiso   1.00
O810   O     0.79607   0.53724   0.84968   0.00000  Uiso   1.00
O811   O     0.87491   0.51092   0.64606   0.00000  Uiso   1.00
O812   O     0.84118   0.49213   0.84968   0.00000  Uiso   1.00
O813   O     0.72923   0.53842   0.68912   0.00000  Uiso   1.00
O814   O     0.84597   0.41352   0.78214   0.00000  Uiso   1.00
O815   O     0.81298   0.59418   0.77014   0.00000  Uiso   1.00
O816   O     0.74078   0.46625   0.73413   0.00000  Uiso   1.00
O817   O     0.93360   0.52605   0.71361   0.00000  Uiso   1.00
O818   O     0.73738   0.52211   0.78213   0.00000  Uiso   1.00
O819   O     0.92158   0.48559   0.77014   0.00000  Uiso   1.00
O820   O     0.80426   0.40277   0.73413   0.00000  Uiso   1.00
O821   O     0.87012   0.58953   0.71361   0.00000  Uiso   1.00
Zn822  Zn    0.86005   0.47327   0.78734   0.00000  Uiso   1.00
Zn823  Zn    0.80046   0.45791   0.71876   0.00000  Uiso   1.00
Zn824  Zn    0.87723   0.53109   0.70657   0.00000  Uiso   1.00
Zn825  Zn    0.79560   0.53773   0.78734   0.00000  Uiso   1.00
C826   C     0.05266   0.82597   0.76073   0.00000  Uiso   1.00
C827   C     0.16596   0.82036   0.55953   0.00000  Uiso   1.00
C828   C     0.23674   0.80367   0.55633   0.00000  Uiso   1.00
C829   C     0.28105   0.84053   0.73950   0.00000  Uiso   1.00
C830   C     0.13848   0.85640   0.92023   0.00000  Uiso   1.00
C831   C     0.32753   0.84334   0.73358   0.00000  Uiso   1.00
C832   C     0.00782   0.82517   0.76322   0.00000  Uiso   1.00
C833   C     0.18077   0.98930   0.73614   0.00000  Uiso   1.00
C834   C     0.15216   0.67841   0.76380   0.00000  Uiso   1.00
C835   C     0.15635   0.72258   0.76005   0.00000  Uiso   1.00
C836   C     0.17671   0.94467   0.74004   0.00000  Uiso   1.00
C837   C     0.08268   0.86195   0.98963   0.00000  Uiso   1.00
C838   C     0.18561   0.81520   0.62929   0.00000  Uiso   1.00
C839   C     0.14903   0.85177   0.87084   0.00000  Uiso   1.00
C840   C     0.24989   0.80902   0.51072   0.00000  Uiso   1.00
C841   C     0.19508   0.80992   0.58079   0.00000  Uiso   1.00
C842   C     0.09703   0.86495   0.94362   0.00000  Uiso   1.00
C843   C     0.02361   0.86601   0.69503   0.00000  Uiso   1.00
C844   C     0.10888   0.84936   0.51301   0.00000  Uiso   1.00
C845   C     0.15130   0.84119   0.99090   0.00000  Uiso   1.00
C846   C     0.16687   0.84719   0.94424   0.00000  Uiso   1.00
C847   C     0.17893   0.82754   0.51349   0.00000  Uiso   1.00
C848   C     0.22184   0.82192   0.98937   0.00000  Uiso   1.00
C849   C     0.23721   0.83105   0.94465   0.00000  Uiso   1.00
C850   C     0.21052   0.84435   0.92272   0.00000  Uiso   1.00
H851   H     0.25964   0.79641   0.57303   0.00000  Uiso   1.00
H852   H     0.31860   0.80973   0.79117   0.00000  Uiso   1.00
H853   H     0.05038   0.86813   0.50717   0.00000  Uiso   1.00
H854   H     0.01023   0.87811   0.67133   0.00000  Uiso   1.00
H855   H     0.20722   0.67065   0.71063   0.00000  Uiso   1.00
H856   H     0.12540   0.99780   0.78946   0.00000  Uiso   1.00
H857   H     0.27038   0.82854   0.92663   0.00000  Uiso   1.00
H858   H     0.28264   0.80489   0.99252   0.00000  Uiso   1.00
H859   H     0.13454   0.82524   0.58048   0.00000  Uiso   1.00
H860   H     0.07491   0.87234   0.92602   0.00000  Uiso   1.00
H861   H     0.09495   0.84670   0.54838   0.00000  Uiso   1.00
H862   H     0.22505   0.85328   0.88887   0.00000  Uiso   1.00
O863   O     0.16667   0.83333   0.75000   0.00000  Uiso   1.00
O864   O     0.15451   0.79304   0.65459   0.00000  Uiso   1.00
O865   O     0.12940   0.87058   0.84968   0.00000  Uiso   1.00
O866   O     0.20824   0.84425   0.64606   0.00000  Uiso   1.00
O867   O     0.17451   0.82546   0.84968   0.00000  Uiso   1.00
O868   O     0.06256   0.87175   0.68912   0.00000  Uiso   1.00
O869   O     0.17930   0.74686   0.78214   0.00000  Uiso   1.00
O870   O     0.14632   0.92751   0.77014   0.00000  Uiso   1.00
O871   O     0.07412   0.79958   0.73413   0.00000  Uiso   1.00
O872   O     0.26693   0.85939   0.71361   0.00000  Uiso   1.00
O873   O     0.07071   0.85544   0.78213   0.00000  Uiso   1.00
O874   O     0.25491   0.81892   0.77014   0.00000  Uiso   1.00
O875   O     0.13760   0.73610   0.73413   0.00000  Uiso   1.00
O876   O     0.20345   0.92286   0.71361   0.00000  Uiso   1.00
Zn877  Zn    0.19338   0.80661   0.78734   0.00000  Uiso   1.00
Zn878  Zn    0.13379   0.79124   0.71876   0.00000  Uiso   1.00
Zn879  Zn    0.21056   0.86442   0.70657   0.00000  Uiso   1.00
Zn880  Zn    0.12893   0.87106   0.78734   0.00000  Uiso   1.00
C881   C     0.38600   0.82597   0.76073   0.00000  Uiso   1.00
C882   C     0.49929   0.82036   0.55953   0.00000  Uiso   1.00
C883   C     0.57007   0.80367   0.55633   0.00000  Uiso   1.00
C884   C     0.61439   0.84053   0.73950   0.00000  Uiso   1.00
C885   C     0.47181   0.85640   0.92023   0.00000  Uiso   1.00
C886   C     0.66087   0.84334   0.73358   0.00000  Uiso   1.00
C887   C     0.34115   0.82517   0.76322   0.00000  Uiso   1.00
C888   C     0.51410   0.98930   0.73614   0.00000  Uiso   1.00
C889   C     0.48550   0.67841   0.76380   0.00000  Uiso   1.00
C890   C     0.48968   0.72258   0.76005   0.00000  Uiso   1.00
C891   C     0.51005   0.94467   0.74004   0.00000  Uiso   1.00
C892   C     0.41601   0.86195   0.98963   0.00000  Uiso   1.00
C893   C     0.51895   0.81520   0.62929   0.00000  Uiso   1.00
C894   C     0.48237   0.85177   0.87084   0.00000  Uiso   1.00
C895   C     0.58322   0.80902   0.51072   0.00000  Uiso   1.00
C896   C     0.52841   0.80992   0.58079   0.00000  Uiso   1.00
C897   C     0.43036   0.86495   0.94362   0.00000  Uiso   1.00
C898   C     0.35694   0.86601   0.69503   0.00000  Uiso   1.00
C899   C     0.44222   0.84936   0.51301   0.00000  Uiso   1.00
C900   C     0.48463   0.84119   0.99090   0.00000  Uiso   1.00
C901   C     0.50020   0.84719   0.94424   0.00000  Uiso   1.00
C902   C     0.51226   0.82754   0.51349   0.00000  Uiso   1.00
C903   C     0.55518   0.82192   0.98937   0.00000  Uiso   1.00
C904   C     0.57054   0.83105   0.94465   0.00000  Uiso   1.00
C905   C     0.54385   0.84435   0.92272   0.00000  Uiso   1.00
H906   H     0.59298   0.79641   0.57303   0.00000  Uiso   1.00
H907   H     0.65193   0.80973   0.79117   0.00000  Uiso   1.00
H908   H     0.38372   0.86813   0.50717   0.00000  Uiso   1.00
H909   H     0.34357   0.87811   0.67133   0.00000  Uiso   1.00
H910   H     0.54055   0.67065   0.71063   0.00000  Uiso   1.00
H911   H     0.45873   0.99780   0.78946   0.00000  Uiso   1.00
H912   H     0.60371   0.82854   0.92663   0.00000  Uiso   1.00
H913   H     0.61598   0.80489   0.99252   0.00000  Uiso   1.00
H914   H     0.46788   0.82524   0.58048   0.00000  Uiso   1.00
H915   H     0.40824   0.87234   0.92602   0.00000  Uiso   1.00
H916   H     0.42828   0.84670   0.54838   0.00000  Uiso   1.00
H917   H     0.55838   0.85328   0.88887   0.00000  Uiso   1.00
O918   O     0.50000   0.83333   0.75000   0.00000  Uiso   1.00
O919   O     0.48784   0.79304   0.65459   0.00000  Uiso   1.00
O920   O     0.46274   0.87058   0.84968   0.00000  Uiso   1.00
O921   O     0.54157   0.84425   0.64606   0.00000  Uiso   1.00
O922   O     0.50785   0.82546   0.84968   0.00000  Uiso   1.00
O923   O     0.39590   0.87175   0.68912   0.00000  Uiso   1.00
O924   O     0.51264   0.74686   0.78214   0.00000  Uiso   1.00
O925   O     0.47965   0.92751   0.77014   0.00000  Uiso   1.00
O926   O     0.40745   0.79958   0.73413   0.00000  Uiso   1.00
O927   O     0.60026   0.85939   0.71361   0.00000  Uiso   1.00
O928   O     0.40405   0.85544   0.78213   0.00000  Uiso   1.00
O929   O     0.58824   0.81892   0.77014   0.00000  Uiso   1.00
O930   O     0.47093   0.73610   0.73413   0.00000  Uiso   1.00
O931   O     0.53678   0.92286   0.71361   0.00000  Uiso   1.00
Zn932  Zn    0.52672   0.80661   0.78734   0.00000  Uiso   1.00
Zn933  Zn    0.46713   0.79124   0.71876   0.00000  Uiso   1.00
Zn934  Zn    0.54389   0.86442   0.70657   0.00000  Uiso   1.00
Zn935  Zn    0.46226   0.87106   0.78734   0.00000  Uiso   1.00
C936   C     0.71933   0.82597   0.76073   0.00000  Uiso   1.00
C937   C     0.83263   0.82036   0.55953   0.00000  Uiso   1.00
C938   C     0.90340   0.80367   0.55633   0.00000  Uiso   1.00
C939   C     0.94772   0.84053   0.73950   0.00000  Uiso   1.00
C940   C     0.80515   0.85640   0.92023   0.00000  Uiso   1.00
C941   C     0.99420   0.84334   0.73358   0.00000  Uiso   1.00
C942   C     0.67449   0.82517   0.76322   0.00000  Uiso   1.00
C943   C     0.84743   0.98930   0.73614   0.00000  Uiso   1.00
C944   C     0.81883   0.67841   0.76380   0.00000  Uiso   1.00
C945   C     0.82301   0.72258   0.76005   0.00000  Uiso   1.00
C946   C     0.84338   0.94467   0.74004   0.00000  Uiso   1.00
C947   C     0.74934   0.86195   0.98963   0.00000  Uiso   1.00
C948   C     0.85228   0.81520   0.62929   0.00000  Uiso   1.00
C949   C     0.81570   0.85177   0.87084   0.00000  Uiso   1.00
C950   C     0.91655   0.80902   0.51072   0.00000  Uiso   1.00
C951   C     0.86174   0.80992   0.58079   0.00000  Uiso   1.00
C952   C     0.76369   0.86495   0.94362   0.00000  Uiso   1.00
C953   C     0.69028   0.86601   0.69503   0.00000  Uiso   1.00
C954   C     0.77555   0.84936   0.51301   0.00000  Uiso   1.00
C955   C     0.81797   0.84119   0.99090   0.00000  Uiso   1.00
C956   C     0.83353   0.84719   0.94424   0.00000  Uiso   1.00
C957   C     0.84559   0.82754   0.51349   0.00000  Uiso   1.00
C958   C     0.88851   0.82192   0.98937   0.00000  Uiso   1.00
C959   C     0.90387   0.83105   0.94465   0.00000  Uiso   1.00
C960   C     0.87718   0.84435   0.92272   0.00000  Uiso   1.00
H961   H     0.92631   0.79641   0.57303   0.00000  Uiso   1.00
H962   H     0.98526   0.80973   0.79117   0.00000  Uiso   1.00
H963   H     0.71705   0.86813   0.50717   0.00000  Uiso   1.00
H964   H     0.67690   0.87811   0.67133   0.00000  Uiso   1.00
H965   H     0.87388   0.67065   0.71063   0.00000  Uiso   1.00
H966   H     0.79207   0.99780   0.78946   0.00000  Uiso   1.00
H967   H     0.93705   0.82854   0.92663   0.00000  Uiso   1.00
H968   H     0.94931   0.80489   0.99252   0.00000  Uiso   1.00
H969   H     0.80121   0.82524   0.58048   0.00000  Uiso   1.00
H970   H     0.74158   0.87234   0.92602   0.00000  Uiso   1.00
H971   H     0.76161   0.84670   0.54838   0.00000  Uiso   1.00
H972   H     0.89172   0.85328   0.88887   0.00000  Uiso   1.00
O973   O     0.83333   0.83333   0.75000   0.00000  Uiso   1.00
O974   O     0.82118   0.79304   0.65459   0.00000  Uiso   1.00
O975   O     0.79607   0.87058   0.84968   0.00000  Uiso   1.00
O976   O     0.87491   0.84425   0.64606   0.00000  Uiso   1.00
O977   O     0.84118   0.82546   0.84968   0.00000  Uiso   1.00
O978   O     0.72923   0.87175   0.68912   0.00000  Uiso   1.00
O979   O     0.84597   0.74686   0.78214   0.00000  Uiso   1.00
O980   O     0.81298   0.92751   0.77014   0.00000  Uiso   1.00
O981   O     0.74078   0.79958   0.73413   0.00000  Uiso   1.00
O982   O     0.93360   0.85939   0.71361   0.00000  Uiso   1.00
O983   O     0.73738   0.85544   0.78213   0.00000  Uiso   1.00
O984   O     0.92158   0.81892   0.77014   0.00000  Uiso   1.00
O985   O     0.80426   0.73610   0.73413   0.00000  Uiso   1.00
O986   O     0.87012   0.92286   0.71361   0.00000  Uiso   1.00
Zn987  Zn    0.86005   0.80661   0.78734   0.00000  Uiso   1.00
Zn988  Zn    0.80046   0.79124   0.71876   0.00000  Uiso   1.00
Zn989  Zn    0.87723   0.86442   0.70657   0.00000  Uiso   1.00
Zn990  Zn    0.79560   0.87106   0.78734   0.00000  Uiso   1.00
loop_
_geom_bond_atom_site_label_1
_geom_bond_atom_site_label_2
_geom_bond_distance
_geom_bond_site_symmetry_2
_ccdc_geom_bond_type
C1     O48     1.271   .     A
C1     O46     1.274   .     A
C1     C7      1.440   .     S
C2     C22     1.412   .     A
C2     C16     1.394   .     A
C2     H34     1.077   .     S
C3     C15     1.387   .     A
C3     H26     1.084   .     S
C3     C16     1.396   .     A
C4     O49     1.283   .     A
C4     C6      1.466   .     S
C4     O47     1.277   .     A
C5     C17     1.402   .     A
C5     C14     1.476   .     S
C5     C21     1.419   .     A
C6     C62     1.347   .     S
C6     C73     1.499   .     S
C7     C116    1.347   1_455 S
C7     H137    1.086   1_455 S
C8     C11     1.452   .     S
C8     C174    1.332   .     S
C8     H195    1.088   .     S
C9     C10     1.436   .     S
C9     C338    1.332   1_545 S
C9     H361    1.086   1_545 S
C10    O50     1.282   .     A
C10    O44     1.282   .     A
C11    O45     1.267   .     A
C11    O51     1.268   .     A
C12    C17     1.387   .     A
C12    C514    1.391   .     S
C12    H523    1.083   .     S
C13    O41     1.267   .     A
C13    O39     1.277   .     A
C13    C16     1.451   .     S
C14    O42     1.284   .     A
C14    O40     1.285   .     A
C15    C518    1.400   1_554 S
C15    H528    1.084   1_554 S
C17    H35     1.083   .     S
C18    H29     1.085   .     S
C18    O43     1.221   .     D
C18    C116    1.499   1_455 S
C19    H36     1.076   .     S
C19    C507    1.391   1_554 S
C19    C515    1.417   1_554 S
C20    C21     1.424   .     A
C20    C514    1.417   .     S
C20    C517    1.427   .     S
C21    C25     1.410   .     A
C22    C515    1.427   1_554 S
C22    C518    1.424   1_554 S
C23    C24     1.391   .     A
C23    C510    1.400   .     S
C23    C517    1.424   .     S
C24    H32     1.084   .     S
C24    C25     1.382   .     A
C25    H37     1.080   .     S
H27    C62     1.086   .     S
H28    C507    1.083   1_554 S
H30    C338    1.088   1_545 S
H31    C174    1.086   .     S
H33    C510    1.084   .     S
O38    Zn54    1.921   .     S
O38    Zn53    1.952   .     S
O38    Zn55    1.933   .     S
O38    Zn52    1.964   .     S
O39    Zn53    1.928   .     S
O40    Zn55    1.945   .     S
O41    Zn54    1.943   .     S
O42    Zn52    1.929   .     S
O44    Zn52    1.927   .     S
O45    Zn55    1.925   .     S
O46    Zn53    1.926   .     S
O47    Zn54    1.942   .     S
O48    Zn55    1.936   .     S
O49    Zn52    1.921   .     S
O50    Zn53    1.934   .     S
O51    Zn54    1.931   .     S
C56    O103    1.271   .     A
C56    O101    1.274   .     A
C56    C62     1.440   .     S
C57    C77     1.412   .     A
C57    C71     1.394   .     A
C57    H89     1.077   .     S
C58    C70     1.387   .     A
C58    H81     1.084   .     S
C58    C71     1.396   .     A
C59    O104    1.283   .     A
C59    C61     1.466   .     S
C59    O102    1.277   .     A
C60    C72     1.402   .     A
C60    C69     1.476   .     S
C60    C76     1.419   .     A
C61    C117    1.347   .     S
C61    C128    1.499   .     S
C63    C66     1.452   .     S
C63    C229    1.332   .     S
C63    H250    1.088   .     S
C64    C65     1.436   .     S
C64    C393    1.332   1_545 S
C64    H416    1.086   1_545 S
C65    O105    1.282   .     A
C65    O99     1.282   .     A
C66    O100    1.267   .     A
C66    O106    1.268   .     A
C67    C72     1.387   .     A
C67    C569    1.391   .     S
C67    H578    1.083   .     S
C68    O96     1.267   .     A
C68    O94     1.277   .     A
C68    C71     1.451   .     S
C69    O97     1.284   .     A
C69    O95     1.285   .     A
C70    C573    1.400   1_554 S
C70    H583    1.084   1_554 S
C72    H90     1.083   .     S
C73    H84     1.085   .     S
C73    O98     1.221   .     D
C74    H91     1.076   .     S
C74    C562    1.391   1_554 S
C74    C570    1.417   1_554 S
C75    C76     1.424   .     A
C75    C569    1.417   .     S
C75    C572    1.427   .     S
C76    C80     1.410   .     A
C77    C570    1.427   1_554 S
C77    C573    1.424   1_554 S
C78    C79     1.391   .     A
C78    C565    1.400   .     S
C78    C572    1.424   .     S
C79    H87     1.084   .     S
C79    C80     1.382   .     A
C80    H92     1.080   .     S
H82    C117    1.086   .     S
H83    C562    1.083   1_554 S
H85    C393    1.088   1_545 S
H86    C229    1.086   .     S
H88    C565    1.084   .     S
O93    Zn109   1.921   .     S
O93    Zn108   1.952   .     S
O93    Zn110   1.933   .     S
O93    Zn107   1.964   .     S
O94    Zn108   1.928   .     S
O95    Zn110   1.945   .     S
O96    Zn109   1.943   .     S
O97    Zn107   1.929   .     S
O99    Zn107   1.927   .     S
O100   Zn110   1.925   .     S
O101   Zn108   1.926   .     S
O102   Zn109   1.942   .     S
O103   Zn110   1.936   .     S
O104   Zn107   1.921   .     S
O105   Zn108   1.934   .     S
O106   Zn109   1.931   .     S
C111   O158    1.271   .     A
C111   O156    1.274   .     A
C111   C117    1.440   .     S
C112   C132    1.412   .     A
C112   C126    1.394   .     A
C112   H144    1.077   .     S
C113   C125    1.387   .     A
C113   H136    1.084   .     S
C113   C126    1.396   .     A
C114   O159    1.283   .     A
C114   C116    1.466   .     S
C114   O157    1.277   .     A
C115   C127    1.402   .     A
C115   C124    1.476   .     S
C115   C131    1.419   .     A
C116   C7      1.347   1_655 S
C116   C18     1.499   1_655 S
C118   C121    1.452   .     S
C118   C284    1.332   .     S
C118   H305    1.088   .     S
C119   C120    1.436   .     S
C119   C448    1.332   1_545 S
C119   H471    1.086   1_545 S
C120   O160    1.282   .     A
C120   O154    1.282   .     A
C121   O155    1.267   .     A
C121   O161    1.268   .     A
C122   C127    1.387   .     A
C122   C624    1.391   .     S
C122   H633    1.083   .     S
C123   O151    1.267   .     A
C123   O149    1.277   .     A
C123   C126    1.451   .     S
C124   O152    1.284   .     A
C124   O150    1.285   .     A
C125   C628    1.400   1_554 S
C125   H638    1.084   1_554 S
C127   H145    1.083   .     S
C128   H139    1.085   .     S
C128   O153    1.221   .     D
C129   H146    1.076   .     S
C129   C617    1.391   1_554 S
C129   C625    1.417   1_554 S
C130   C131    1.424   .     A
C130   C624    1.417   .     S
C130   C627    1.427   .     S
C131   C135    1.410   .     A
C132   C625    1.427   1_554 S
C132   C628    1.424   1_554 S
C133   C134    1.391   .     A
C133   C620    1.400   .     S
C133   C627    1.424   .     S
C134   H142    1.084   .     S
C134   C135    1.382   .     A
C135   H147    1.080   .     S
H137   C7      1.086   1_655 S
H138   C617    1.083   1_554 S
H140   C448    1.088   1_545 S
H141   C284    1.086   .     S
H143   C620    1.084   .     S
O148   Zn164   1.921   .     S
O148   Zn163   1.952   .     S
O148   Zn165   1.933   .     S
O148   Zn162   1.964   .     S
O149   Zn163   1.928   .     S
O150   Zn165   1.945   .     S
O151   Zn164   1.943   .     S
O152   Zn162   1.929   .     S
O154   Zn162   1.927   .     S
O155   Zn165   1.925   .     S
O156   Zn163   1.926   .     S
O157   Zn164   1.942   .     S
O158   Zn165   1.936   .     S
O159   Zn162   1.921   .     S
O160   Zn163   1.934   .     S
O161   Zn164   1.931   .     S
C166   O213    1.271   .     A
C166   O211    1.274   .     A
C166   C172    1.440   .     S
C167   C187    1.412   .     A
C167   C181    1.394   .     A
C167   H199    1.077   .     S
C168   C180    1.387   .     A
C168   H191    1.084   .     S
C168   C181    1.396   .     A
C169   O214    1.283   .     A
C169   C171    1.466   .     S
C169   O212    1.277   .     A
C170   C182    1.402   .     A
C170   C179    1.476   .     S
C170   C186    1.419   .     A
C171   C227    1.347   .     S
C171   C238    1.499   .     S
C172   C281    1.347   1_455 S
C172   H302    1.086   1_455 S
C173   C176    1.452   .     S
C173   C339    1.332   .     S
C173   H360    1.088   .     S
C174   C175    1.436   .     S
C175   O215    1.282   .     A
C175   O209    1.282   .     A
C176   O210    1.267   .     A
C176   O216    1.268   .     A
C177   C182    1.387   .     A
C177   C679    1.391   .     S
C177   H688    1.083   .     S
C178   O206    1.267   .     A
C178   O204    1.277   .     A
C178   C181    1.451   .     S
C179   O207    1.284   .     A
C179   O205    1.285   .     A
C180   C683    1.400   1_554 S
C180   H693    1.084   1_554 S
C182   H200    1.083   .     S
C183   H194    1.085   .     S
C183   O208    1.221   .     D
C183   C281    1.499   1_455 S
C184   H201    1.076   .     S
C184   C672    1.391   1_554 S
C184   C680    1.417   1_554 S
C185   C186    1.424   .     A
C185   C679    1.417   .     S
C185   C682    1.427   .     S
C186   C190    1.410   .     A
C187   C680    1.427   1_554 S
C187   C683    1.424   1_554 S
C188   C189    1.391   .     A
C188   C675    1.400   .     S
C188   C682    1.424   .     S
C189   H197    1.084   .     S
C189   C190    1.382   .     A
C190   H202    1.080   .     S
H192   C227    1.086   .     S
H193   C672    1.083   1_554 S
H196   C339    1.086   .     S
H198   C675    1.084   .     S
O203   Zn219   1.921   .     S
O203   Zn218   1.952   .     S
O203   Zn220   1.933   .     S
O203   Zn217   1.964   .     S
O204   Zn218   1.928   .     S
O205   Zn220   1.945   .     S
O206   Zn219   1.943   .     S
O207   Zn217   1.929   .     S
O209   Zn217   1.927   .     S
O210   Zn220   1.925   .     S
O211   Zn218   1.926   .     S
O212   Zn219   1.942   .     S
O213   Zn220   1.936   .     S
O214   Zn217   1.921   .     S
O215   Zn218   1.934   .     S
O216   Zn219   1.931   .     S
C221   O268    1.271   .     A
C221   O266    1.274   .     A
C221   C227    1.440   .     S
C222   C242    1.412   .     A
C222   C236    1.394   .     A
C222   H254    1.077   .     S
C223   C235    1.387   .     A
C223   H246    1.084   .     S
C223   C236    1.396   .     A
C224   O269    1.283   .     A
C224   C226    1.466   .     S
C224   O267    1.277   .     A
C225   C237    1.402   .     A
C225   C234    1.476   .     S
C225   C241    1.419   .     A
C226   C282    1.347   .     S
C226   C293    1.499   .     S
C228   C231    1.452   .     S
C228   C394    1.332   .     S
C228   H415    1.088   .     S
C229   C230    1.436   .     S
C230   O270    1.282   .     A
C230   O264    1.282   .     A
C231   O265    1.267   .     A
C231   O271    1.268   .     A
C232   C237    1.387   .     A
C232   C734    1.391   .     S
C232   H743    1.083   .     S
C233   O261    1.267   .     A
C233   O259    1.277   .     A
C233   C236    1.451   .     S
C234   O262    1.284   .     A
C234   O260    1.285   .     A
C235   C738    1.400   1_554 S
C235   H748    1.084   1_554 S
C237   H255    1.083   .     S
C238   H249    1.085   .     S
C238   O263    1.221   .     D
C239   H256    1.076   .     S
C239   C727    1.391   1_554 S
C239   C735    1.417   1_554 S
C240   C241    1.424   .     A
C240   C734    1.417   .     S
C240   C737    1.427   .     S
C241   C245    1.410   .     A
C242   C735    1.427   1_554 S
C242   C738    1.424   1_554 S
C243   C244    1.391   .     A
C243   C730    1.400   .     S
C243   C737    1.424   .     S
C244   H252    1.084   .     S
C244   C245    1.382   .     A
C245   H257    1.080   .     S
H247   C282    1.086   .     S
H248   C727    1.083   1_554 S
H251   C394    1.086   .     S
H253   C730    1.084   .     S
O258   Zn274   1.921   .     S
O258   Zn273   1.952   .     S
O258   Zn275   1.933   .     S
O258   Zn272   1.964   .     S
O259   Zn273   1.928   .     S
O260   Zn275   1.945   .     S
O261   Zn274   1.943   .     S
O262   Zn272   1.929   .     S
O264   Zn272   1.927   .     S
O265   Zn275   1.925   .     S
O266   Zn273   1.926   .     S
O267   Zn274   1.942   .     S
O268   Zn275   1.936   .     S
O269   Zn272   1.921   .     S
O270   Zn273   1.934   .     S
O271   Zn274   1.931   .     S
C276   O323    1.271   .     A
C276   O321    1.274   .     A
C276   C282    1.440   .     S
C277   C297    1.412   .     A
C277   C291    1.394   .     A
C277   H309    1.077   .     S
C278   C290    1.387   .     A
C278   H301    1.084   .     S
C278   C291    1.396   .     A
C279   O324    1.283   .     A
C279   C281    1.466   .     S
C279   O322    1.277   .     A
C280   C292    1.402   .     A
C280   C289    1.476   .     S
C280   C296    1.419   .     A
C281   C172    1.347   1_655 S
C281   C183    1.499   1_655 S
C283   C286    1.452   .     S
C283   C449    1.332   .     S
C283   H470    1.088   .     S
C284   C285    1.436   .     S
C285   O325    1.282   .     A
C285   O319    1.282   .     A
C286   O320    1.267   .     A
C286   O326    1.268   .     A
C287   C292    1.387   .     A
C287   C789    1.391   .     S
C287   H798    1.083   .     S
C288   O316    1.267   .     A
C288   O314    1.277   .     A
C288   C291    1.451   .     S
C289   O317    1.284   .     A
C289   O315    1.285   .     A
C290   C793    1.400   1_554 S
C290   H803    1.084   1_554 S
C292   H310    1.083   .     S
C293   H304    1.085   .     S
C293   O318    1.221   .     D
C294   H311    1.076   .     S
C294   C782    1.391   1_554 S
C294   C790    1.417   1_554 S
C295   C296    1.424   .     A
C295   C789    1.417   .     S
C295   C792    1.427   .     S
C296   C300    1.410   .     A
C297   C790    1.427   1_554 S
C297   C793    1.424   1_554 S
C298   C299    1.391   .     A
C298   C785    1.400   .     S
C298   C792    1.424   .     S
C299   H307    1.084   .     S
C299   C300    1.382   .     A
C300   H312    1.080   .     S
H302   C172    1.086   1_655 S
H303   C782    1.083   1_554 S
H306   C449    1.086   .     S
H308   C785    1.084   .     S
O313   Zn329   1.921   .     S
O313   Zn328   1.952   .     S
O313   Zn330   1.933   .     S
O313   Zn327   1.964   .     S
O314   Zn328   1.928   .     S
O315   Zn330   1.945   .     S
O316   Zn329   1.943   .     S
O317   Zn327   1.929   .     S
O319   Zn327   1.927   .     S
O320   Zn330   1.925   .     S
O321   Zn328   1.926   .     S
O322   Zn329   1.942   .     S
O323   Zn330   1.936   .     S
O324   Zn327   1.921   .     S
O325   Zn328   1.934   .     S
O326   Zn329   1.931   .     S
C331   O378    1.271   .     A
C331   O376    1.274   .     A
C331   C337    1.440   .     S
C332   C352    1.412   .     A
C332   C346    1.394   .     A
C332   H364    1.077   .     S
C333   C345    1.387   .     A
C333   H356    1.084   .     S
C333   C346    1.396   .     A
C334   O379    1.283   .     A
C334   C336    1.466   .     S
C334   O377    1.277   .     A
C335   C347    1.402   .     A
C335   C344    1.476   .     S
C335   C351    1.419   .     A
C336   C392    1.347   .     S
C336   C403    1.499   .     S
C337   C446    1.347   1_455 S
C337   H467    1.086   1_455 S
C338   C341    1.452   .     S
C338   C9      1.332   1_565 S
C338   H30     1.088   1_565 S
C339   C340    1.436   .     S
C340   O380    1.282   .     A
C340   O374    1.282   .     A
C341   O375    1.267   .     A
C341   O381    1.268   .     A
C342   C347    1.387   .     A
C342   C844    1.391   .     S
C342   H853    1.083   .     S
C343   O371    1.267   .     A
C343   O369    1.277   .     A
C343   C346    1.451   .     S
C344   O372    1.284   .     A
C344   O370    1.285   .     A
C345   C848    1.400   1_554 S
C345   H858    1.084   1_554 S
C347   H365    1.083   .     S
C348   H359    1.085   .     S
C348   O373    1.221   .     D
C348   C446    1.499   1_455 S
C349   H366    1.076   .     S
C349   C837    1.391   1_554 S
C349   C845    1.417   1_554 S
C350   C351    1.424   .     A
C350   C844    1.417   .     S
C350   C847    1.427   .     S
C351   C355    1.410   .     A
C352   C845    1.427   1_554 S
C352   C848    1.424   1_554 S
C353   C354    1.391   .     A
C353   C840    1.400   .     S
C353   C847    1.424   .     S
C354   H362    1.084   .     S
C354   C355    1.382   .     A
C355   H367    1.080   .     S
H357   C392    1.086   .     S
H358   C837    1.083   1_554 S
H361   C9      1.086   1_565 S
H363   C840    1.084   .     S
O368   Zn384   1.921   .     S
O368   Zn383   1.952   .     S
O368   Zn385   1.933   .     S
O368   Zn382   1.964   .     S
O369   Zn383   1.928   .     S
O370   Zn385   1.945   .     S
O371   Zn384   1.943   .     S
O372   Zn382   1.929   .     S
O374   Zn382   1.927   .     S
O375   Zn385   1.925   .     S
O376   Zn383   1.926   .     S
O377   Zn384   1.942   .     S
O378   Zn385   1.936   .     S
O379   Zn382   1.921   .     S
O380   Zn383   1.934   .     S
O381   Zn384   1.931   .     S
C386   O433    1.271   .     A
C386   O431    1.274   .     A
C386   C392    1.440   .     S
C387   C407    1.412   .     A
C387   C401    1.394   .     A
C387   H419    1.077   .     S
C388   C400    1.387   .     A
C388   H411    1.084   .     S
C388   C401    1.396   .     A
C389   O434    1.283   .     A
C389   C391    1.466   .     S
C389   O432    1.277   .     A
C390   C402    1.402   .     A
C390   C399    1.476   .     S
C390   C406    1.419   .     A
C391   C447    1.347   .     S
C391   C458    1.499   .     S
C393   C396    1.452   .     S
C393   C64     1.332   1_565 S
C393   H85     1.088   1_565 S
C394   C395    1.436   .     S
C395   O435    1.282   .     A
C395   O429    1.282   .     A
C396   O430    1.267   .     A
C396   O436    1.268   .     A
C397   C402    1.387   .     A
C397   C899    1.391   .     S
C397   H908    1.083   .     S
C398   O426    1.267   .     A
C398   O424    1.277   .     A
C398   C401    1.451   .     S
C399   O427    1.284   .     A
C399   O425    1.285   .     A
C400   C903    1.400   1_554 S
C400   H913    1.084   1_554 S
C402   H420    1.083   .     S
C403   H414    1.085   .     S
C403   O428    1.221   .     D
C404   H421    1.076   .     S
C404   C892    1.391   1_554 S
C404   C900    1.417   1_554 S
C405   C406    1.424   .     A
C405   C899    1.417   .     S
C405   C902    1.427   .     S
C406   C410    1.410   .     A
C407   C900    1.427   1_554 S
C407   C903    1.424   1_554 S
C408   C409    1.391   .     A
C408   C895    1.400   .     S
C408   C902    1.424   .     S
C409   H417    1.084   .     S
C409   C410    1.382   .     A
C410   H422    1.080   .     S
H412   C447    1.086   .     S
H413   C892    1.083   1_554 S
H416   C64     1.086   1_565 S
H418   C895    1.084   .     S
O423   Zn439   1.921   .     S
O423   Zn438   1.952   .     S
O423   Zn440   1.933   .     S
O423   Zn437   1.964   .     S
O424   Zn438   1.928   .     S
O425   Zn440   1.945   .     S
O426   Zn439   1.943   .     S
O427   Zn437   1.929   .     S
O429   Zn437   1.927   .     S
O430   Zn440   1.925   .     S
O431   Zn438   1.926   .     S
O432   Zn439   1.942   .     S
O433   Zn440   1.936   .     S
O434   Zn437   1.921   .     S
O435   Zn438   1.934   .     S
O436   Zn439   1.931   .     S
C441   O488    1.271   .     A
C441   O486    1.274   .     A
C441   C447    1.440   .     S
C442   C462    1.412   .     A
C442   C456    1.394   .     A
C442   H474    1.077   .     S
C443   C455    1.387   .     A
C443   H466    1.084   .     S
C443   C456    1.396   .     A
C444   O489    1.283   .     A
C444   C446    1.466   .     S
C444   O487    1.277   .     A
C445   C457    1.402   .     A
C445   C454    1.476   .     S
C445   C461    1.419   .     A
C446   C337    1.347   1_655 S
C446   C348    1.499   1_655 S
C448   C451    1.452   .     S
C448   C119    1.332   1_565 S
C448   H140    1.088   1_565 S
C449   C450    1.436   .     S
C450   O490    1.282   .     A
C450   O484    1.282   .     A
C451   O485    1.267   .     A
C451   O491    1.268   .     A
C452   C457    1.387   .     A
C452   C954    1.391   .     S
C452   H963    1.083   .     S
C453   O481    1.267   .     A
C453   O479    1.277   .     A
C453   C456    1.451   .     S
C454   O482    1.284   .     A
C454   O480    1.285   .     A
C455   C958    1.400   1_554 S
C455   H968    1.084   1_554 S
C457   H475    1.083   .     S
C458   H469    1.085   .     S
C458   O483    1.221   .     D
C459   H476    1.076   .     S
C459   C947    1.391   1_554 S
C459   C955    1.417   1_554 S
C460   C461    1.424   .     A
C460   C954    1.417   .     S
C460   C957    1.427   .     S
C461   C465    1.410   .     A
C462   C955    1.427   1_554 S
C462   C958    1.424   1_554 S
C463   C464    1.391   .     A
C463   C950    1.400   .     S
C463   C957    1.424   .     S
C464   H472    1.084   .     S
C464   C465    1.382   .     A
C465   H477    1.080   .     S
H467   C337    1.086   1_655 S
H468   C947    1.083   1_554 S
H471   C119    1.086   1_565 S
H473   C950    1.084   .     S
O478   Zn494   1.921   .     S
O478   Zn493   1.952   .     S
O478   Zn495   1.933   .     S
O478   Zn492   1.964   .     S
O479   Zn493   1.928   .     S
O480   Zn495   1.945   .     S
O481   Zn494   1.943   .     S
O482   Zn492   1.929   .     S
O484   Zn492   1.927   .     S
O485   Zn495   1.925   .     S
O486   Zn493   1.926   .     S
O487   Zn494   1.942   .     S
O488   Zn495   1.936   .     S
O489   Zn492   1.921   .     S
O490   Zn493   1.934   .     S
O491   Zn494   1.931   .     S
C496   O543    1.271   .     A
C496   O541    1.274   .     A
C496   C502    1.440   .     S
C497   C517    1.412   .     A
C497   C511    1.394   .     A
C497   H529    1.077   .     S
C498   C510    1.387   .     A
C498   H521    1.084   .     S
C498   C511    1.396   .     A
C499   O544    1.283   .     A
C499   C501    1.466   .     S
C499   O542    1.277   .     A
C500   C512    1.402   .     A
C500   C509    1.476   .     S
C500   C516    1.419   .     A
C501   C557    1.347   .     S
C501   C568    1.499   .     S
C502   C611    1.347   1_455 S
C502   H632    1.086   1_455 S
C503   C506    1.452   .     S
C503   C669    1.332   .     S
C503   H690    1.088   .     S
C504   C505    1.436   .     S
C504   C833    1.332   1_545 S
C504   H856    1.086   1_545 S
C505   O545    1.282   .     A
C505   O539    1.282   .     A
C506   O540    1.267   .     A
C506   O546    1.268   .     A
C507   C512    1.387   .     A
C507   C19     1.391   1_556 S
C507   H28     1.083   1_556 S
C508   O536    1.267   .     A
C508   O534    1.277   .     A
C508   C511    1.451   .     S
C509   O537    1.284   .     A
C509   O535    1.285   .     A
C512   H530    1.083   .     S
C513   H524    1.085   .     S
C513   O538    1.221   .     D
C513   C611    1.499   1_455 S
C514   H531    1.076   .     S
C515   C516    1.424   .     A
C515   C19     1.417   1_556 S
C515   C22     1.427   1_556 S
C516   C520    1.410   .     A
C518   C519    1.391   .     A
C518   C15     1.400   1_556 S
C518   C22     1.424   1_556 S
C519   H527    1.084   .     S
C519   C520    1.382   .     A
C520   H532    1.080   .     S
H522   C557    1.086   .     S
H525   C833    1.088   1_545 S
H526   C669    1.086   .     S
H528   C15     1.084   1_556 S
O533   Zn549   1.921   .     S
O533   Zn548   1.952   .     S
O533   Zn550   1.933   .     S
O533   Zn547   1.964   .     S
O534   Zn548   1.928   .     S
O535   Zn550   1.945   .     S
O536   Zn549   1.943   .     S
O537   Zn547   1.929   .     S
O539   Zn547   1.927   .     S
O540   Zn550   1.925   .     S
O541   Zn548   1.926   .     S
O542   Zn549   1.942   .     S
O543   Zn550   1.936   .     S
O544   Zn547   1.921   .     S
O545   Zn548   1.934   .     S
O546   Zn549   1.931   .     S
C551   O598    1.271   .     A
C551   O596    1.274   .     A
C551   C557    1.440   .     S
C552   C572    1.412   .     A
C552   C566    1.394   .     A
C552   H584    1.077   .     S
C553   C565    1.387   .     A
C553   H576    1.084   .     S
C553   C566    1.396   .     A
C554   O599    1.283   .     A
C554   C556    1.466   .     S
C554   O597    1.277   .     A
C555   C567    1.402   .     A
C555   C564    1.476   .     S
C555   C571    1.419   .     A
C556   C612    1.347   .     S
C556   C623    1.499   .     S
C558   C561    1.452   .     S
C558   C724    1.332   .     S
C558   H745    1.088   .     S
C559   C560    1.436   .     S
C559   C888    1.332   1_545 S
C559   H911    1.086   1_545 S
C560   O600    1.282   .     A
C560   O594    1.282   .     A
C561   O595    1.267   .     A
C561   O601    1.268   .     A
C562   C567    1.387   .     A
C562   C74     1.391   1_556 S
C562   H83     1.083   1_556 S
C563   O591    1.267   .     A
C563   O589    1.277   .     A
C563   C566    1.451   .     S
C564   O592    1.284   .     A
C564   O590    1.285   .     A
C567   H585    1.083   .     S
C568   H579    1.085   .     S
C568   O593    1.221   .     D
C569   H586    1.076   .     S
C570   C571    1.424   .     A
C570   C74     1.417   1_556 S
C570   C77     1.427   1_556 S
C571   C575    1.410   .     A
C573   C574    1.391   .     A
C573   C70     1.400   1_556 S
C573   C77     1.424   1_556 S
C574   H582    1.084   .     S
C574   C575    1.382   .     A
C575   H587    1.080   .     S
H577   C612    1.086   .     S
H580   C888    1.088   1_545 S
H581   C724    1.086   .     S
H583   C70     1.084   1_556 S
O588   Zn604   1.921   .     S
O588   Zn603   1.952   .     S
O588   Zn605   1.933   .     S
O588   Zn602   1.964   .     S
O589   Zn603   1.928   .     S
O590   Zn605   1.945   .     S
O591   Zn604   1.943   .     S
O592   Zn602   1.929   .     S
O594   Zn602   1.927   .     S
O595   Zn605   1.925   .     S
O596   Zn603   1.926   .     S
O597   Zn604   1.942   .     S
O598   Zn605   1.936   .     S
O599   Zn602   1.921   .     S
O600   Zn603   1.934   .     S
O601   Zn604   1.931   .     S
C606   O653    1.271   .     A
C606   O651    1.274   .     A
C606   C612    1.440   .     S
C607   C627    1.412   .     A
C607   C621    1.394   .     A
C607   H639    1.077   .     S
C608   C620    1.387   .     A
C608   H631    1.084   .     S
C608   C621    1.396   .     A
C609   O654    1.283   .     A
C609   C611    1.466   .     S
C609   O652    1.277   .     A
C610   C622    1.402   .     A
C610   C619    1.476   .     S
C610   C626    1.419   .     A
C611   C502    1.347   1_655 S
C611   C513    1.499   1_655 S
C613   C616    1.452   .     S
C613   C779    1.332   .     S
C613   H800    1.088   .     S
C614   C615    1.436   .     S
C614   C943    1.332   1_545 S
C614   H966    1.086   1_545 S
C615   O655    1.282   .     A
C615   O649    1.282   .     A
C616   O650    1.267   .     A
C616   O656    1.268   .     A
C617   C622    1.387   .     A
C617   C129    1.391   1_556 S
C617   H138    1.083   1_556 S
C618   O646    1.267   .     A
C618   O644    1.277   .     A
C618   C621    1.451   .     S
C619   O647    1.284   .     A
C619   O645    1.285   .     A
C622   H640    1.083   .     S
C623   H634    1.085   .     S
C623   O648    1.221   .     D
C624   H641    1.076   .     S
C625   C626    1.424   .     A
C625   C129    1.417   1_556 S
C625   C132    1.427   1_556 S
C626   C630    1.410   .     A
C628   C629    1.391   .     A
C628   C125    1.400   1_556 S
C628   C132    1.424   1_556 S
C629   H637    1.084   .     S
C629   C630    1.382   .     A
C630   H642    1.080   .     S
H632   C502    1.086   1_655 S
H635   C943    1.088   1_545 S
H636   C779    1.086   .     S
H638   C125    1.084   1_556 S
O643   Zn659   1.921   .     S
O643   Zn658   1.952   .     S
O643   Zn660   1.933   .     S
O643   Zn657   1.964   .     S
O644   Zn658   1.928   .     S
O645   Zn660   1.945   .     S
O646   Zn659   1.943   .     S
O647   Zn657   1.929   .     S
O649   Zn657   1.927   .     S
O650   Zn660   1.925   .     S
O651   Zn658   1.926   .     S
O652   Zn659   1.942   .     S
O653   Zn660   1.936   .     S
O654   Zn657   1.921   .     S
O655   Zn658   1.934   .     S
O656   Zn659   1.931   .     S
C661   O708    1.271   .     A
C661   O706    1.274   .     A
C661   C667    1.440   .     S
C662   C682    1.412   .     A
C662   C676    1.394   .     A
C662   H694    1.077   .     S
C663   C675    1.387   .     A
C663   H686    1.084   .     S
C663   C676    1.396   .     A
C664   O709    1.283   .     A
C664   C666    1.466   .     S
C664   O707    1.277   .     A
C665   C677    1.402   .     A
C665   C674    1.476   .     S
C665   C681    1.419   .     A
C666   C722    1.347   .     S
C666   C733    1.499   .     S
C667   C776    1.347   1_455 S
C667   H797    1.086   1_455 S
C668   C671    1.452   .     S
C668   C834    1.332   .     S
C668   H855    1.088   .     S
C669   C670    1.436   .     S
C670   O710    1.282   .     A
C670   O704    1.282   .     A
C671   O705    1.267   .     A
C671   O711    1.268   .     A
C672   C677    1.387   .     A
C672   C184    1.391   1_556 S
C672   H193    1.083   1_556 S
C673   O701    1.267   .     A
C673   O699    1.277   .     A
C673   C676    1.451   .     S
C674   O702    1.284   .     A
C674   O700    1.285   .     A
C677   H695    1.083   .     S
C678   H689    1.085   .     S
C678   O703    1.221   .     D
C678   C776    1.499   1_455 S
C679   H696    1.076   .     S
C680   C681    1.424   .     A
C680   C184    1.417   1_556 S
C680   C187    1.427   1_556 S
C681   C685    1.410   .     A
C683   C684    1.391   .     A
C683   C180    1.400   1_556 S
C683   C187    1.424   1_556 S
C684   H692    1.084   .     S
C684   C685    1.382   .     A
C685   H697    1.080   .     S
H687   C722    1.086   .     S
H691   C834    1.086   .     S
H693   C180    1.084   1_556 S
O698   Zn714   1.921   .     S
O698   Zn713   1.952   .     S
O698   Zn715   1.933   .     S
O698   Zn712   1.964   .     S
O699   Zn713   1.928   .     S
O700   Zn715   1.945   .     S
O701   Zn714   1.943   .     S
O702   Zn712   1.929   .     S
O704   Zn712   1.927   .     S
O705   Zn715   1.925   .     S
O706   Zn713   1.926   .     S
O707   Zn714   1.942   .     S
O708   Zn715   1.936   .     S
O709   Zn712   1.921   .     S
O710   Zn713   1.934   .     S
O711   Zn714   1.931   .     S
C716   O763    1.271   .     A
C716   O761    1.274   .     A
C716   C722    1.440   .     S
C717   C737    1.412   .     A
C717   C731    1.394   .     A
C717   H749    1.077   .     S
C718   C730    1.387   .     A
C718   H741    1.084   .     S
C718   C731    1.396   .     A
C719   O764    1.283   .     A
C719   C721    1.466   .     S
C719   O762    1.277   .     A
C720   C732    1.402   .     A
C720   C729    1.476   .     S
C720   C736    1.419   .     A
C721   C777    1.347   .     S
C721   C788    1.499   .     S
C723   C726    1.452   .     S
C723   C889    1.332   .     S
C723   H910    1.088   .     S
C724   C725    1.436   .     S
C725   O765    1.282   .     A
C725   O759    1.282   .     A
C726   O760    1.267   .     A
C726   O766    1.268   .     A
C727   C732    1.387   .     A
C727   C239    1.391   1_556 S
C727   H248    1.083   1_556 S
C728   O756    1.267   .     A
C728   O754    1.277   .     A
C728   C731    1.451   .     S
C729   O757    1.284   .     A
C729   O755    1.285   .     A
C732   H750    1.083   .     S
C733   H744    1.085   .     S
C733   O758    1.221   .     D
C734   H751    1.076   .     S
C735   C736    1.424   .     A
C735   C239    1.417   1_556 S
C735   C242    1.427   1_556 S
C736   C740    1.410   .     A
C738   C739    1.391   .     A
C738   C235    1.400   1_556 S
C738   C242    1.424   1_556 S
C739   H747    1.084   .     S
C739   C740    1.382   .     A
C740   H752    1.080   .     S
H742   C777    1.086   .     S
H746   C889    1.086   .     S
H748   C235    1.084   1_556 S
O753   Zn769   1.921   .     S
O753   Zn768   1.952   .     S
O753   Zn770   1.933   .     S
O753   Zn767   1.964   .     S
O754   Zn768   1.928   .     S
O755   Zn770   1.945   .     S
O756   Zn769   1.943   .     S
O757   Zn767   1.929   .     S
O759   Zn767   1.927   .     S
O760   Zn770   1.925   .     S
O761   Zn768   1.926   .     S
O762   Zn769   1.942   .     S
O763   Zn770   1.936   .     S
O764   Zn767   1.921   .     S
O765   Zn768   1.934   .     S
O766   Zn769   1.931   .     S
C771   O818    1.271   .     A
C771   O816    1.274   .     A
C771   C777    1.440   .     S
C772   C792    1.412   .     A
C772   C786    1.394   .     A
C772   H804    1.077   .     S
C773   C785    1.387   .     A
C773   H796    1.084   .     S
C773   C786    1.396   .     A
C774   O819    1.283   .     A
C774   C776    1.466   .     S
C774   O817    1.277   .     A
C775   C787    1.402   .     A
C775   C784    1.476   .     S
C775   C791    1.419   .     A
C776   C667    1.347   1_655 S
C776   C678    1.499   1_655 S
C778   C781    1.452   .     S
C778   C944    1.332   .     S
C778   H965    1.088   .     S
C779   C780    1.436   .     S
C780   O820    1.282   .     A
C780   O814    1.282   .     A
C781   O815    1.267   .     A
C781   O821    1.268   .     A
C782   C787    1.387   .     A
C782   C294    1.391   1_556 S
C782   H303    1.083   1_556 S
C783   O811    1.267   .     A
C783   O809    1.277   .     A
C783   C786    1.451   .     S
C784   O812    1.284   .     A
C784   O810    1.285   .     A
C787   H805    1.083   .     S
C788   H799    1.085   .     S
C788   O813    1.221   .     D
C789   H806    1.076   .     S
C790   C791    1.424   .     A
C790   C294    1.417   1_556 S
C790   C297    1.427   1_556 S
C791   C795    1.410   .     A
C793   C794    1.391   .     A
C793   C290    1.400   1_556 S
C793   C297    1.424   1_556 S
C794   H802    1.084   .     S
C794   C795    1.382   .     A
C795   H807    1.080   .     S
H797   C667    1.086   1_655 S
H801   C944    1.086   .     S
H803   C290    1.084   1_556 S
O808   Zn824   1.921   .     S
O808   Zn823   1.952   .     S
O808   Zn825   1.933   .     S
O808   Zn822   1.964   .     S
O809   Zn823   1.928   .     S
O810   Zn825   1.945   .     S
O811   Zn824   1.943   .     S
O812   Zn822   1.929   .     S
O814   Zn822   1.927   .     S
O815   Zn825   1.925   .     S
O816   Zn823   1.926   .     S
O817   Zn824   1.942   .     S
O818   Zn825   1.936   .     S
O819   Zn822   1.921   .     S
O820   Zn823   1.934   .     S
O821   Zn824   1.931   .     S
C826   O873    1.271   .     A
C826   O871    1.274   .     A
C826   C832    1.440   .     S
C827   C847    1.412   .     A
C827   C841    1.394   .     A
C827   H859    1.077   .     S
C828   C840    1.387   .     A
C828   H851    1.084   .     S
C828   C841    1.396   .     A
C829   O874    1.283   .     A
C829   C831    1.466   .     S
C829   O872    1.277   .     A
C830   C842    1.402   .     A
C830   C839    1.476   .     S
C830   C846    1.419   .     A
C831   C887    1.347   .     S
C831   C898    1.499   .     S
C832   C941    1.347   1_455 S
C832   H962    1.086   1_455 S
C833   C836    1.452   .     S
C833   C504    1.332   1_565 S
C833   H525    1.088   1_565 S
C834   C835    1.436   .     S
C835   O875    1.282   .     A
C835   O869    1.282   .     A
C836   O870    1.267   .     A
C836   O876    1.268   .     A
C837   C842    1.387   .     A
C837   C349    1.391   1_556 S
C837   H358    1.083   1_556 S
C838   O866    1.267   .     A
C838   O864    1.277   .     A
C838   C841    1.451   .     S
C839   O867    1.284   .     A
C839   O865    1.285   .     A
C842   H860    1.083   .     S
C843   H854    1.085   .     S
C843   O868    1.221   .     D
C843   C941    1.499   1_455 S
C844   H861    1.076   .     S
C845   C846    1.424   .     A
C845   C349    1.417   1_556 S
C845   C352    1.427   1_556 S
C846   C850    1.410   .     A
C848   C849    1.391   .     A
C848   C345    1.400   1_556 S
C848   C352    1.424   1_556 S
C849   H857    1.084   .     S
C849   C850    1.382   .     A
C850   H862    1.080   .     S
H852   C887    1.086   .     S
H856   C504    1.086   1_565 S
H858   C345    1.084   1_556 S
O863   Zn879   1.921   .     S
O863   Zn878   1.952   .     S
O863   Zn880   1.933   .     S
O863   Zn877   1.964   .     S
O864   Zn878   1.928   .     S
O865   Zn880   1.945   .     S
O866   Zn879   1.943   .     S
O867   Zn877   1.929   .     S
O869   Zn877   1.927   .     S
O870   Zn880   1.925   .     S
O871   Zn878   1.926   .     S
O872   Zn879   1.942   .     S
O873   Zn880   1.936   .     S
O874   Zn877   1.921   .     S
O875   Zn878   1.934   .     S
O876   Zn879   1.931   .     S
C881   O928    1.271   .     A
C881   O926    1.274   .     A
C881   C887    1.440   .     S
C882   C902    1.412   .     A
C882   C896    1.394   .     A
C882   H914    1.077   .     S
C883   C895    1.387   .     A
C883   H906    1.084   .     S
C883   C896    1.396   .     A
C884   O929    1.283   .     A
C884   C886    1.466   .     S
C884   O927    1.277   .     A
C885   C897    1.402   .     A
C885   C894    1.476   .     S
C885   C901    1.419   .     A
C886   C942    1.347   .     S
C886   C953    1.499   .     S
C888   C891    1.452   .     S
C888   C559    1.332   1_565 S
C888   H580    1.088   1_565 S
C889   C890    1.436   .     S
C890   O930    1.282   .     A
C890   O924    1.282   .     A
C891   O925    1.267   .     A
C891   O931    1.268   .     A
C892   C897    1.387   .     A
C892   C404    1.391   1_556 S
C892   H413    1.083   1_556 S
C893   O921    1.267   .     A
C893   O919    1.277   .     A
C893   C896    1.451   .     S
C894   O922    1.284   .     A
C894   O920    1.285   .     A
C897   H915    1.083   .     S
C898   H909    1.085   .     S
C898   O923    1.221   .     D
C899   H916    1.076   .     S
C900   C901    1.424   .     A
C900   C404    1.417   1_556 S
C900   C407    1.427   1_556 S
C901   C905    1.410   .     A
C903   C904    1.391   .     A
C903   C400    1.400   1_556 S
C903   C407    1.424   1_556 S
C904   H912    1.084   .     S
C904   C905    1.382   .     A
C905   H917    1.080   .     S
H907   C942    1.086   .     S
H911   C559    1.086   1_565 S
H913   C400    1.084   1_556 S
O918   Zn934   1.921   .     S
O918   Zn933   1.952   .     S
O918   Zn935   1.933   .     S
O918   Zn932   1.964   .     S
O919   Zn933   1.928   .     S
O920   Zn935   1.945   .     S
O921   Zn934   1.943   .     S
O922   Zn932   1.929   .     S
O924   Zn932   1.927   .     S
O925   Zn935   1.925   .     S
O926   Zn933   1.926   .     S
O927   Zn934   1.942   .     S
O928   Zn935   1.936   .     S
O929   Zn932   1.921   .     S
O930   Zn933   1.934   .     S
O931   Zn934   1.931   .     S
C936   O983    1.271   .     A
C936   O981    1.274   .     A
C936   C942    1.440   .     S
C937   C957    1.412   .     A
C937   C951    1.394   .     A
C937   H969    1.077   .     S
C938   C950    1.387   .     A
C938   H961    1.084   .     S
C938   C951    1.396   .     A
C939   O984    1.283   .     A
C939   C941    1.466   .     S
C939   O982    1.277   .     A
C940   C952    1.402   .     A
C940   C949    1.476   .     S
C940   C956    1.419   .     A
C941   C832    1.347   1_655 S
C941   C843    1.499   1_655 S
C943   C946    1.452   .     S
C943   C614    1.332   1_565 S
C943   H635    1.088   1_565 S
C944   C945    1.436   .     S
C945   O985    1.282   .     A
C945   O979    1.282   .     A
C946   O980    1.267   .     A
C946   O986    1.268   .     A
C947   C952    1.387   .     A
C947   C459    1.391   1_556 S
C947   H468    1.083   1_556 S
C948   O976    1.267   .     A
C948   O974    1.277   .     A
C948   C951    1.451   .     S
C949   O977    1.284   .     A
C949   O975    1.285   .     A
C952   H970    1.083   .     S
C953   H964    1.085   .     S
C953   O978    1.221   .     D
C954   H971    1.076   .     S
C955   C956    1.424   .     A
C955   C459    1.417   1_556 S
C955   C462    1.427   1_556 S
C956   C960    1.410   .     A
C958   C959    1.391   .     A
C958   C455    1.400   1_556 S
C958   C462    1.424   1_556 S
C959   H967    1.084   .     S
C959   C960    1.382   .     A
C960   H972    1.080   .     S
H962   C832    1.086   1_655 S
H966   C614    1.086   1_565 S
H968   C455    1.084   1_556 S
O973   Zn989   1.921   .     S
O973   Zn988   1.952   .     S
O973   Zn990   1.933   .     S
O973   Zn987   1.964   .     S
O974   Zn988   1.928   .     S
O975   Zn990   1.945   .     S
O976   Zn989   1.943   .     S
O977   Zn987   1.929   .     S
O979   Zn987   1.927   .     S
O980   Zn990   1.925   .     S
O981   Zn988   1.926   .     S
O982   Zn989   1.942   .     S
O983   Zn990   1.936   .     S
O984   Zn987   1.921   .     S
O985   Zn988   1.934   .     S
O986   Zn989   1.931   .     S
