data_str_m3_o2_o10_pcu_sym.173
_audit_creation_date              2020-01-03
_audit_creation_method            'Materials Studio'
_symmetry_space_group_name_H-M    'P1'
_symmetry_Int_Tables_number       1
_symmetry_cell_setting            triclinic
loop_
_symmetry_equiv_pos_as_xyz
  x,y,z
_cell_length_a                    25.8694
_cell_length_b                    29.7579
_cell_length_c                    28.5426
_cell_angle_alpha                 89.4437
_cell_angle_beta                  98.2264
_cell_angle_gamma                 91.3551
loop_
_atom_site_label
_atom_site_type_symbol
_atom_site_fract_x
_atom_site_fract_y
_atom_site_fract_z
_atom_site_U_iso_or_equiv
_atom_site_adp_type
_atom_site_occupancy
C1     C     0.16656   0.16412   0.25023   0.00000  Uiso   1.00
C2     C     0.16418   0.33642   0.24939   0.00000  Uiso   1.00
C3     C     0.12792   0.22907   0.04749   0.00000  Uiso   1.00
C4     C     0.18891   0.28431   0.45035   0.00000  Uiso   1.00
C5     C     0.12917   0.22705   0.09679   0.00000  Uiso   1.00
C6     C     0.19096   0.28369   0.40147   0.00000  Uiso   1.00
C7     C     0.20629   0.27212   0.10761   0.00000  Uiso   1.00
C8     C     0.14253   0.21510   0.39450   0.00000  Uiso   1.00
C9     C     0.21165   0.26791   0.05883   0.00000  Uiso   1.00
C10    C     0.14764   0.21062   0.44470   0.00000  Uiso   1.00
C11    C     0.17017   0.24776   0.02724   0.00000  Uiso   1.00
C12    C     0.16935   0.24703   0.47363   0.00000  Uiso   1.00
C13    C     0.06730   0.24880   0.23797   0.00000  Uiso   1.00
C14    C     0.26598   0.25102   0.26213   0.00000  Uiso   1.00
C15    C     0.01300   0.24118   0.23365   0.00000  Uiso   1.00
C16    C     0.32029   0.25829   0.26697   0.00000  Uiso   1.00
C17    C     0.19234   0.04272   0.27008   0.00000  Uiso   1.00
C18    C     0.13856   0.45616   0.20745   0.00000  Uiso   1.00
C19    C     0.20143   0.08899   0.26815   0.00000  Uiso   1.00
C20    C     0.14722   0.41005   0.20546   0.00000  Uiso   1.00
C21    C     0.15998   0.11642   0.25041   0.00000  Uiso   1.00
C22    C     0.15390   0.38463   0.24807   0.00000  Uiso   1.00
C23    C     0.10994   0.09903   0.23551   0.00000  Uiso   1.00
C24    C     0.14751   0.40501   0.29096   0.00000  Uiso   1.00
C25    C     0.09956   0.05304   0.23741   0.00000  Uiso   1.00
C26    C     0.13778   0.45043   0.29317   0.00000  Uiso   1.00
C27    C     0.14150   0.02488   0.25476   0.00000  Uiso   1.00
C28    C     0.13543   0.47625   0.25142   0.00000  Uiso   1.00
H29    H     0.07882   0.12189   0.22298   0.00000  Uiso   1.00
H30    H     0.15024   0.38554   0.32344   0.00000  Uiso   1.00
H31    H     0.09457   0.21431   0.02527   0.00000  Uiso   1.00
H32    H     0.20410   0.31370   0.47025   0.00000  Uiso   1.00
N33    N     0.16667   0.24999   0.12624   0.00000  Uiso   1.00
N34    N     0.16667   0.25001   0.37377   0.00000  Uiso   1.00
O35    O     0.16667   0.18454   0.28974   0.00000  Uiso   1.00
O36    O     0.16666   0.31547   0.21026   0.00000  Uiso   1.00
O37    O     0.16667   0.18453   0.21026   0.00000  Uiso   1.00
O38    O     0.16666   0.31547   0.28974   0.00000  Uiso   1.00
O39    O     0.09058   0.25000   0.28045   0.00000  Uiso   1.00
O40    O     0.24275   0.25000   0.21956   0.00000  Uiso   1.00
O41    O     0.09058   0.25000   0.20097   0.00000  Uiso   1.00
O42    O     0.24275   0.25001   0.29904   0.00000  Uiso   1.00
Zn43   Zn    0.16667   0.25001   0.30307   0.00000  Uiso   1.00
Zn44   Zn    0.16667   0.25000   0.19693   0.00000  Uiso   1.00
C45    C     0.32388   0.20752   0.19941   0.00000  Uiso   1.00
N46    N     0.30509   0.18079   0.17266   0.00000  Uiso   1.00
C47    C     0.00883   0.29092   0.30260   0.00000  Uiso   1.00
N48    N     0.02618   0.31685   0.33087   0.00000  Uiso   1.00
C49    C     0.23555   0.01341   0.28620   0.00000  Uiso   1.00
N50    N     0.26992   0.49005   0.29907   0.00000  Uiso   1.00
C51    C     0.13569   0.48353   0.16470   0.00000  Uiso   1.00
N52    N     0.13341   0.00535   0.13072   0.00000  Uiso   1.00
C53    C     0.25319   0.10833   0.28304   0.00000  Uiso   1.00
N54    N     0.29442   0.12378   0.29482   0.00000  Uiso   1.00
C55    C     0.14941   0.39004   0.15962   0.00000  Uiso   1.00
N56    N     0.15091   0.37438   0.12288   0.00000  Uiso   1.00
C57    C     0.04520   0.03588   0.22072   0.00000  Uiso   1.00
O58    O     0.01259   0.06137   0.20068   0.00000  Uiso   1.00
O59    O     0.03065   0.49108   0.22806   0.00000  Uiso   1.00
H60    H     0.32619   0.48406   0.21488   0.00000  Uiso   1.00
C61    C     0.13473   0.47064   0.34028   0.00000  Uiso   1.00
O62    O     0.16444   0.45818   0.37486   0.00000  Uiso   1.00
O63    O     0.09824   0.00321   0.34635   0.00000  Uiso   1.00
H64    H     0.07111   0.00734   0.31752   0.00000  Uiso   1.00
C65    C     0.09301   0.19717   0.11572   0.00000  Uiso   1.00
N66    N     0.06444   0.17210   0.13041   0.00000  Uiso   1.00
C67    C     0.22060   0.31865   0.38160   0.00000  Uiso   1.00
N68    N     0.24494   0.34681   0.36616   0.00000  Uiso   1.00
C69    C     0.24332   0.29957   0.13811   0.00000  Uiso   1.00
N70    N     0.27305   0.32203   0.16208   0.00000  Uiso   1.00
C71    C     0.11135   0.18267   0.36486   0.00000  Uiso   1.00
N72    N     0.08583   0.15662   0.34152   0.00000  Uiso   1.00
C73    C     0.26212   0.28086   0.04253   0.00000  Uiso   1.00
O74    O     0.28274   0.25482   0.01836   0.00000  Uiso   1.00
O75    O     0.28599   0.32261   0.05463   0.00000  Uiso   1.00
H76    H     0.32010   0.32724   0.04142   0.00000  Uiso   1.00
C77    C     0.13438   0.16679   0.46607   0.00000  Uiso   1.00
O78    O     0.16545   0.14991   0.49725   0.00000  Uiso   1.00
O79    O     0.08654   0.14497   0.45086   0.00000  Uiso   1.00
H80    H     0.08228   0.11556   0.46827   0.00000  Uiso   1.00
C81    C     0.49989   0.16412   0.25023   0.00000  Uiso   1.00
C82    C     0.49751   0.33642   0.24939   0.00000  Uiso   1.00
C83    C     0.46126   0.22907   0.04749   0.00000  Uiso   1.00
C84    C     0.52224   0.28431   0.45035   0.00000  Uiso   1.00
C85    C     0.46250   0.22705   0.09679   0.00000  Uiso   1.00
C86    C     0.52429   0.28369   0.40147   0.00000  Uiso   1.00
C87    C     0.53963   0.27212   0.10761   0.00000  Uiso   1.00
C88    C     0.47587   0.21510   0.39450   0.00000  Uiso   1.00
C89    C     0.54499   0.26791   0.05883   0.00000  Uiso   1.00
C90    C     0.48098   0.21062   0.44470   0.00000  Uiso   1.00
C91    C     0.50350   0.24776   0.02724   0.00000  Uiso   1.00
C92    C     0.50269   0.24703   0.47363   0.00000  Uiso   1.00
C93    C     0.40063   0.24880   0.23797   0.00000  Uiso   1.00
C94    C     0.59932   0.25102   0.26213   0.00000  Uiso   1.00
C95    C     0.34633   0.24118   0.23365   0.00000  Uiso   1.00
C96    C     0.65362   0.25829   0.26697   0.00000  Uiso   1.00
C97    C     0.52567   0.04272   0.27008   0.00000  Uiso   1.00
C98    C     0.47189   0.45616   0.20745   0.00000  Uiso   1.00
C99    C     0.53476   0.08899   0.26815   0.00000  Uiso   1.00
C100   C     0.48055   0.41005   0.20546   0.00000  Uiso   1.00
C101   C     0.49331   0.11642   0.25041   0.00000  Uiso   1.00
C102   C     0.48723   0.38463   0.24807   0.00000  Uiso   1.00
C103   C     0.44328   0.09903   0.23551   0.00000  Uiso   1.00
C104   C     0.48085   0.40501   0.29096   0.00000  Uiso   1.00
C105   C     0.43290   0.05304   0.23741   0.00000  Uiso   1.00
C106   C     0.47111   0.45043   0.29317   0.00000  Uiso   1.00
C107   C     0.47483   0.02488   0.25476   0.00000  Uiso   1.00
C108   C     0.46876   0.47625   0.25142   0.00000  Uiso   1.00
H109   H     0.41216   0.12189   0.22298   0.00000  Uiso   1.00
H110   H     0.48357   0.38554   0.32344   0.00000  Uiso   1.00
H111   H     0.42790   0.21431   0.02527   0.00000  Uiso   1.00
H112   H     0.53744   0.31370   0.47025   0.00000  Uiso   1.00
N113   N     0.50000   0.24999   0.12624   0.00000  Uiso   1.00
N114   N     0.50000   0.25001   0.37377   0.00000  Uiso   1.00
O115   O     0.50000   0.18454   0.28974   0.00000  Uiso   1.00
O116   O     0.50000   0.31547   0.21026   0.00000  Uiso   1.00
O117   O     0.50000   0.18453   0.21026   0.00000  Uiso   1.00
O118   O     0.50000   0.31547   0.28974   0.00000  Uiso   1.00
O119   O     0.42392   0.25000   0.28045   0.00000  Uiso   1.00
O120   O     0.57608   0.25000   0.21956   0.00000  Uiso   1.00
O121   O     0.42392   0.25000   0.20097   0.00000  Uiso   1.00
O122   O     0.57608   0.25001   0.29904   0.00000  Uiso   1.00
Zn123  Zn    0.50000   0.25001   0.30307   0.00000  Uiso   1.00
Zn124  Zn    0.50000   0.25000   0.19693   0.00000  Uiso   1.00
C125   C     0.65721   0.20752   0.19941   0.00000  Uiso   1.00
N126   N     0.63843   0.18079   0.17266   0.00000  Uiso   1.00
C127   C     0.34216   0.29092   0.30260   0.00000  Uiso   1.00
N128   N     0.35951   0.31685   0.33087   0.00000  Uiso   1.00
C129   C     0.56888   0.01341   0.28620   0.00000  Uiso   1.00
N130   N     0.60326   0.49005   0.29907   0.00000  Uiso   1.00
C131   C     0.46903   0.48353   0.16470   0.00000  Uiso   1.00
N132   N     0.46675   0.00535   0.13072   0.00000  Uiso   1.00
C133   C     0.58652   0.10833   0.28304   0.00000  Uiso   1.00
N134   N     0.62775   0.12378   0.29482   0.00000  Uiso   1.00
C135   C     0.48275   0.39004   0.15962   0.00000  Uiso   1.00
N136   N     0.48424   0.37438   0.12288   0.00000  Uiso   1.00
C137   C     0.37853   0.03588   0.22072   0.00000  Uiso   1.00
O138   O     0.34592   0.06137   0.20068   0.00000  Uiso   1.00
O139   O     0.36399   0.49108   0.22806   0.00000  Uiso   1.00
H140   H     0.65952   0.48406   0.21488   0.00000  Uiso   1.00
C141   C     0.46806   0.47064   0.34028   0.00000  Uiso   1.00
O142   O     0.49777   0.45818   0.37486   0.00000  Uiso   1.00
O143   O     0.43157   0.00321   0.34635   0.00000  Uiso   1.00
H144   H     0.40445   0.00734   0.31752   0.00000  Uiso   1.00
C145   C     0.42635   0.19717   0.11572   0.00000  Uiso   1.00
N146   N     0.39777   0.17210   0.13041   0.00000  Uiso   1.00
C147   C     0.55394   0.31865   0.38160   0.00000  Uiso   1.00
N148   N     0.57827   0.34681   0.36616   0.00000  Uiso   1.00
C149   C     0.57665   0.29957   0.13811   0.00000  Uiso   1.00
N150   N     0.60638   0.32203   0.16208   0.00000  Uiso   1.00
C151   C     0.44469   0.18267   0.36486   0.00000  Uiso   1.00
N152   N     0.41916   0.15662   0.34152   0.00000  Uiso   1.00
C153   C     0.59545   0.28086   0.04253   0.00000  Uiso   1.00
O154   O     0.61607   0.25482   0.01836   0.00000  Uiso   1.00
O155   O     0.61932   0.32261   0.05463   0.00000  Uiso   1.00
H156   H     0.65343   0.32724   0.04142   0.00000  Uiso   1.00
C157   C     0.46771   0.16679   0.46607   0.00000  Uiso   1.00
O158   O     0.49878   0.14991   0.49725   0.00000  Uiso   1.00
O159   O     0.41988   0.14497   0.45086   0.00000  Uiso   1.00
H160   H     0.41561   0.11556   0.46827   0.00000  Uiso   1.00
C161   C     0.83323   0.16412   0.25023   0.00000  Uiso   1.00
C162   C     0.83084   0.33642   0.24939   0.00000  Uiso   1.00
C163   C     0.79459   0.22907   0.04749   0.00000  Uiso   1.00
C164   C     0.85558   0.28431   0.45035   0.00000  Uiso   1.00
C165   C     0.79584   0.22705   0.09679   0.00000  Uiso   1.00
C166   C     0.85762   0.28369   0.40147   0.00000  Uiso   1.00
C167   C     0.87296   0.27212   0.10761   0.00000  Uiso   1.00
C168   C     0.80920   0.21510   0.39450   0.00000  Uiso   1.00
C169   C     0.87832   0.26791   0.05883   0.00000  Uiso   1.00
C170   C     0.81431   0.21062   0.44470   0.00000  Uiso   1.00
C171   C     0.83683   0.24776   0.02724   0.00000  Uiso   1.00
C172   C     0.83602   0.24703   0.47363   0.00000  Uiso   1.00
C173   C     0.73397   0.24880   0.23797   0.00000  Uiso   1.00
C174   C     0.93265   0.25102   0.26213   0.00000  Uiso   1.00
C175   C     0.67966   0.24118   0.23365   0.00000  Uiso   1.00
C176   C     0.98696   0.25829   0.26697   0.00000  Uiso   1.00
C177   C     0.85901   0.04272   0.27008   0.00000  Uiso   1.00
C178   C     0.80523   0.45616   0.20745   0.00000  Uiso   1.00
C179   C     0.86810   0.08899   0.26815   0.00000  Uiso   1.00
C180   C     0.81388   0.41005   0.20546   0.00000  Uiso   1.00
C181   C     0.82664   0.11642   0.25041   0.00000  Uiso   1.00
C182   C     0.82057   0.38463   0.24807   0.00000  Uiso   1.00
C183   C     0.77661   0.09903   0.23551   0.00000  Uiso   1.00
C184   C     0.81418   0.40501   0.29096   0.00000  Uiso   1.00
C185   C     0.76623   0.05304   0.23741   0.00000  Uiso   1.00
C186   C     0.80444   0.45043   0.29317   0.00000  Uiso   1.00
C187   C     0.80817   0.02488   0.25476   0.00000  Uiso   1.00
C188   C     0.80209   0.47625   0.25142   0.00000  Uiso   1.00
H189   H     0.74549   0.12189   0.22298   0.00000  Uiso   1.00
H190   H     0.81690   0.38554   0.32344   0.00000  Uiso   1.00
H191   H     0.76124   0.21431   0.02527   0.00000  Uiso   1.00
H192   H     0.87077   0.31370   0.47025   0.00000  Uiso   1.00
N193   N     0.83333   0.24999   0.12624   0.00000  Uiso   1.00
N194   N     0.83333   0.25001   0.37377   0.00000  Uiso   1.00
O195   O     0.83334   0.18454   0.28974   0.00000  Uiso   1.00
O196   O     0.83333   0.31547   0.21026   0.00000  Uiso   1.00
O197   O     0.83334   0.18453   0.21026   0.00000  Uiso   1.00
O198   O     0.83333   0.31547   0.28974   0.00000  Uiso   1.00
O199   O     0.75725   0.25000   0.28045   0.00000  Uiso   1.00
O200   O     0.90942   0.25000   0.21956   0.00000  Uiso   1.00
O201   O     0.75725   0.25000   0.20097   0.00000  Uiso   1.00
O202   O     0.90942   0.25001   0.29904   0.00000  Uiso   1.00
Zn203  Zn    0.83333   0.25001   0.30307   0.00000  Uiso   1.00
Zn204  Zn    0.83333   0.25000   0.19693   0.00000  Uiso   1.00
C205   C     0.99054   0.20752   0.19941   0.00000  Uiso   1.00
N206   N     0.97176   0.18079   0.17266   0.00000  Uiso   1.00
C207   C     0.67549   0.29092   0.30260   0.00000  Uiso   1.00
N208   N     0.69284   0.31685   0.33087   0.00000  Uiso   1.00
C209   C     0.90222   0.01341   0.28620   0.00000  Uiso   1.00
N210   N     0.93659   0.49005   0.29907   0.00000  Uiso   1.00
C211   C     0.80236   0.48353   0.16470   0.00000  Uiso   1.00
N212   N     0.80008   0.00535   0.13072   0.00000  Uiso   1.00
C213   C     0.91985   0.10833   0.28304   0.00000  Uiso   1.00
N214   N     0.96109   0.12378   0.29482   0.00000  Uiso   1.00
C215   C     0.81608   0.39004   0.15962   0.00000  Uiso   1.00
N216   N     0.81758   0.37438   0.12288   0.00000  Uiso   1.00
C217   C     0.71186   0.03588   0.22072   0.00000  Uiso   1.00
O218   O     0.67926   0.06137   0.20068   0.00000  Uiso   1.00
O219   O     0.69732   0.49108   0.22806   0.00000  Uiso   1.00
H220   H     0.99285   0.48406   0.21488   0.00000  Uiso   1.00
C221   C     0.80140   0.47064   0.34028   0.00000  Uiso   1.00
O222   O     0.83110   0.45818   0.37486   0.00000  Uiso   1.00
O223   O     0.76490   0.00321   0.34635   0.00000  Uiso   1.00
H224   H     0.73778   0.00734   0.31752   0.00000  Uiso   1.00
C225   C     0.75968   0.19717   0.11572   0.00000  Uiso   1.00
N226   N     0.73110   0.17210   0.13041   0.00000  Uiso   1.00
C227   C     0.88727   0.31865   0.38160   0.00000  Uiso   1.00
N228   N     0.91161   0.34681   0.36616   0.00000  Uiso   1.00
C229   C     0.90998   0.29957   0.13811   0.00000  Uiso   1.00
N230   N     0.93972   0.32203   0.16208   0.00000  Uiso   1.00
C231   C     0.77802   0.18267   0.36486   0.00000  Uiso   1.00
N232   N     0.75249   0.15662   0.34152   0.00000  Uiso   1.00
C233   C     0.92878   0.28086   0.04253   0.00000  Uiso   1.00
O234   O     0.94940   0.25482   0.01836   0.00000  Uiso   1.00
O235   O     0.95266   0.32261   0.05463   0.00000  Uiso   1.00
H236   H     0.98676   0.32724   0.04142   0.00000  Uiso   1.00
C237   C     0.80105   0.16679   0.46607   0.00000  Uiso   1.00
O238   O     0.83211   0.14991   0.49725   0.00000  Uiso   1.00
O239   O     0.75321   0.14497   0.45086   0.00000  Uiso   1.00
H240   H     0.74894   0.11556   0.46827   0.00000  Uiso   1.00
C241   C     0.16656   0.66412   0.25023   0.00000  Uiso   1.00
C242   C     0.16418   0.83642   0.24939   0.00000  Uiso   1.00
C243   C     0.12792   0.72907   0.04749   0.00000  Uiso   1.00
C244   C     0.18891   0.78431   0.45035   0.00000  Uiso   1.00
C245   C     0.12917   0.72705   0.09679   0.00000  Uiso   1.00
C246   C     0.19096   0.78369   0.40147   0.00000  Uiso   1.00
C247   C     0.20629   0.77212   0.10761   0.00000  Uiso   1.00
C248   C     0.14253   0.71510   0.39450   0.00000  Uiso   1.00
C249   C     0.21165   0.76791   0.05883   0.00000  Uiso   1.00
C250   C     0.14764   0.71062   0.44470   0.00000  Uiso   1.00
C251   C     0.17017   0.74776   0.02724   0.00000  Uiso   1.00
C252   C     0.16935   0.74703   0.47363   0.00000  Uiso   1.00
C253   C     0.06730   0.74880   0.23797   0.00000  Uiso   1.00
C254   C     0.26598   0.75102   0.26213   0.00000  Uiso   1.00
C255   C     0.01300   0.74118   0.23365   0.00000  Uiso   1.00
C256   C     0.32029   0.75829   0.26697   0.00000  Uiso   1.00
C257   C     0.19234   0.54272   0.27008   0.00000  Uiso   1.00
C258   C     0.13856   0.95616   0.20745   0.00000  Uiso   1.00
C259   C     0.20143   0.58899   0.26815   0.00000  Uiso   1.00
C260   C     0.14722   0.91005   0.20546   0.00000  Uiso   1.00
C261   C     0.15998   0.61642   0.25041   0.00000  Uiso   1.00
C262   C     0.15390   0.88463   0.24807   0.00000  Uiso   1.00
C263   C     0.10994   0.59903   0.23551   0.00000  Uiso   1.00
C264   C     0.14751   0.90501   0.29096   0.00000  Uiso   1.00
C265   C     0.09956   0.55304   0.23741   0.00000  Uiso   1.00
C266   C     0.13778   0.95043   0.29317   0.00000  Uiso   1.00
C267   C     0.14150   0.52488   0.25476   0.00000  Uiso   1.00
C268   C     0.13543   0.97625   0.25142   0.00000  Uiso   1.00
H269   H     0.07882   0.62189   0.22298   0.00000  Uiso   1.00
H270   H     0.15024   0.88554   0.32344   0.00000  Uiso   1.00
H271   H     0.09457   0.71431   0.02527   0.00000  Uiso   1.00
H272   H     0.20410   0.81370   0.47025   0.00000  Uiso   1.00
N273   N     0.16667   0.74999   0.12624   0.00000  Uiso   1.00
N274   N     0.16667   0.75001   0.37377   0.00000  Uiso   1.00
O275   O     0.16667   0.68454   0.28974   0.00000  Uiso   1.00
O276   O     0.16666   0.81547   0.21026   0.00000  Uiso   1.00
O277   O     0.16667   0.68453   0.21026   0.00000  Uiso   1.00
O278   O     0.16666   0.81547   0.28974   0.00000  Uiso   1.00
O279   O     0.09058   0.75000   0.28045   0.00000  Uiso   1.00
O280   O     0.24275   0.75000   0.21956   0.00000  Uiso   1.00
O281   O     0.09058   0.75000   0.20097   0.00000  Uiso   1.00
O282   O     0.24275   0.75001   0.29904   0.00000  Uiso   1.00
Zn283  Zn    0.16667   0.75001   0.30307   0.00000  Uiso   1.00
Zn284  Zn    0.16667   0.75000   0.19693   0.00000  Uiso   1.00
C285   C     0.32388   0.70752   0.19941   0.00000  Uiso   1.00
N286   N     0.30509   0.68079   0.17266   0.00000  Uiso   1.00
C287   C     0.00883   0.79092   0.30260   0.00000  Uiso   1.00
N288   N     0.02618   0.81685   0.33087   0.00000  Uiso   1.00
C289   C     0.23555   0.51341   0.28620   0.00000  Uiso   1.00
N290   N     0.26992   0.99005   0.29907   0.00000  Uiso   1.00
C291   C     0.13569   0.98353   0.16470   0.00000  Uiso   1.00
N292   N     0.13341   0.50535   0.13072   0.00000  Uiso   1.00
C293   C     0.25319   0.60833   0.28304   0.00000  Uiso   1.00
N294   N     0.29442   0.62378   0.29482   0.00000  Uiso   1.00
C295   C     0.14941   0.89004   0.15962   0.00000  Uiso   1.00
N296   N     0.15091   0.87438   0.12288   0.00000  Uiso   1.00
C297   C     0.04520   0.53588   0.22072   0.00000  Uiso   1.00
O298   O     0.01259   0.56137   0.20068   0.00000  Uiso   1.00
O299   O     0.03065   0.99108   0.22806   0.00000  Uiso   1.00
H300   H     0.32619   0.98406   0.21488   0.00000  Uiso   1.00
C301   C     0.13473   0.97064   0.34028   0.00000  Uiso   1.00
O302   O     0.16444   0.95818   0.37486   0.00000  Uiso   1.00
O303   O     0.09824   0.50321   0.34635   0.00000  Uiso   1.00
H304   H     0.07111   0.50734   0.31752   0.00000  Uiso   1.00
C305   C     0.09301   0.69717   0.11572   0.00000  Uiso   1.00
N306   N     0.06444   0.67210   0.13041   0.00000  Uiso   1.00
C307   C     0.22060   0.81865   0.38160   0.00000  Uiso   1.00
N308   N     0.24494   0.84681   0.36616   0.00000  Uiso   1.00
C309   C     0.24332   0.79957   0.13811   0.00000  Uiso   1.00
N310   N     0.27305   0.82203   0.16208   0.00000  Uiso   1.00
C311   C     0.11135   0.68267   0.36486   0.00000  Uiso   1.00
N312   N     0.08583   0.65662   0.34152   0.00000  Uiso   1.00
C313   C     0.26212   0.78086   0.04253   0.00000  Uiso   1.00
O314   O     0.28274   0.75482   0.01836   0.00000  Uiso   1.00
O315   O     0.28599   0.82261   0.05463   0.00000  Uiso   1.00
H316   H     0.32010   0.82724   0.04142   0.00000  Uiso   1.00
C317   C     0.13438   0.66679   0.46607   0.00000  Uiso   1.00
O318   O     0.16545   0.64991   0.49725   0.00000  Uiso   1.00
O319   O     0.08654   0.64497   0.45086   0.00000  Uiso   1.00
H320   H     0.08228   0.61556   0.46827   0.00000  Uiso   1.00
C321   C     0.49989   0.66412   0.25023   0.00000  Uiso   1.00
C322   C     0.49751   0.83642   0.24939   0.00000  Uiso   1.00
C323   C     0.46126   0.72907   0.04749   0.00000  Uiso   1.00
C324   C     0.52224   0.78431   0.45035   0.00000  Uiso   1.00
C325   C     0.46250   0.72705   0.09679   0.00000  Uiso   1.00
C326   C     0.52429   0.78369   0.40147   0.00000  Uiso   1.00
C327   C     0.53963   0.77212   0.10761   0.00000  Uiso   1.00
C328   C     0.47587   0.71510   0.39450   0.00000  Uiso   1.00
C329   C     0.54499   0.76791   0.05883   0.00000  Uiso   1.00
C330   C     0.48098   0.71062   0.44470   0.00000  Uiso   1.00
C331   C     0.50350   0.74776   0.02724   0.00000  Uiso   1.00
C332   C     0.50269   0.74703   0.47363   0.00000  Uiso   1.00
C333   C     0.40063   0.74880   0.23797   0.00000  Uiso   1.00
C334   C     0.59932   0.75102   0.26213   0.00000  Uiso   1.00
C335   C     0.34633   0.74118   0.23365   0.00000  Uiso   1.00
C336   C     0.65362   0.75829   0.26697   0.00000  Uiso   1.00
C337   C     0.52567   0.54272   0.27008   0.00000  Uiso   1.00
C338   C     0.47189   0.95616   0.20745   0.00000  Uiso   1.00
C339   C     0.53476   0.58899   0.26815   0.00000  Uiso   1.00
C340   C     0.48055   0.91005   0.20546   0.00000  Uiso   1.00
C341   C     0.49331   0.61642   0.25041   0.00000  Uiso   1.00
C342   C     0.48723   0.88463   0.24807   0.00000  Uiso   1.00
C343   C     0.44328   0.59903   0.23551   0.00000  Uiso   1.00
C344   C     0.48085   0.90501   0.29096   0.00000  Uiso   1.00
C345   C     0.43290   0.55304   0.23741   0.00000  Uiso   1.00
C346   C     0.47111   0.95043   0.29317   0.00000  Uiso   1.00
C347   C     0.47483   0.52488   0.25476   0.00000  Uiso   1.00
C348   C     0.46876   0.97625   0.25142   0.00000  Uiso   1.00
H349   H     0.41216   0.62189   0.22298   0.00000  Uiso   1.00
H350   H     0.48357   0.88554   0.32344   0.00000  Uiso   1.00
H351   H     0.42790   0.71431   0.02527   0.00000  Uiso   1.00
H352   H     0.53744   0.81370   0.47025   0.00000  Uiso   1.00
N353   N     0.50000   0.74999   0.12624   0.00000  Uiso   1.00
N354   N     0.50000   0.75001   0.37377   0.00000  Uiso   1.00
O355   O     0.50000   0.68454   0.28974   0.00000  Uiso   1.00
O356   O     0.50000   0.81547   0.21026   0.00000  Uiso   1.00
O357   O     0.50000   0.68453   0.21026   0.00000  Uiso   1.00
O358   O     0.50000   0.81547   0.28974   0.00000  Uiso   1.00
O359   O     0.42392   0.75000   0.28045   0.00000  Uiso   1.00
O360   O     0.57608   0.75000   0.21956   0.00000  Uiso   1.00
O361   O     0.42392   0.75000   0.20097   0.00000  Uiso   1.00
O362   O     0.57608   0.75001   0.29904   0.00000  Uiso   1.00
Zn363  Zn    0.50000   0.75001   0.30307   0.00000  Uiso   1.00
Zn364  Zn    0.50000   0.75000   0.19693   0.00000  Uiso   1.00
C365   C     0.65721   0.70752   0.19941   0.00000  Uiso   1.00
N366   N     0.63843   0.68079   0.17266   0.00000  Uiso   1.00
C367   C     0.34216   0.79092   0.30260   0.00000  Uiso   1.00
N368   N     0.35951   0.81685   0.33087   0.00000  Uiso   1.00
C369   C     0.56888   0.51341   0.28620   0.00000  Uiso   1.00
N370   N     0.60326   0.99005   0.29907   0.00000  Uiso   1.00
C371   C     0.46903   0.98353   0.16470   0.00000  Uiso   1.00
N372   N     0.46675   0.50535   0.13072   0.00000  Uiso   1.00
C373   C     0.58652   0.60833   0.28304   0.00000  Uiso   1.00
N374   N     0.62775   0.62378   0.29482   0.00000  Uiso   1.00
C375   C     0.48275   0.89004   0.15962   0.00000  Uiso   1.00
N376   N     0.48424   0.87438   0.12288   0.00000  Uiso   1.00
C377   C     0.37853   0.53588   0.22072   0.00000  Uiso   1.00
O378   O     0.34592   0.56137   0.20068   0.00000  Uiso   1.00
O379   O     0.36399   0.99108   0.22806   0.00000  Uiso   1.00
H380   H     0.65952   0.98406   0.21488   0.00000  Uiso   1.00
C381   C     0.46806   0.97064   0.34028   0.00000  Uiso   1.00
O382   O     0.49777   0.95818   0.37486   0.00000  Uiso   1.00
O383   O     0.43157   0.50321   0.34635   0.00000  Uiso   1.00
H384   H     0.40445   0.50734   0.31752   0.00000  Uiso   1.00
C385   C     0.42635   0.69717   0.11572   0.00000  Uiso   1.00
N386   N     0.39777   0.67210   0.13041   0.00000  Uiso   1.00
C387   C     0.55394   0.81865   0.38160   0.00000  Uiso   1.00
N388   N     0.57827   0.84681   0.36616   0.00000  Uiso   1.00
C389   C     0.57665   0.79957   0.13811   0.00000  Uiso   1.00
N390   N     0.60638   0.82203   0.16208   0.00000  Uiso   1.00
C391   C     0.44469   0.68267   0.36486   0.00000  Uiso   1.00
N392   N     0.41916   0.65662   0.34152   0.00000  Uiso   1.00
C393   C     0.59545   0.78086   0.04253   0.00000  Uiso   1.00
O394   O     0.61607   0.75482   0.01836   0.00000  Uiso   1.00
O395   O     0.61932   0.82261   0.05463   0.00000  Uiso   1.00
H396   H     0.65343   0.82724   0.04142   0.00000  Uiso   1.00
C397   C     0.46771   0.66679   0.46607   0.00000  Uiso   1.00
O398   O     0.49878   0.64991   0.49725   0.00000  Uiso   1.00
O399   O     0.41988   0.64497   0.45086   0.00000  Uiso   1.00
H400   H     0.41561   0.61556   0.46827   0.00000  Uiso   1.00
C401   C     0.83323   0.66412   0.25023   0.00000  Uiso   1.00
C402   C     0.83084   0.83642   0.24939   0.00000  Uiso   1.00
C403   C     0.79459   0.72907   0.04749   0.00000  Uiso   1.00
C404   C     0.85558   0.78431   0.45035   0.00000  Uiso   1.00
C405   C     0.79584   0.72705   0.09679   0.00000  Uiso   1.00
C406   C     0.85762   0.78369   0.40147   0.00000  Uiso   1.00
C407   C     0.87296   0.77212   0.10761   0.00000  Uiso   1.00
C408   C     0.80920   0.71510   0.39450   0.00000  Uiso   1.00
C409   C     0.87832   0.76791   0.05883   0.00000  Uiso   1.00
C410   C     0.81431   0.71062   0.44470   0.00000  Uiso   1.00
C411   C     0.83683   0.74776   0.02724   0.00000  Uiso   1.00
C412   C     0.83602   0.74703   0.47363   0.00000  Uiso   1.00
C413   C     0.73397   0.74880   0.23797   0.00000  Uiso   1.00
C414   C     0.93265   0.75102   0.26213   0.00000  Uiso   1.00
C415   C     0.67966   0.74118   0.23365   0.00000  Uiso   1.00
C416   C     0.98696   0.75829   0.26697   0.00000  Uiso   1.00
C417   C     0.85901   0.54272   0.27008   0.00000  Uiso   1.00
C418   C     0.80523   0.95616   0.20745   0.00000  Uiso   1.00
C419   C     0.86810   0.58899   0.26815   0.00000  Uiso   1.00
C420   C     0.81388   0.91005   0.20546   0.00000  Uiso   1.00
C421   C     0.82664   0.61642   0.25041   0.00000  Uiso   1.00
C422   C     0.82057   0.88463   0.24807   0.00000  Uiso   1.00
C423   C     0.77661   0.59903   0.23551   0.00000  Uiso   1.00
C424   C     0.81418   0.90501   0.29096   0.00000  Uiso   1.00
C425   C     0.76623   0.55304   0.23741   0.00000  Uiso   1.00
C426   C     0.80444   0.95043   0.29317   0.00000  Uiso   1.00
C427   C     0.80817   0.52488   0.25476   0.00000  Uiso   1.00
C428   C     0.80209   0.97625   0.25142   0.00000  Uiso   1.00
H429   H     0.74549   0.62189   0.22298   0.00000  Uiso   1.00
H430   H     0.81690   0.88554   0.32344   0.00000  Uiso   1.00
H431   H     0.76124   0.71431   0.02527   0.00000  Uiso   1.00
H432   H     0.87077   0.81370   0.47025   0.00000  Uiso   1.00
N433   N     0.83333   0.74999   0.12624   0.00000  Uiso   1.00
N434   N     0.83333   0.75001   0.37377   0.00000  Uiso   1.00
O435   O     0.83334   0.68454   0.28974   0.00000  Uiso   1.00
O436   O     0.83333   0.81547   0.21026   0.00000  Uiso   1.00
O437   O     0.83334   0.68453   0.21026   0.00000  Uiso   1.00
O438   O     0.83333   0.81547   0.28974   0.00000  Uiso   1.00
O439   O     0.75725   0.75000   0.28045   0.00000  Uiso   1.00
O440   O     0.90942   0.75000   0.21956   0.00000  Uiso   1.00
O441   O     0.75725   0.75000   0.20097   0.00000  Uiso   1.00
O442   O     0.90942   0.75001   0.29904   0.00000  Uiso   1.00
Zn443  Zn    0.83333   0.75001   0.30307   0.00000  Uiso   1.00
Zn444  Zn    0.83333   0.75000   0.19693   0.00000  Uiso   1.00
C445   C     0.99054   0.70752   0.19941   0.00000  Uiso   1.00
N446   N     0.97176   0.68079   0.17266   0.00000  Uiso   1.00
C447   C     0.67549   0.79092   0.30260   0.00000  Uiso   1.00
N448   N     0.69284   0.81685   0.33087   0.00000  Uiso   1.00
C449   C     0.90222   0.51341   0.28620   0.00000  Uiso   1.00
N450   N     0.93659   0.99005   0.29907   0.00000  Uiso   1.00
C451   C     0.80236   0.98353   0.16470   0.00000  Uiso   1.00
N452   N     0.80008   0.50535   0.13072   0.00000  Uiso   1.00
C453   C     0.91985   0.60833   0.28304   0.00000  Uiso   1.00
N454   N     0.96109   0.62378   0.29482   0.00000  Uiso   1.00
C455   C     0.81608   0.89004   0.15962   0.00000  Uiso   1.00
N456   N     0.81758   0.87438   0.12288   0.00000  Uiso   1.00
C457   C     0.71186   0.53588   0.22072   0.00000  Uiso   1.00
O458   O     0.67926   0.56137   0.20068   0.00000  Uiso   1.00
O459   O     0.69732   0.99108   0.22806   0.00000  Uiso   1.00
H460   H     0.99285   0.98406   0.21488   0.00000  Uiso   1.00
C461   C     0.80140   0.97064   0.34028   0.00000  Uiso   1.00
O462   O     0.83110   0.95818   0.37486   0.00000  Uiso   1.00
O463   O     0.76490   0.50321   0.34635   0.00000  Uiso   1.00
H464   H     0.73778   0.50734   0.31752   0.00000  Uiso   1.00
C465   C     0.75968   0.69717   0.11572   0.00000  Uiso   1.00
N466   N     0.73110   0.67210   0.13041   0.00000  Uiso   1.00
C467   C     0.88727   0.81865   0.38160   0.00000  Uiso   1.00
N468   N     0.91161   0.84681   0.36616   0.00000  Uiso   1.00
C469   C     0.90998   0.79957   0.13811   0.00000  Uiso   1.00
N470   N     0.93972   0.82203   0.16208   0.00000  Uiso   1.00
C471   C     0.77802   0.68267   0.36486   0.00000  Uiso   1.00
N472   N     0.75249   0.65662   0.34152   0.00000  Uiso   1.00
C473   C     0.92878   0.78086   0.04253   0.00000  Uiso   1.00
O474   O     0.94940   0.75482   0.01836   0.00000  Uiso   1.00
O475   O     0.95266   0.82261   0.05463   0.00000  Uiso   1.00
H476   H     0.98676   0.82724   0.04142   0.00000  Uiso   1.00
C477   C     0.80105   0.66679   0.46607   0.00000  Uiso   1.00
O478   O     0.83211   0.64991   0.49725   0.00000  Uiso   1.00
O479   O     0.75321   0.64497   0.45086   0.00000  Uiso   1.00
H480   H     0.74894   0.61556   0.46827   0.00000  Uiso   1.00
C481   C     0.16656   0.16412   0.75023   0.00000  Uiso   1.00
C482   C     0.16418   0.33642   0.74939   0.00000  Uiso   1.00
C483   C     0.12792   0.22907   0.54749   0.00000  Uiso   1.00
C484   C     0.18891   0.28431   0.95035   0.00000  Uiso   1.00
C485   C     0.12917   0.22705   0.59679   0.00000  Uiso   1.00
C486   C     0.19096   0.28369   0.90147   0.00000  Uiso   1.00
C487   C     0.20629   0.27212   0.60761   0.00000  Uiso   1.00
C488   C     0.14253   0.21510   0.89450   0.00000  Uiso   1.00
C489   C     0.21165   0.26791   0.55883   0.00000  Uiso   1.00
C490   C     0.14764   0.21062   0.94470   0.00000  Uiso   1.00
C491   C     0.17017   0.24776   0.52724   0.00000  Uiso   1.00
C492   C     0.16935   0.24703   0.97363   0.00000  Uiso   1.00
C493   C     0.06730   0.24880   0.73797   0.00000  Uiso   1.00
C494   C     0.26598   0.25102   0.76213   0.00000  Uiso   1.00
C495   C     0.01300   0.24118   0.73365   0.00000  Uiso   1.00
C496   C     0.32029   0.25829   0.76697   0.00000  Uiso   1.00
C497   C     0.19234   0.04272   0.77008   0.00000  Uiso   1.00
C498   C     0.13856   0.45616   0.70745   0.00000  Uiso   1.00
C499   C     0.20143   0.08899   0.76815   0.00000  Uiso   1.00
C500   C     0.14722   0.41005   0.70546   0.00000  Uiso   1.00
C501   C     0.15998   0.11642   0.75041   0.00000  Uiso   1.00
C502   C     0.15390   0.38463   0.74807   0.00000  Uiso   1.00
C503   C     0.10994   0.09903   0.73551   0.00000  Uiso   1.00
C504   C     0.14751   0.40501   0.79096   0.00000  Uiso   1.00
C505   C     0.09956   0.05304   0.73741   0.00000  Uiso   1.00
C506   C     0.13778   0.45043   0.79317   0.00000  Uiso   1.00
C507   C     0.14150   0.02488   0.75476   0.00000  Uiso   1.00
C508   C     0.13543   0.47625   0.75142   0.00000  Uiso   1.00
H509   H     0.07882   0.12189   0.72298   0.00000  Uiso   1.00
H510   H     0.15024   0.38554   0.82344   0.00000  Uiso   1.00
H511   H     0.09457   0.21431   0.52527   0.00000  Uiso   1.00
H512   H     0.20410   0.31370   0.97025   0.00000  Uiso   1.00
N513   N     0.16667   0.24999   0.62624   0.00000  Uiso   1.00
N514   N     0.16667   0.25001   0.87377   0.00000  Uiso   1.00
O515   O     0.16667   0.18454   0.78974   0.00000  Uiso   1.00
O516   O     0.16666   0.31547   0.71026   0.00000  Uiso   1.00
O517   O     0.16667   0.18453   0.71026   0.00000  Uiso   1.00
O518   O     0.16666   0.31547   0.78974   0.00000  Uiso   1.00
O519   O     0.09058   0.25000   0.78045   0.00000  Uiso   1.00
O520   O     0.24275   0.25000   0.71956   0.00000  Uiso   1.00
O521   O     0.09058   0.25000   0.70097   0.00000  Uiso   1.00
O522   O     0.24275   0.25001   0.79904   0.00000  Uiso   1.00
Zn523  Zn    0.16667   0.25001   0.80307   0.00000  Uiso   1.00
Zn524  Zn    0.16667   0.25000   0.69693   0.00000  Uiso   1.00
C525   C     0.32388   0.20752   0.69941   0.00000  Uiso   1.00
N526   N     0.30509   0.18079   0.67266   0.00000  Uiso   1.00
C527   C     0.00883   0.29092   0.80260   0.00000  Uiso   1.00
N528   N     0.02618   0.31685   0.83087   0.00000  Uiso   1.00
C529   C     0.23555   0.01341   0.78620   0.00000  Uiso   1.00
N530   N     0.26992   0.49005   0.79907   0.00000  Uiso   1.00
C531   C     0.13569   0.48353   0.66470   0.00000  Uiso   1.00
N532   N     0.13341   0.00535   0.63072   0.00000  Uiso   1.00
C533   C     0.25319   0.10833   0.78304   0.00000  Uiso   1.00
N534   N     0.29442   0.12378   0.79482   0.00000  Uiso   1.00
C535   C     0.14941   0.39004   0.65962   0.00000  Uiso   1.00
N536   N     0.15091   0.37438   0.62288   0.00000  Uiso   1.00
C537   C     0.04520   0.03588   0.72072   0.00000  Uiso   1.00
O538   O     0.01259   0.06137   0.70068   0.00000  Uiso   1.00
O539   O     0.03065   0.49108   0.72806   0.00000  Uiso   1.00
H540   H     0.32619   0.48406   0.71488   0.00000  Uiso   1.00
C541   C     0.13473   0.47064   0.84028   0.00000  Uiso   1.00
O542   O     0.16444   0.45818   0.87486   0.00000  Uiso   1.00
O543   O     0.09824   0.00321   0.84635   0.00000  Uiso   1.00
H544   H     0.07111   0.00734   0.81752   0.00000  Uiso   1.00
C545   C     0.09301   0.19717   0.61572   0.00000  Uiso   1.00
N546   N     0.06444   0.17210   0.63041   0.00000  Uiso   1.00
C547   C     0.22060   0.31865   0.88160   0.00000  Uiso   1.00
N548   N     0.24494   0.34681   0.86616   0.00000  Uiso   1.00
C549   C     0.24332   0.29957   0.63811   0.00000  Uiso   1.00
N550   N     0.27305   0.32203   0.66208   0.00000  Uiso   1.00
C551   C     0.11135   0.18267   0.86486   0.00000  Uiso   1.00
N552   N     0.08583   0.15662   0.84152   0.00000  Uiso   1.00
C553   C     0.26212   0.28086   0.54253   0.00000  Uiso   1.00
O554   O     0.28274   0.25482   0.51836   0.00000  Uiso   1.00
O555   O     0.28599   0.32261   0.55463   0.00000  Uiso   1.00
H556   H     0.32010   0.32724   0.54142   0.00000  Uiso   1.00
C557   C     0.13438   0.16679   0.96607   0.00000  Uiso   1.00
O558   O     0.16545   0.14991   0.99725   0.00000  Uiso   1.00
O559   O     0.08654   0.14497   0.95086   0.00000  Uiso   1.00
H560   H     0.08228   0.11556   0.96827   0.00000  Uiso   1.00
C561   C     0.49989   0.16412   0.75023   0.00000  Uiso   1.00
C562   C     0.49751   0.33642   0.74939   0.00000  Uiso   1.00
C563   C     0.46126   0.22907   0.54749   0.00000  Uiso   1.00
C564   C     0.52224   0.28431   0.95035   0.00000  Uiso   1.00
C565   C     0.46250   0.22705   0.59679   0.00000  Uiso   1.00
C566   C     0.52429   0.28369   0.90147   0.00000  Uiso   1.00
C567   C     0.53963   0.27212   0.60761   0.00000  Uiso   1.00
C568   C     0.47587   0.21510   0.89450   0.00000  Uiso   1.00
C569   C     0.54499   0.26791   0.55883   0.00000  Uiso   1.00
C570   C     0.48098   0.21062   0.94470   0.00000  Uiso   1.00
C571   C     0.50350   0.24776   0.52724   0.00000  Uiso   1.00
C572   C     0.50269   0.24703   0.97363   0.00000  Uiso   1.00
C573   C     0.40063   0.24880   0.73797   0.00000  Uiso   1.00
C574   C     0.59932   0.25102   0.76213   0.00000  Uiso   1.00
C575   C     0.34633   0.24118   0.73365   0.00000  Uiso   1.00
C576   C     0.65362   0.25829   0.76697   0.00000  Uiso   1.00
C577   C     0.52567   0.04272   0.77008   0.00000  Uiso   1.00
C578   C     0.47189   0.45616   0.70745   0.00000  Uiso   1.00
C579   C     0.53476   0.08899   0.76815   0.00000  Uiso   1.00
C580   C     0.48055   0.41005   0.70546   0.00000  Uiso   1.00
C581   C     0.49331   0.11642   0.75041   0.00000  Uiso   1.00
C582   C     0.48723   0.38463   0.74807   0.00000  Uiso   1.00
C583   C     0.44328   0.09903   0.73551   0.00000  Uiso   1.00
C584   C     0.48085   0.40501   0.79096   0.00000  Uiso   1.00
C585   C     0.43290   0.05304   0.73741   0.00000  Uiso   1.00
C586   C     0.47111   0.45043   0.79317   0.00000  Uiso   1.00
C587   C     0.47483   0.02488   0.75476   0.00000  Uiso   1.00
C588   C     0.46876   0.47625   0.75142   0.00000  Uiso   1.00
H589   H     0.41216   0.12189   0.72298   0.00000  Uiso   1.00
H590   H     0.48357   0.38554   0.82344   0.00000  Uiso   1.00
H591   H     0.42790   0.21431   0.52527   0.00000  Uiso   1.00
H592   H     0.53744   0.31370   0.97025   0.00000  Uiso   1.00
N593   N     0.50000   0.24999   0.62624   0.00000  Uiso   1.00
N594   N     0.50000   0.25001   0.87377   0.00000  Uiso   1.00
O595   O     0.50000   0.18454   0.78974   0.00000  Uiso   1.00
O596   O     0.50000   0.31547   0.71026   0.00000  Uiso   1.00
O597   O     0.50000   0.18453   0.71026   0.00000  Uiso   1.00
O598   O     0.50000   0.31547   0.78974   0.00000  Uiso   1.00
O599   O     0.42392   0.25000   0.78045   0.00000  Uiso   1.00
O600   O     0.57608   0.25000   0.71956   0.00000  Uiso   1.00
O601   O     0.42392   0.25000   0.70097   0.00000  Uiso   1.00
O602   O     0.57608   0.25001   0.79904   0.00000  Uiso   1.00
Zn603  Zn    0.50000   0.25001   0.80307   0.00000  Uiso   1.00
Zn604  Zn    0.50000   0.25000   0.69693   0.00000  Uiso   1.00
C605   C     0.65721   0.20752   0.69941   0.00000  Uiso   1.00
N606   N     0.63843   0.18079   0.67266   0.00000  Uiso   1.00
C607   C     0.34216   0.29092   0.80260   0.00000  Uiso   1.00
N608   N     0.35951   0.31685   0.83087   0.00000  Uiso   1.00
C609   C     0.56888   0.01341   0.78620   0.00000  Uiso   1.00
N610   N     0.60326   0.49005   0.79907   0.00000  Uiso   1.00
C611   C     0.46903   0.48353   0.66470   0.00000  Uiso   1.00
N612   N     0.46675   0.00535   0.63072   0.00000  Uiso   1.00
C613   C     0.58652   0.10833   0.78304   0.00000  Uiso   1.00
N614   N     0.62775   0.12378   0.79482   0.00000  Uiso   1.00
C615   C     0.48275   0.39004   0.65962   0.00000  Uiso   1.00
N616   N     0.48424   0.37438   0.62288   0.00000  Uiso   1.00
C617   C     0.37853   0.03588   0.72072   0.00000  Uiso   1.00
O618   O     0.34592   0.06137   0.70068   0.00000  Uiso   1.00
O619   O     0.36399   0.49108   0.72806   0.00000  Uiso   1.00
H620   H     0.65952   0.48406   0.71488   0.00000  Uiso   1.00
C621   C     0.46806   0.47064   0.84028   0.00000  Uiso   1.00
O622   O     0.49777   0.45818   0.87486   0.00000  Uiso   1.00
O623   O     0.43157   0.00321   0.84635   0.00000  Uiso   1.00
H624   H     0.40445   0.00734   0.81752   0.00000  Uiso   1.00
C625   C     0.42635   0.19717   0.61572   0.00000  Uiso   1.00
N626   N     0.39777   0.17210   0.63041   0.00000  Uiso   1.00
C627   C     0.55394   0.31865   0.88160   0.00000  Uiso   1.00
N628   N     0.57827   0.34681   0.86616   0.00000  Uiso   1.00
C629   C     0.57665   0.29957   0.63811   0.00000  Uiso   1.00
N630   N     0.60638   0.32203   0.66208   0.00000  Uiso   1.00
C631   C     0.44469   0.18267   0.86486   0.00000  Uiso   1.00
N632   N     0.41916   0.15662   0.84152   0.00000  Uiso   1.00
C633   C     0.59545   0.28086   0.54253   0.00000  Uiso   1.00
O634   O     0.61607   0.25482   0.51836   0.00000  Uiso   1.00
O635   O     0.61932   0.32261   0.55463   0.00000  Uiso   1.00
H636   H     0.65343   0.32724   0.54142   0.00000  Uiso   1.00
C637   C     0.46771   0.16679   0.96607   0.00000  Uiso   1.00
O638   O     0.49878   0.14991   0.99725   0.00000  Uiso   1.00
O639   O     0.41988   0.14497   0.95086   0.00000  Uiso   1.00
H640   H     0.41561   0.11556   0.96827   0.00000  Uiso   1.00
C641   C     0.83323   0.16412   0.75023   0.00000  Uiso   1.00
C642   C     0.83084   0.33642   0.74939   0.00000  Uiso   1.00
C643   C     0.79459   0.22907   0.54749   0.00000  Uiso   1.00
C644   C     0.85558   0.28431   0.95035   0.00000  Uiso   1.00
C645   C     0.79584   0.22705   0.59679   0.00000  Uiso   1.00
C646   C     0.85762   0.28369   0.90147   0.00000  Uiso   1.00
C647   C     0.87296   0.27212   0.60761   0.00000  Uiso   1.00
C648   C     0.80920   0.21510   0.89450   0.00000  Uiso   1.00
C649   C     0.87832   0.26791   0.55883   0.00000  Uiso   1.00
C650   C     0.81431   0.21062   0.94470   0.00000  Uiso   1.00
C651   C     0.83683   0.24776   0.52724   0.00000  Uiso   1.00
C652   C     0.83602   0.24703   0.97363   0.00000  Uiso   1.00
C653   C     0.73397   0.24880   0.73797   0.00000  Uiso   1.00
C654   C     0.93265   0.25102   0.76213   0.00000  Uiso   1.00
C655   C     0.67966   0.24118   0.73365   0.00000  Uiso   1.00
C656   C     0.98696   0.25829   0.76697   0.00000  Uiso   1.00
C657   C     0.85901   0.04272   0.77008   0.00000  Uiso   1.00
C658   C     0.80523   0.45616   0.70745   0.00000  Uiso   1.00
C659   C     0.86810   0.08899   0.76815   0.00000  Uiso   1.00
C660   C     0.81388   0.41005   0.70546   0.00000  Uiso   1.00
C661   C     0.82664   0.11642   0.75041   0.00000  Uiso   1.00
C662   C     0.82057   0.38463   0.74807   0.00000  Uiso   1.00
C663   C     0.77661   0.09903   0.73551   0.00000  Uiso   1.00
C664   C     0.81418   0.40501   0.79096   0.00000  Uiso   1.00
C665   C     0.76623   0.05304   0.73741   0.00000  Uiso   1.00
C666   C     0.80444   0.45043   0.79317   0.00000  Uiso   1.00
C667   C     0.80817   0.02488   0.75476   0.00000  Uiso   1.00
C668   C     0.80209   0.47625   0.75142   0.00000  Uiso   1.00
H669   H     0.74549   0.12189   0.72298   0.00000  Uiso   1.00
H670   H     0.81690   0.38554   0.82344   0.00000  Uiso   1.00
H671   H     0.76124   0.21431   0.52527   0.00000  Uiso   1.00
H672   H     0.87077   0.31370   0.97025   0.00000  Uiso   1.00
N673   N     0.83333   0.24999   0.62624   0.00000  Uiso   1.00
N674   N     0.83333   0.25001   0.87377   0.00000  Uiso   1.00
O675   O     0.83334   0.18454   0.78974   0.00000  Uiso   1.00
O676   O     0.83333   0.31547   0.71026   0.00000  Uiso   1.00
O677   O     0.83334   0.18453   0.71026   0.00000  Uiso   1.00
O678   O     0.83333   0.31547   0.78974   0.00000  Uiso   1.00
O679   O     0.75725   0.25000   0.78045   0.00000  Uiso   1.00
O680   O     0.90942   0.25000   0.71956   0.00000  Uiso   1.00
O681   O     0.75725   0.25000   0.70097   0.00000  Uiso   1.00
O682   O     0.90942   0.25001   0.79904   0.00000  Uiso   1.00
Zn683  Zn    0.83333   0.25001   0.80307   0.00000  Uiso   1.00
Zn684  Zn    0.83333   0.25000   0.69693   0.00000  Uiso   1.00
C685   C     0.99054   0.20752   0.69941   0.00000  Uiso   1.00
N686   N     0.97176   0.18079   0.67266   0.00000  Uiso   1.00
C687   C     0.67549   0.29092   0.80260   0.00000  Uiso   1.00
N688   N     0.69284   0.31685   0.83087   0.00000  Uiso   1.00
C689   C     0.90222   0.01341   0.78620   0.00000  Uiso   1.00
N690   N     0.93659   0.49005   0.79907   0.00000  Uiso   1.00
C691   C     0.80236   0.48353   0.66470   0.00000  Uiso   1.00
N692   N     0.80008   0.00535   0.63072   0.00000  Uiso   1.00
C693   C     0.91985   0.10833   0.78304   0.00000  Uiso   1.00
N694   N     0.96109   0.12378   0.79482   0.00000  Uiso   1.00
C695   C     0.81608   0.39004   0.65962   0.00000  Uiso   1.00
N696   N     0.81758   0.37438   0.62288   0.00000  Uiso   1.00
C697   C     0.71186   0.03588   0.72072   0.00000  Uiso   1.00
O698   O     0.67926   0.06137   0.70068   0.00000  Uiso   1.00
O699   O     0.69732   0.49108   0.72806   0.00000  Uiso   1.00
H700   H     0.99285   0.48406   0.71488   0.00000  Uiso   1.00
C701   C     0.80140   0.47064   0.84028   0.00000  Uiso   1.00
O702   O     0.83110   0.45818   0.87486   0.00000  Uiso   1.00
O703   O     0.76490   0.00321   0.84635   0.00000  Uiso   1.00
H704   H     0.73778   0.00734   0.81752   0.00000  Uiso   1.00
C705   C     0.75968   0.19717   0.61572   0.00000  Uiso   1.00
N706   N     0.73110   0.17210   0.63041   0.00000  Uiso   1.00
C707   C     0.88727   0.31865   0.88160   0.00000  Uiso   1.00
N708   N     0.91161   0.34681   0.86616   0.00000  Uiso   1.00
C709   C     0.90998   0.29957   0.63811   0.00000  Uiso   1.00
N710   N     0.93972   0.32203   0.66208   0.00000  Uiso   1.00
C711   C     0.77802   0.18267   0.86486   0.00000  Uiso   1.00
N712   N     0.75249   0.15662   0.84152   0.00000  Uiso   1.00
C713   C     0.92878   0.28086   0.54253   0.00000  Uiso   1.00
O714   O     0.94940   0.25482   0.51836   0.00000  Uiso   1.00
O715   O     0.95266   0.32261   0.55463   0.00000  Uiso   1.00
H716   H     0.98676   0.32724   0.54142   0.00000  Uiso   1.00
C717   C     0.80105   0.16679   0.96607   0.00000  Uiso   1.00
O718   O     0.83211   0.14991   0.99725   0.00000  Uiso   1.00
O719   O     0.75321   0.14497   0.95086   0.00000  Uiso   1.00
H720   H     0.74894   0.11556   0.96827   0.00000  Uiso   1.00
C721   C     0.16656   0.66412   0.75023   0.00000  Uiso   1.00
C722   C     0.16418   0.83642   0.74939   0.00000  Uiso   1.00
C723   C     0.12792   0.72907   0.54749   0.00000  Uiso   1.00
C724   C     0.18891   0.78431   0.95035   0.00000  Uiso   1.00
C725   C     0.12917   0.72705   0.59679   0.00000  Uiso   1.00
C726   C     0.19096   0.78369   0.90147   0.00000  Uiso   1.00
C727   C     0.20629   0.77212   0.60761   0.00000  Uiso   1.00
C728   C     0.14253   0.71510   0.89450   0.00000  Uiso   1.00
C729   C     0.21165   0.76791   0.55883   0.00000  Uiso   1.00
C730   C     0.14764   0.71062   0.94470   0.00000  Uiso   1.00
C731   C     0.17017   0.74776   0.52724   0.00000  Uiso   1.00
C732   C     0.16935   0.74703   0.97363   0.00000  Uiso   1.00
C733   C     0.06730   0.74880   0.73797   0.00000  Uiso   1.00
C734   C     0.26598   0.75102   0.76213   0.00000  Uiso   1.00
C735   C     0.01300   0.74118   0.73365   0.00000  Uiso   1.00
C736   C     0.32029   0.75829   0.76697   0.00000  Uiso   1.00
C737   C     0.19234   0.54272   0.77008   0.00000  Uiso   1.00
C738   C     0.13856   0.95616   0.70745   0.00000  Uiso   1.00
C739   C     0.20143   0.58899   0.76815   0.00000  Uiso   1.00
C740   C     0.14722   0.91005   0.70546   0.00000  Uiso   1.00
C741   C     0.15998   0.61642   0.75041   0.00000  Uiso   1.00
C742   C     0.15390   0.88463   0.74807   0.00000  Uiso   1.00
C743   C     0.10994   0.59903   0.73551   0.00000  Uiso   1.00
C744   C     0.14751   0.90501   0.79096   0.00000  Uiso   1.00
C745   C     0.09956   0.55304   0.73741   0.00000  Uiso   1.00
C746   C     0.13778   0.95043   0.79317   0.00000  Uiso   1.00
C747   C     0.14150   0.52488   0.75476   0.00000  Uiso   1.00
C748   C     0.13543   0.97625   0.75142   0.00000  Uiso   1.00
H749   H     0.07882   0.62189   0.72298   0.00000  Uiso   1.00
H750   H     0.15024   0.88554   0.82344   0.00000  Uiso   1.00
H751   H     0.09457   0.71431   0.52527   0.00000  Uiso   1.00
H752   H     0.20410   0.81370   0.97025   0.00000  Uiso   1.00
N753   N     0.16667   0.74999   0.62624   0.00000  Uiso   1.00
N754   N     0.16667   0.75001   0.87377   0.00000  Uiso   1.00
O755   O     0.16667   0.68454   0.78974   0.00000  Uiso   1.00
O756   O     0.16666   0.81547   0.71026   0.00000  Uiso   1.00
O757   O     0.16667   0.68453   0.71026   0.00000  Uiso   1.00
O758   O     0.16666   0.81547   0.78974   0.00000  Uiso   1.00
O759   O     0.09058   0.75000   0.78045   0.00000  Uiso   1.00
O760   O     0.24275   0.75000   0.71956   0.00000  Uiso   1.00
O761   O     0.09058   0.75000   0.70097   0.00000  Uiso   1.00
O762   O     0.24275   0.75001   0.79904   0.00000  Uiso   1.00
Zn763  Zn    0.16667   0.75001   0.80307   0.00000  Uiso   1.00
Zn764  Zn    0.16667   0.75000   0.69693   0.00000  Uiso   1.00
C765   C     0.32388   0.70752   0.69941   0.00000  Uiso   1.00
N766   N     0.30509   0.68079   0.67266   0.00000  Uiso   1.00
C767   C     0.00883   0.79092   0.80260   0.00000  Uiso   1.00
N768   N     0.02618   0.81685   0.83087   0.00000  Uiso   1.00
C769   C     0.23555   0.51341   0.78620   0.00000  Uiso   1.00
N770   N     0.26992   0.99005   0.79907   0.00000  Uiso   1.00
C771   C     0.13569   0.98353   0.66470   0.00000  Uiso   1.00
N772   N     0.13341   0.50535   0.63072   0.00000  Uiso   1.00
C773   C     0.25319   0.60833   0.78304   0.00000  Uiso   1.00
N774   N     0.29442   0.62378   0.79482   0.00000  Uiso   1.00
C775   C     0.14941   0.89004   0.65962   0.00000  Uiso   1.00
N776   N     0.15091   0.87438   0.62288   0.00000  Uiso   1.00
C777   C     0.04520   0.53588   0.72072   0.00000  Uiso   1.00
O778   O     0.01259   0.56137   0.70068   0.00000  Uiso   1.00
O779   O     0.03065   0.99108   0.72806   0.00000  Uiso   1.00
H780   H     0.32619   0.98406   0.71488   0.00000  Uiso   1.00
C781   C     0.13473   0.97064   0.84028   0.00000  Uiso   1.00
O782   O     0.16444   0.95818   0.87486   0.00000  Uiso   1.00
O783   O     0.09824   0.50321   0.84635   0.00000  Uiso   1.00
H784   H     0.07111   0.50734   0.81752   0.00000  Uiso   1.00
C785   C     0.09301   0.69717   0.61572   0.00000  Uiso   1.00
N786   N     0.06444   0.67210   0.63041   0.00000  Uiso   1.00
C787   C     0.22060   0.81865   0.88160   0.00000  Uiso   1.00
N788   N     0.24494   0.84681   0.86616   0.00000  Uiso   1.00
C789   C     0.24332   0.79957   0.63811   0.00000  Uiso   1.00
N790   N     0.27305   0.82203   0.66208   0.00000  Uiso   1.00
C791   C     0.11135   0.68267   0.86486   0.00000  Uiso   1.00
N792   N     0.08583   0.65662   0.84152   0.00000  Uiso   1.00
C793   C     0.26212   0.78086   0.54253   0.00000  Uiso   1.00
O794   O     0.28274   0.75482   0.51836   0.00000  Uiso   1.00
O795   O     0.28599   0.82261   0.55463   0.00000  Uiso   1.00
H796   H     0.32010   0.82724   0.54142   0.00000  Uiso   1.00
C797   C     0.13438   0.66679   0.96607   0.00000  Uiso   1.00
O798   O     0.16545   0.64991   0.99725   0.00000  Uiso   1.00
O799   O     0.08654   0.64497   0.95086   0.00000  Uiso   1.00
H800   H     0.08228   0.61556   0.96827   0.00000  Uiso   1.00
C801   C     0.49989   0.66412   0.75023   0.00000  Uiso   1.00
C802   C     0.49751   0.83642   0.74939   0.00000  Uiso   1.00
C803   C     0.46126   0.72907   0.54749   0.00000  Uiso   1.00
C804   C     0.52224   0.78431   0.95035   0.00000  Uiso   1.00
C805   C     0.46250   0.72705   0.59679   0.00000  Uiso   1.00
C806   C     0.52429   0.78369   0.90147   0.00000  Uiso   1.00
C807   C     0.53963   0.77212   0.60761   0.00000  Uiso   1.00
C808   C     0.47587   0.71510   0.89450   0.00000  Uiso   1.00
C809   C     0.54499   0.76791   0.55883   0.00000  Uiso   1.00
C810   C     0.48098   0.71062   0.94470   0.00000  Uiso   1.00
C811   C     0.50350   0.74776   0.52724   0.00000  Uiso   1.00
C812   C     0.50269   0.74703   0.97363   0.00000  Uiso   1.00
C813   C     0.40063   0.74880   0.73797   0.00000  Uiso   1.00
C814   C     0.59932   0.75102   0.76213   0.00000  Uiso   1.00
C815   C     0.34633   0.74118   0.73365   0.00000  Uiso   1.00
C816   C     0.65362   0.75829   0.76697   0.00000  Uiso   1.00
C817   C     0.52567   0.54272   0.77008   0.00000  Uiso   1.00
C818   C     0.47189   0.95616   0.70745   0.00000  Uiso   1.00
C819   C     0.53476   0.58899   0.76815   0.00000  Uiso   1.00
C820   C     0.48055   0.91005   0.70546   0.00000  Uiso   1.00
C821   C     0.49331   0.61642   0.75041   0.00000  Uiso   1.00
C822   C     0.48723   0.88463   0.74807   0.00000  Uiso   1.00
C823   C     0.44328   0.59903   0.73551   0.00000  Uiso   1.00
C824   C     0.48085   0.90501   0.79096   0.00000  Uiso   1.00
C825   C     0.43290   0.55304   0.73741   0.00000  Uiso   1.00
C826   C     0.47111   0.95043   0.79317   0.00000  Uiso   1.00
C827   C     0.47483   0.52488   0.75476   0.00000  Uiso   1.00
C828   C     0.46876   0.97625   0.75142   0.00000  Uiso   1.00
H829   H     0.41216   0.62189   0.72298   0.00000  Uiso   1.00
H830   H     0.48357   0.88554   0.82344   0.00000  Uiso   1.00
H831   H     0.42790   0.71431   0.52527   0.00000  Uiso   1.00
H832   H     0.53744   0.81370   0.97025   0.00000  Uiso   1.00
N833   N     0.50000   0.74999   0.62624   0.00000  Uiso   1.00
N834   N     0.50000   0.75001   0.87377   0.00000  Uiso   1.00
O835   O     0.50000   0.68454   0.78974   0.00000  Uiso   1.00
O836   O     0.50000   0.81547   0.71026   0.00000  Uiso   1.00
O837   O     0.50000   0.68453   0.71026   0.00000  Uiso   1.00
O838   O     0.50000   0.81547   0.78974   0.00000  Uiso   1.00
O839   O     0.42392   0.75000   0.78045   0.00000  Uiso   1.00
O840   O     0.57608   0.75000   0.71956   0.00000  Uiso   1.00
O841   O     0.42392   0.75000   0.70097   0.00000  Uiso   1.00
O842   O     0.57608   0.75001   0.79904   0.00000  Uiso   1.00
Zn843  Zn    0.50000   0.75001   0.80307   0.00000  Uiso   1.00
Zn844  Zn    0.50000   0.75000   0.69693   0.00000  Uiso   1.00
C845   C     0.65721   0.70752   0.69941   0.00000  Uiso   1.00
N846   N     0.63843   0.68079   0.67266   0.00000  Uiso   1.00
C847   C     0.34216   0.79092   0.80260   0.00000  Uiso   1.00
N848   N     0.35951   0.81685   0.83087   0.00000  Uiso   1.00
C849   C     0.56888   0.51341   0.78620   0.00000  Uiso   1.00
N850   N     0.60326   0.99005   0.79907   0.00000  Uiso   1.00
C851   C     0.46903   0.98353   0.66470   0.00000  Uiso   1.00
N852   N     0.46675   0.50535   0.63072   0.00000  Uiso   1.00
C853   C     0.58652   0.60833   0.78304   0.00000  Uiso   1.00
N854   N     0.62775   0.62378   0.79482   0.00000  Uiso   1.00
C855   C     0.48275   0.89004   0.65962   0.00000  Uiso   1.00
N856   N     0.48424   0.87438   0.62288   0.00000  Uiso   1.00
C857   C     0.37853   0.53588   0.72072   0.00000  Uiso   1.00
O858   O     0.34592   0.56137   0.70068   0.00000  Uiso   1.00
O859   O     0.36399   0.99108   0.72806   0.00000  Uiso   1.00
H860   H     0.65952   0.98406   0.71488   0.00000  Uiso   1.00
C861   C     0.46806   0.97064   0.84028   0.00000  Uiso   1.00
O862   O     0.49777   0.95818   0.87486   0.00000  Uiso   1.00
O863   O     0.43157   0.50321   0.84635   0.00000  Uiso   1.00
H864   H     0.40445   0.50734   0.81752   0.00000  Uiso   1.00
C865   C     0.42635   0.69717   0.61572   0.00000  Uiso   1.00
N866   N     0.39777   0.67210   0.63041   0.00000  Uiso   1.00
C867   C     0.55394   0.81865   0.88160   0.00000  Uiso   1.00
N868   N     0.57827   0.84681   0.86616   0.00000  Uiso   1.00
C869   C     0.57665   0.79957   0.63811   0.00000  Uiso   1.00
N870   N     0.60638   0.82203   0.66208   0.00000  Uiso   1.00
C871   C     0.44469   0.68267   0.86486   0.00000  Uiso   1.00
N872   N     0.41916   0.65662   0.84152   0.00000  Uiso   1.00
C873   C     0.59545   0.78086   0.54253   0.00000  Uiso   1.00
O874   O     0.61607   0.75482   0.51836   0.00000  Uiso   1.00
O875   O     0.61932   0.82261   0.55463   0.00000  Uiso   1.00
H876   H     0.65343   0.82724   0.54142   0.00000  Uiso   1.00
C877   C     0.46771   0.66679   0.96607   0.00000  Uiso   1.00
O878   O     0.49878   0.64991   0.99725   0.00000  Uiso   1.00
O879   O     0.41988   0.64497   0.95086   0.00000  Uiso   1.00
H880   H     0.41561   0.61556   0.96827   0.00000  Uiso   1.00
C881   C     0.83323   0.66412   0.75023   0.00000  Uiso   1.00
C882   C     0.83084   0.83642   0.74939   0.00000  Uiso   1.00
C883   C     0.79459   0.72907   0.54749   0.00000  Uiso   1.00
C884   C     0.85558   0.78431   0.95035   0.00000  Uiso   1.00
C885   C     0.79584   0.72705   0.59679   0.00000  Uiso   1.00
C886   C     0.85762   0.78369   0.90147   0.00000  Uiso   1.00
C887   C     0.87296   0.77212   0.60761   0.00000  Uiso   1.00
C888   C     0.80920   0.71510   0.89450   0.00000  Uiso   1.00
C889   C     0.87832   0.76791   0.55883   0.00000  Uiso   1.00
C890   C     0.81431   0.71062   0.94470   0.00000  Uiso   1.00
C891   C     0.83683   0.74776   0.52724   0.00000  Uiso   1.00
C892   C     0.83602   0.74703   0.97363   0.00000  Uiso   1.00
C893   C     0.73397   0.74880   0.73797   0.00000  Uiso   1.00
C894   C     0.93265   0.75102   0.76213   0.00000  Uiso   1.00
C895   C     0.67966   0.74118   0.73365   0.00000  Uiso   1.00
C896   C     0.98696   0.75829   0.76697   0.00000  Uiso   1.00
C897   C     0.85901   0.54272   0.77008   0.00000  Uiso   1.00
C898   C     0.80523   0.95616   0.70745   0.00000  Uiso   1.00
C899   C     0.86810   0.58899   0.76815   0.00000  Uiso   1.00
C900   C     0.81388   0.91005   0.70546   0.00000  Uiso   1.00
C901   C     0.82664   0.61642   0.75041   0.00000  Uiso   1.00
C902   C     0.82057   0.88463   0.74807   0.00000  Uiso   1.00
C903   C     0.77661   0.59903   0.73551   0.00000  Uiso   1.00
C904   C     0.81418   0.90501   0.79096   0.00000  Uiso   1.00
C905   C     0.76623   0.55304   0.73741   0.00000  Uiso   1.00
C906   C     0.80444   0.95043   0.79317   0.00000  Uiso   1.00
C907   C     0.80817   0.52488   0.75476   0.00000  Uiso   1.00
C908   C     0.80209   0.97625   0.75142   0.00000  Uiso   1.00
H909   H     0.74549   0.62189   0.72298   0.00000  Uiso   1.00
H910   H     0.81690   0.88554   0.82344   0.00000  Uiso   1.00
H911   H     0.76124   0.71431   0.52527   0.00000  Uiso   1.00
H912   H     0.87077   0.81370   0.97025   0.00000  Uiso   1.00
N913   N     0.83333   0.74999   0.62624   0.00000  Uiso   1.00
N914   N     0.83333   0.75001   0.87377   0.00000  Uiso   1.00
O915   O     0.83334   0.68454   0.78974   0.00000  Uiso   1.00
O916   O     0.83333   0.81547   0.71026   0.00000  Uiso   1.00
O917   O     0.83334   0.68453   0.71026   0.00000  Uiso   1.00
O918   O     0.83333   0.81547   0.78974   0.00000  Uiso   1.00
O919   O     0.75725   0.75000   0.78045   0.00000  Uiso   1.00
O920   O     0.90942   0.75000   0.71956   0.00000  Uiso   1.00
O921   O     0.75725   0.75000   0.70097   0.00000  Uiso   1.00
O922   O     0.90942   0.75001   0.79904   0.00000  Uiso   1.00
Zn923  Zn    0.83333   0.75001   0.80307   0.00000  Uiso   1.00
Zn924  Zn    0.83333   0.75000   0.69693   0.00000  Uiso   1.00
C925   C     0.99054   0.70752   0.69941   0.00000  Uiso   1.00
N926   N     0.97176   0.68079   0.67266   0.00000  Uiso   1.00
C927   C     0.67549   0.79092   0.80260   0.00000  Uiso   1.00
N928   N     0.69284   0.81685   0.83087   0.00000  Uiso   1.00
C929   C     0.90222   0.51341   0.78620   0.00000  Uiso   1.00
N930   N     0.93659   0.99005   0.79907   0.00000  Uiso   1.00
C931   C     0.80236   0.98353   0.66470   0.00000  Uiso   1.00
N932   N     0.80008   0.50535   0.63072   0.00000  Uiso   1.00
C933   C     0.91985   0.60833   0.78304   0.00000  Uiso   1.00
N934   N     0.96109   0.62378   0.79482   0.00000  Uiso   1.00
C935   C     0.81608   0.89004   0.65962   0.00000  Uiso   1.00
N936   N     0.81758   0.87438   0.62288   0.00000  Uiso   1.00
C937   C     0.71186   0.53588   0.72072   0.00000  Uiso   1.00
O938   O     0.67926   0.56137   0.70068   0.00000  Uiso   1.00
O939   O     0.69732   0.99108   0.72806   0.00000  Uiso   1.00
H940   H     0.99285   0.98406   0.71488   0.00000  Uiso   1.00
C941   C     0.80140   0.97064   0.84028   0.00000  Uiso   1.00
O942   O     0.83110   0.95818   0.87486   0.00000  Uiso   1.00
O943   O     0.76490   0.50321   0.84635   0.00000  Uiso   1.00
H944   H     0.73778   0.50734   0.81752   0.00000  Uiso   1.00
C945   C     0.75968   0.69717   0.61572   0.00000  Uiso   1.00
N946   N     0.73110   0.67210   0.63041   0.00000  Uiso   1.00
C947   C     0.88727   0.81865   0.88160   0.00000  Uiso   1.00
N948   N     0.91161   0.84681   0.86616   0.00000  Uiso   1.00
C949   C     0.90998   0.79957   0.63811   0.00000  Uiso   1.00
N950   N     0.93972   0.82203   0.66208   0.00000  Uiso   1.00
C951   C     0.77802   0.68267   0.86486   0.00000  Uiso   1.00
N952   N     0.75249   0.65662   0.84152   0.00000  Uiso   1.00
C953   C     0.92878   0.78086   0.54253   0.00000  Uiso   1.00
O954   O     0.94940   0.75482   0.51836   0.00000  Uiso   1.00
O955   O     0.95266   0.82261   0.55463   0.00000  Uiso   1.00
H956   H     0.98676   0.82724   0.54142   0.00000  Uiso   1.00
C957   C     0.80105   0.66679   0.96607   0.00000  Uiso   1.00
O958   O     0.83211   0.64991   0.99725   0.00000  Uiso   1.00
O959   O     0.75321   0.64497   0.95086   0.00000  Uiso   1.00
H960   H     0.74894   0.61556   0.96827   0.00000  Uiso   1.00
loop_
_geom_bond_atom_site_label_1
_geom_bond_atom_site_label_2
_geom_bond_distance
_geom_bond_site_symmetry_2
_ccdc_geom_bond_type
C1     C21     1.426   .     S
C1     O37     1.288   .     A
C1     O35     1.286   .     A
C2     C22     1.464   .     S
C2     O38     1.298   .     A
C2     O36     1.295   .     A
C3     H31     1.082   .     S
C3     C5      1.403   .     A
C3     C11     1.408   .     A
C4     C12     1.408   .     A
C4     H32     1.082   .     S
C4     C6      1.404   .     A
C5     N33     1.364   .     A
C5     C65     1.433   .     S
C6     C67     1.438   .     S
C6     N34     1.367   .     A
C7     N33     1.373   .     A
C7     C9      1.426   .     A
C7     C69     1.443   .     S
C8     N34     1.372   .     A
C8     C71     1.442   .     S
C8     C10     1.425   .     A
C9     C73     1.489   .     S
C9     C11     1.424   .     A
C10    C77     1.488   .     S
C10    C12     1.424   .     A
C11    C492    1.528   1_554 S
C12    C491    1.528   .     S
C13    O41     1.288   .     A
C13    C15     1.406   .     S
C13    O39     1.275   .     A
C14    O42     1.285   .     A
C14    C16     1.404   .     S
C14    O40     1.277   .     A
C15    C176    1.352   1_455 S
C15    C205    1.457   1_455 S
C16    C95     1.352   .     S
C16    C127    1.458   .     S
C17    C27     1.418   .     A
C17    C49     1.454   .     S
C17    C19     1.393   .     A
C18    C20     1.398   .     A
C18    C51     1.454   .     S
C18    C28     1.409   .     A
C19    C21     1.397   .     A
C19    C53     1.453   .     S
C20    C55     1.452   .     S
C20    C22     1.418   .     A
C21    C23     1.393   .     A
C22    C24     1.404   .     A
C23    H29     1.085   .     S
C23    C25     1.390   .     A
C24    C26     1.385   .     A
C24    H30     1.083   .     S
C25    C57     1.498   .     S
C25    C27     1.416   .     A
C26    C61     1.491   .     S
C26    C28     1.406   .     A
C27    C268    1.455   1_545 S
C28    C267    1.455   .     S
N33    Zn44    2.018   .     S
N34    Zn43    2.018   .     S
O35    Zn43    1.989   .     S
O36    Zn44    1.989   .     S
O37    Zn44    1.981   .     S
O38    Zn43    1.981   .     S
O39    Zn43    1.982   .     S
O40    Zn44    1.982   .     S
O41    Zn44    1.988   .     S
O42    Zn43    1.988   .     S
C45    N46     1.157   .     T
C45    C95     1.457   .     S
C47    N48     1.158   .     T
C47    C176    1.458   1_455 S
C49    N290    1.157   1_545 S
N50    C289    1.157   .     S
C51    N292    1.157   .     S
N52    C291    1.157   1_545 S
C53    N54     1.157   .     T
C55    N56     1.158   .     T
C57    O58     1.224   .     D
C57    O299    1.399   1_545 S
O59    C297    1.399   .     S
O59    H220    1.014   1_455 S
H60    O139    1.014   .     S
C61    O62     1.221   .     D
C61    O303    1.398   .     S
O63    H64     1.011   .     S
O63    C301    1.398   1_545 S
C65    N66     1.155   .     T
C67    N68     1.158   .     T
C69    N70     1.158   .     T
C71    N72     1.158   .     T
C73    O75     1.398   .     S
C73    O74     1.223   .     D
O75    H76     1.014   .     S
C77    O78     1.223   .     D
C77    O79     1.398   .     S
O79    H80     1.014   .     S
C81    C101    1.426   .     S
C81    O117    1.288   .     A
C81    O115    1.286   .     A
C82    C102    1.464   .     S
C82    O118    1.298   .     A
C82    O116    1.295   .     A
C83    H111    1.082   .     S
C83    C85     1.403   .     A
C83    C91     1.408   .     A
C84    C92     1.408   .     A
C84    H112    1.082   .     S
C84    C86     1.404   .     A
C85    N113    1.364   .     A
C85    C145    1.433   .     S
C86    C147    1.438   .     S
C86    N114    1.367   .     A
C87    N113    1.373   .     A
C87    C89     1.426   .     A
C87    C149    1.443   .     S
C88    N114    1.372   .     A
C88    C151    1.442   .     S
C88    C90     1.425   .     A
C89    C153    1.489   .     S
C89    C91     1.424   .     A
C90    C157    1.488   .     S
C90    C92     1.424   .     A
C91    C572    1.528   1_554 S
C92    C571    1.528   .     S
C93    O121    1.288   .     A
C93    C95     1.406   .     S
C93    O119    1.275   .     A
C94    O122    1.285   .     A
C94    C96     1.404   .     S
C94    O120    1.277   .     A
C96    C175    1.352   .     S
C96    C207    1.458   .     S
C97    C107    1.418   .     A
C97    C129    1.454   .     S
C97    C99     1.393   .     A
C98    C100    1.398   .     A
C98    C131    1.454   .     S
C98    C108    1.409   .     A
C99    C101    1.397   .     A
C99    C133    1.453   .     S
C100   C135    1.452   .     S
C100   C102    1.418   .     A
C101   C103    1.393   .     A
C102   C104    1.404   .     A
C103   H109    1.085   .     S
C103   C105    1.390   .     A
C104   C106    1.385   .     A
C104   H110    1.083   .     S
C105   C137    1.498   .     S
C105   C107    1.416   .     A
C106   C141    1.491   .     S
C106   C108    1.406   .     A
C107   C348    1.455   1_545 S
C108   C347    1.455   .     S
N113   Zn124   2.018   .     S
N114   Zn123   2.018   .     S
O115   Zn123   1.989   .     S
O116   Zn124   1.989   .     S
O117   Zn124   1.981   .     S
O118   Zn123   1.981   .     S
O119   Zn123   1.982   .     S
O120   Zn124   1.982   .     S
O121   Zn124   1.988   .     S
O122   Zn123   1.988   .     S
C125   N126    1.157   .     T
C125   C175    1.457   .     S
C127   N128    1.158   .     T
C129   N370    1.157   1_545 S
N130   C369    1.157   .     S
C131   N372    1.157   .     S
N132   C371    1.157   1_545 S
C133   N134    1.157   .     T
C135   N136    1.158   .     T
C137   O138    1.224   .     D
C137   O379    1.399   1_545 S
O139   C377    1.399   .     S
H140   O219    1.014   .     S
C141   O142    1.221   .     D
C141   O383    1.398   .     S
O143   H144    1.011   .     S
O143   C381    1.398   1_545 S
C145   N146    1.155   .     T
C147   N148    1.158   .     T
C149   N150    1.158   .     T
C151   N152    1.158   .     T
C153   O155    1.398   .     S
C153   O154    1.223   .     D
O155   H156    1.014   .     S
C157   O158    1.223   .     D
C157   O159    1.398   .     S
O159   H160    1.014   .     S
C161   C181    1.426   .     S
C161   O197    1.288   .     A
C161   O195    1.286   .     A
C162   C182    1.464   .     S
C162   O198    1.298   .     A
C162   O196    1.295   .     A
C163   H191    1.082   .     S
C163   C165    1.403   .     A
C163   C171    1.408   .     A
C164   C172    1.408   .     A
C164   H192    1.082   .     S
C164   C166    1.404   .     A
C165   N193    1.364   .     A
C165   C225    1.433   .     S
C166   C227    1.438   .     S
C166   N194    1.367   .     A
C167   N193    1.373   .     A
C167   C169    1.426   .     A
C167   C229    1.443   .     S
C168   N194    1.372   .     A
C168   C231    1.442   .     S
C168   C170    1.425   .     A
C169   C233    1.489   .     S
C169   C171    1.424   .     A
C170   C237    1.488   .     S
C170   C172    1.424   .     A
C171   C652    1.528   1_554 S
C172   C651    1.528   .     S
C173   O201    1.288   .     A
C173   C175    1.406   .     S
C173   O199    1.275   .     A
C174   O202    1.285   .     A
C174   C176    1.404   .     S
C174   O200    1.277   .     A
C176   C15     1.352   1_655 S
C176   C47     1.458   1_655 S
C177   C187    1.418   .     A
C177   C209    1.454   .     S
C177   C179    1.393   .     A
C178   C180    1.398   .     A
C178   C211    1.454   .     S
C178   C188    1.409   .     A
C179   C181    1.397   .     A
C179   C213    1.453   .     S
C180   C215    1.452   .     S
C180   C182    1.418   .     A
C181   C183    1.393   .     A
C182   C184    1.404   .     A
C183   H189    1.085   .     S
C183   C185    1.390   .     A
C184   C186    1.385   .     A
C184   H190    1.083   .     S
C185   C217    1.498   .     S
C185   C187    1.416   .     A
C186   C221    1.491   .     S
C186   C188    1.406   .     A
C187   C428    1.455   1_545 S
C188   C427    1.455   .     S
N193   Zn204   2.018   .     S
N194   Zn203   2.018   .     S
O195   Zn203   1.989   .     S
O196   Zn204   1.989   .     S
O197   Zn204   1.981   .     S
O198   Zn203   1.981   .     S
O199   Zn203   1.982   .     S
O200   Zn204   1.982   .     S
O201   Zn204   1.988   .     S
O202   Zn203   1.988   .     S
C205   N206    1.157   .     T
C205   C15     1.457   1_655 S
C207   N208    1.158   .     T
C209   N450    1.157   1_545 S
N210   C449    1.157   .     S
C211   N452    1.157   .     S
N212   C451    1.157   1_545 S
C213   N214    1.157   .     T
C215   N216    1.158   .     T
C217   O218    1.224   .     D
C217   O459    1.399   1_545 S
O219   C457    1.399   .     S
H220   O59     1.014   1_655 S
C221   O222    1.221   .     D
C221   O463    1.398   .     S
O223   H224    1.011   .     S
O223   C461    1.398   1_545 S
C225   N226    1.155   .     T
C227   N228    1.158   .     T
C229   N230    1.158   .     T
C231   N232    1.158   .     T
C233   O235    1.398   .     S
C233   O234    1.223   .     D
O235   H236    1.014   .     S
C237   O238    1.223   .     D
C237   O239    1.398   .     S
O239   H240    1.014   .     S
C241   C261    1.426   .     S
C241   O277    1.288   .     A
C241   O275    1.286   .     A
C242   C262    1.464   .     S
C242   O278    1.298   .     A
C242   O276    1.295   .     A
C243   H271    1.082   .     S
C243   C245    1.403   .     A
C243   C251    1.408   .     A
C244   C252    1.408   .     A
C244   H272    1.082   .     S
C244   C246    1.404   .     A
C245   N273    1.364   .     A
C245   C305    1.433   .     S
C246   C307    1.438   .     S
C246   N274    1.367   .     A
C247   N273    1.373   .     A
C247   C249    1.426   .     A
C247   C309    1.443   .     S
C248   N274    1.372   .     A
C248   C311    1.442   .     S
C248   C250    1.425   .     A
C249   C313    1.489   .     S
C249   C251    1.424   .     A
C250   C317    1.488   .     S
C250   C252    1.424   .     A
C251   C732    1.528   1_554 S
C252   C731    1.528   .     S
C253   O281    1.288   .     A
C253   C255    1.406   .     S
C253   O279    1.275   .     A
C254   O282    1.285   .     A
C254   C256    1.404   .     S
C254   O280    1.277   .     A
C255   C416    1.352   1_455 S
C255   C445    1.457   1_455 S
C256   C335    1.352   .     S
C256   C367    1.458   .     S
C257   C267    1.418   .     A
C257   C289    1.454   .     S
C257   C259    1.393   .     A
C258   C260    1.398   .     A
C258   C291    1.454   .     S
C258   C268    1.409   .     A
C259   C261    1.397   .     A
C259   C293    1.453   .     S
C260   C295    1.452   .     S
C260   C262    1.418   .     A
C261   C263    1.393   .     A
C262   C264    1.404   .     A
C263   H269    1.085   .     S
C263   C265    1.390   .     A
C264   C266    1.385   .     A
C264   H270    1.083   .     S
C265   C297    1.498   .     S
C265   C267    1.416   .     A
C266   C301    1.491   .     S
C266   C268    1.406   .     A
C268   C27     1.455   1_565 S
N273   Zn284   2.018   .     S
N274   Zn283   2.018   .     S
O275   Zn283   1.989   .     S
O276   Zn284   1.989   .     S
O277   Zn284   1.981   .     S
O278   Zn283   1.981   .     S
O279   Zn283   1.982   .     S
O280   Zn284   1.982   .     S
O281   Zn284   1.988   .     S
O282   Zn283   1.988   .     S
C285   N286    1.157   .     T
C285   C335    1.457   .     S
C287   N288    1.158   .     T
C287   C416    1.458   1_455 S
N290   C49     1.157   1_565 S
C291   N52     1.157   1_565 S
C293   N294    1.157   .     T
C295   N296    1.158   .     T
C297   O298    1.224   .     D
O299   C57     1.399   1_565 S
O299   H460    1.014   1_455 S
H300   O379    1.014   .     S
C301   O302    1.221   .     D
C301   O63     1.398   1_565 S
O303   H304    1.011   .     S
C305   N306    1.155   .     T
C307   N308    1.158   .     T
C309   N310    1.158   .     T
C311   N312    1.158   .     T
C313   O315    1.398   .     S
C313   O314    1.223   .     D
O315   H316    1.014   .     S
C317   O318    1.223   .     D
C317   O319    1.398   .     S
O319   H320    1.014   .     S
C321   C341    1.426   .     S
C321   O357    1.288   .     A
C321   O355    1.286   .     A
C322   C342    1.464   .     S
C322   O358    1.298   .     A
C322   O356    1.295   .     A
C323   H351    1.082   .     S
C323   C325    1.403   .     A
C323   C331    1.408   .     A
C324   C332    1.408   .     A
C324   H352    1.082   .     S
C324   C326    1.404   .     A
C325   N353    1.364   .     A
C325   C385    1.433   .     S
C326   C387    1.438   .     S
C326   N354    1.367   .     A
C327   N353    1.373   .     A
C327   C329    1.426   .     A
C327   C389    1.443   .     S
C328   N354    1.372   .     A
C328   C391    1.442   .     S
C328   C330    1.425   .     A
C329   C393    1.489   .     S
C329   C331    1.424   .     A
C330   C397    1.488   .     S
C330   C332    1.424   .     A
C331   C812    1.528   1_554 S
C332   C811    1.528   .     S
C333   O361    1.288   .     A
C333   C335    1.406   .     S
C333   O359    1.275   .     A
C334   O362    1.285   .     A
C334   C336    1.404   .     S
C334   O360    1.277   .     A
C336   C415    1.352   .     S
C336   C447    1.458   .     S
C337   C347    1.418   .     A
C337   C369    1.454   .     S
C337   C339    1.393   .     A
C338   C340    1.398   .     A
C338   C371    1.454   .     S
C338   C348    1.409   .     A
C339   C341    1.397   .     A
C339   C373    1.453   .     S
C340   C375    1.452   .     S
C340   C342    1.418   .     A
C341   C343    1.393   .     A
C342   C344    1.404   .     A
C343   H349    1.085   .     S
C343   C345    1.390   .     A
C344   C346    1.385   .     A
C344   H350    1.083   .     S
C345   C377    1.498   .     S
C345   C347    1.416   .     A
C346   C381    1.491   .     S
C346   C348    1.406   .     A
C348   C107    1.455   1_565 S
N353   Zn364   2.018   .     S
N354   Zn363   2.018   .     S
O355   Zn363   1.989   .     S
O356   Zn364   1.989   .     S
O357   Zn364   1.981   .     S
O358   Zn363   1.981   .     S
O359   Zn363   1.982   .     S
O360   Zn364   1.982   .     S
O361   Zn364   1.988   .     S
O362   Zn363   1.988   .     S
C365   N366    1.157   .     T
C365   C415    1.457   .     S
C367   N368    1.158   .     T
N370   C129    1.157   1_565 S
C371   N132    1.157   1_565 S
C373   N374    1.157   .     T
C375   N376    1.158   .     T
C377   O378    1.224   .     D
O379   C137    1.399   1_565 S
H380   O459    1.014   .     S
C381   O382    1.221   .     D
C381   O143    1.398   1_565 S
O383   H384    1.011   .     S
C385   N386    1.155   .     T
C387   N388    1.158   .     T
C389   N390    1.158   .     T
C391   N392    1.158   .     T
C393   O395    1.398   .     S
C393   O394    1.223   .     D
O395   H396    1.014   .     S
C397   O398    1.223   .     D
C397   O399    1.398   .     S
O399   H400    1.014   .     S
C401   C421    1.426   .     S
C401   O437    1.288   .     A
C401   O435    1.286   .     A
C402   C422    1.464   .     S
C402   O438    1.298   .     A
C402   O436    1.295   .     A
C403   H431    1.082   .     S
C403   C405    1.403   .     A
C403   C411    1.408   .     A
C404   C412    1.408   .     A
C404   H432    1.082   .     S
C404   C406    1.404   .     A
C405   N433    1.364   .     A
C405   C465    1.433   .     S
C406   C467    1.438   .     S
C406   N434    1.367   .     A
C407   N433    1.373   .     A
C407   C409    1.426   .     A
C407   C469    1.443   .     S
C408   N434    1.372   .     A
C408   C471    1.442   .     S
C408   C410    1.425   .     A
C409   C473    1.489   .     S
C409   C411    1.424   .     A
C410   C477    1.488   .     S
C410   C412    1.424   .     A
C411   C892    1.528   1_554 S
C412   C891    1.528   .     S
C413   O441    1.288   .     A
C413   C415    1.406   .     S
C413   O439    1.275   .     A
C414   O442    1.285   .     A
C414   C416    1.404   .     S
C414   O440    1.277   .     A
C416   C255    1.352   1_655 S
C416   C287    1.458   1_655 S
C417   C427    1.418   .     A
C417   C449    1.454   .     S
C417   C419    1.393   .     A
C418   C420    1.398   .     A
C418   C451    1.454   .     S
C418   C428    1.409   .     A
C419   C421    1.397   .     A
C419   C453    1.453   .     S
C420   C455    1.452   .     S
C420   C422    1.418   .     A
C421   C423    1.393   .     A
C422   C424    1.404   .     A
C423   H429    1.085   .     S
C423   C425    1.390   .     A
C424   C426    1.385   .     A
C424   H430    1.083   .     S
C425   C457    1.498   .     S
C425   C427    1.416   .     A
C426   C461    1.491   .     S
C426   C428    1.406   .     A
C428   C187    1.455   1_565 S
N433   Zn444   2.018   .     S
N434   Zn443   2.018   .     S
O435   Zn443   1.989   .     S
O436   Zn444   1.989   .     S
O437   Zn444   1.981   .     S
O438   Zn443   1.981   .     S
O439   Zn443   1.982   .     S
O440   Zn444   1.982   .     S
O441   Zn444   1.988   .     S
O442   Zn443   1.988   .     S
C445   N446    1.157   .     T
C445   C255    1.457   1_655 S
C447   N448    1.158   .     T
N450   C209    1.157   1_565 S
C451   N212    1.157   1_565 S
C453   N454    1.157   .     T
C455   N456    1.158   .     T
C457   O458    1.224   .     D
O459   C217    1.399   1_565 S
H460   O299    1.014   1_655 S
C461   O462    1.221   .     D
C461   O223    1.398   1_565 S
O463   H464    1.011   .     S
C465   N466    1.155   .     T
C467   N468    1.158   .     T
C469   N470    1.158   .     T
C471   N472    1.158   .     T
C473   O475    1.398   .     S
C473   O474    1.223   .     D
O475   H476    1.014   .     S
C477   O478    1.223   .     D
C477   O479    1.398   .     S
O479   H480    1.014   .     S
C481   C501    1.426   .     S
C481   O517    1.288   .     A
C481   O515    1.286   .     A
C482   C502    1.464   .     S
C482   O518    1.298   .     A
C482   O516    1.295   .     A
C483   H511    1.082   .     S
C483   C485    1.403   .     A
C483   C491    1.408   .     A
C484   C492    1.408   .     A
C484   H512    1.082   .     S
C484   C486    1.404   .     A
C485   N513    1.364   .     A
C485   C545    1.433   .     S
C486   C547    1.438   .     S
C486   N514    1.367   .     A
C487   N513    1.373   .     A
C487   C489    1.426   .     A
C487   C549    1.443   .     S
C488   N514    1.372   .     A
C488   C551    1.442   .     S
C488   C490    1.425   .     A
C489   C553    1.489   .     S
C489   C491    1.424   .     A
C490   C557    1.488   .     S
C490   C492    1.424   .     A
C492   C11     1.528   1_556 S
C493   O521    1.288   .     A
C493   C495    1.406   .     S
C493   O519    1.275   .     A
C494   O522    1.285   .     A
C494   C496    1.404   .     S
C494   O520    1.277   .     A
C495   C656    1.352   1_455 S
C495   C685    1.457   1_455 S
C496   C575    1.352   .     S
C496   C607    1.458   .     S
C497   C507    1.418   .     A
C497   C529    1.454   .     S
C497   C499    1.393   .     A
C498   C500    1.398   .     A
C498   C531    1.454   .     S
C498   C508    1.409   .     A
C499   C501    1.397   .     A
C499   C533    1.453   .     S
C500   C535    1.452   .     S
C500   C502    1.418   .     A
C501   C503    1.393   .     A
C502   C504    1.404   .     A
C503   H509    1.085   .     S
C503   C505    1.390   .     A
C504   C506    1.385   .     A
C504   H510    1.083   .     S
C505   C537    1.498   .     S
C505   C507    1.416   .     A
C506   C541    1.491   .     S
C506   C508    1.406   .     A
C507   C748    1.455   1_545 S
C508   C747    1.455   .     S
N513   Zn524   2.018   .     S
N514   Zn523   2.018   .     S
O515   Zn523   1.989   .     S
O516   Zn524   1.989   .     S
O517   Zn524   1.981   .     S
O518   Zn523   1.981   .     S
O519   Zn523   1.982   .     S
O520   Zn524   1.982   .     S
O521   Zn524   1.988   .     S
O522   Zn523   1.988   .     S
C525   N526    1.157   .     T
C525   C575    1.457   .     S
C527   N528    1.158   .     T
C527   C656    1.458   1_455 S
C529   N770    1.157   1_545 S
N530   C769    1.157   .     S
C531   N772    1.157   .     S
N532   C771    1.157   1_545 S
C533   N534    1.157   .     T
C535   N536    1.158   .     T
C537   O538    1.224   .     D
C537   O779    1.399   1_545 S
O539   C777    1.399   .     S
O539   H700    1.014   1_455 S
H540   O619    1.014   .     S
C541   O542    1.221   .     D
C541   O783    1.398   .     S
O543   H544    1.011   .     S
O543   C781    1.398   1_545 S
C545   N546    1.155   .     T
C547   N548    1.158   .     T
C549   N550    1.158   .     T
C551   N552    1.158   .     T
C553   O555    1.398   .     S
C553   O554    1.223   .     D
O555   H556    1.014   .     S
C557   O558    1.223   .     D
C557   O559    1.398   .     S
O559   H560    1.014   .     S
C561   C581    1.426   .     S
C561   O597    1.288   .     A
C561   O595    1.286   .     A
C562   C582    1.464   .     S
C562   O598    1.298   .     A
C562   O596    1.295   .     A
C563   H591    1.082   .     S
C563   C565    1.403   .     A
C563   C571    1.408   .     A
C564   C572    1.408   .     A
C564   H592    1.082   .     S
C564   C566    1.404   .     A
C565   N593    1.364   .     A
C565   C625    1.433   .     S
C566   C627    1.438   .     S
C566   N594    1.367   .     A
C567   N593    1.373   .     A
C567   C569    1.426   .     A
C567   C629    1.443   .     S
C568   N594    1.372   .     A
C568   C631    1.442   .     S
C568   C570    1.425   .     A
C569   C633    1.489   .     S
C569   C571    1.424   .     A
C570   C637    1.488   .     S
C570   C572    1.424   .     A
C572   C91     1.528   1_556 S
C573   O601    1.288   .     A
C573   C575    1.406   .     S
C573   O599    1.275   .     A
C574   O602    1.285   .     A
C574   C576    1.404   .     S
C574   O600    1.277   .     A
C576   C655    1.352   .     S
C576   C687    1.458   .     S
C577   C587    1.418   .     A
C577   C609    1.454   .     S
C577   C579    1.393   .     A
C578   C580    1.398   .     A
C578   C611    1.454   .     S
C578   C588    1.409   .     A
C579   C581    1.397   .     A
C579   C613    1.453   .     S
C580   C615    1.452   .     S
C580   C582    1.418   .     A
C581   C583    1.393   .     A
C582   C584    1.404   .     A
C583   H589    1.085   .     S
C583   C585    1.390   .     A
C584   C586    1.385   .     A
C584   H590    1.083   .     S
C585   C617    1.498   .     S
C585   C587    1.416   .     A
C586   C621    1.491   .     S
C586   C588    1.406   .     A
C587   C828    1.455   1_545 S
C588   C827    1.455   .     S
N593   Zn604   2.018   .     S
N594   Zn603   2.018   .     S
O595   Zn603   1.989   .     S
O596   Zn604   1.989   .     S
O597   Zn604   1.981   .     S
O598   Zn603   1.981   .     S
O599   Zn603   1.982   .     S
O600   Zn604   1.982   .     S
O601   Zn604   1.988   .     S
O602   Zn603   1.988   .     S
C605   N606    1.157   .     T
C605   C655    1.457   .     S
C607   N608    1.158   .     T
C609   N850    1.157   1_545 S
N610   C849    1.157   .     S
C611   N852    1.157   .     S
N612   C851    1.157   1_545 S
C613   N614    1.157   .     T
C615   N616    1.158   .     T
C617   O618    1.224   .     D
C617   O859    1.399   1_545 S
O619   C857    1.399   .     S
H620   O699    1.014   .     S
C621   O622    1.221   .     D
C621   O863    1.398   .     S
O623   H624    1.011   .     S
O623   C861    1.398   1_545 S
C625   N626    1.155   .     T
C627   N628    1.158   .     T
C629   N630    1.158   .     T
C631   N632    1.158   .     T
C633   O635    1.398   .     S
C633   O634    1.223   .     D
O635   H636    1.014   .     S
C637   O638    1.223   .     D
C637   O639    1.398   .     S
O639   H640    1.014   .     S
C641   C661    1.426   .     S
C641   O677    1.288   .     A
C641   O675    1.286   .     A
C642   C662    1.464   .     S
C642   O678    1.298   .     A
C642   O676    1.295   .     A
C643   H671    1.082   .     S
C643   C645    1.403   .     A
C643   C651    1.408   .     A
C644   C652    1.408   .     A
C644   H672    1.082   .     S
C644   C646    1.404   .     A
C645   N673    1.364   .     A
C645   C705    1.433   .     S
C646   C707    1.438   .     S
C646   N674    1.367   .     A
C647   N673    1.373   .     A
C647   C649    1.426   .     A
C647   C709    1.443   .     S
C648   N674    1.372   .     A
C648   C711    1.442   .     S
C648   C650    1.425   .     A
C649   C713    1.489   .     S
C649   C651    1.424   .     A
C650   C717    1.488   .     S
C650   C652    1.424   .     A
C652   C171    1.528   1_556 S
C653   O681    1.288   .     A
C653   C655    1.406   .     S
C653   O679    1.275   .     A
C654   O682    1.285   .     A
C654   C656    1.404   .     S
C654   O680    1.277   .     A
C656   C495    1.352   1_655 S
C656   C527    1.458   1_655 S
C657   C667    1.418   .     A
C657   C689    1.454   .     S
C657   C659    1.393   .     A
C658   C660    1.398   .     A
C658   C691    1.454   .     S
C658   C668    1.409   .     A
C659   C661    1.397   .     A
C659   C693    1.453   .     S
C660   C695    1.452   .     S
C660   C662    1.418   .     A
C661   C663    1.393   .     A
C662   C664    1.404   .     A
C663   H669    1.085   .     S
C663   C665    1.390   .     A
C664   C666    1.385   .     A
C664   H670    1.083   .     S
C665   C697    1.498   .     S
C665   C667    1.416   .     A
C666   C701    1.491   .     S
C666   C668    1.406   .     A
C667   C908    1.455   1_545 S
C668   C907    1.455   .     S
N673   Zn684   2.018   .     S
N674   Zn683   2.018   .     S
O675   Zn683   1.989   .     S
O676   Zn684   1.989   .     S
O677   Zn684   1.981   .     S
O678   Zn683   1.981   .     S
O679   Zn683   1.982   .     S
O680   Zn684   1.982   .     S
O681   Zn684   1.988   .     S
O682   Zn683   1.988   .     S
C685   N686    1.157   .     T
C685   C495    1.457   1_655 S
C687   N688    1.158   .     T
C689   N930    1.157   1_545 S
N690   C929    1.157   .     S
C691   N932    1.157   .     S
N692   C931    1.157   1_545 S
C693   N694    1.157   .     T
C695   N696    1.158   .     T
C697   O698    1.224   .     D
C697   O939    1.399   1_545 S
O699   C937    1.399   .     S
H700   O539    1.014   1_655 S
C701   O702    1.221   .     D
C701   O943    1.398   .     S
O703   H704    1.011   .     S
O703   C941    1.398   1_545 S
C705   N706    1.155   .     T
C707   N708    1.158   .     T
C709   N710    1.158   .     T
C711   N712    1.158   .     T
C713   O715    1.398   .     S
C713   O714    1.223   .     D
O715   H716    1.014   .     S
C717   O718    1.223   .     D
C717   O719    1.398   .     S
O719   H720    1.014   .     S
C721   C741    1.426   .     S
C721   O757    1.288   .     A
C721   O755    1.286   .     A
C722   C742    1.464   .     S
C722   O758    1.298   .     A
C722   O756    1.295   .     A
C723   H751    1.082   .     S
C723   C725    1.403   .     A
C723   C731    1.408   .     A
C724   C732    1.408   .     A
C724   H752    1.082   .     S
C724   C726    1.404   .     A
C725   N753    1.364   .     A
C725   C785    1.433   .     S
C726   C787    1.438   .     S
C726   N754    1.367   .     A
C727   N753    1.373   .     A
C727   C729    1.426   .     A
C727   C789    1.443   .     S
C728   N754    1.372   .     A
C728   C791    1.442   .     S
C728   C730    1.425   .     A
C729   C793    1.489   .     S
C729   C731    1.424   .     A
C730   C797    1.488   .     S
C730   C732    1.424   .     A
C732   C251    1.528   1_556 S
C733   O761    1.288   .     A
C733   C735    1.406   .     S
C733   O759    1.275   .     A
C734   O762    1.285   .     A
C734   C736    1.404   .     S
C734   O760    1.277   .     A
C735   C896    1.352   1_455 S
C735   C925    1.457   1_455 S
C736   C815    1.352   .     S
C736   C847    1.458   .     S
C737   C747    1.418   .     A
C737   C769    1.454   .     S
C737   C739    1.393   .     A
C738   C740    1.398   .     A
C738   C771    1.454   .     S
C738   C748    1.409   .     A
C739   C741    1.397   .     A
C739   C773    1.453   .     S
C740   C775    1.452   .     S
C740   C742    1.418   .     A
C741   C743    1.393   .     A
C742   C744    1.404   .     A
C743   H749    1.085   .     S
C743   C745    1.390   .     A
C744   C746    1.385   .     A
C744   H750    1.083   .     S
C745   C777    1.498   .     S
C745   C747    1.416   .     A
C746   C781    1.491   .     S
C746   C748    1.406   .     A
C748   C507    1.455   1_565 S
N753   Zn764   2.018   .     S
N754   Zn763   2.018   .     S
O755   Zn763   1.989   .     S
O756   Zn764   1.989   .     S
O757   Zn764   1.981   .     S
O758   Zn763   1.981   .     S
O759   Zn763   1.982   .     S
O760   Zn764   1.982   .     S
O761   Zn764   1.988   .     S
O762   Zn763   1.988   .     S
C765   N766    1.157   .     T
C765   C815    1.457   .     S
C767   N768    1.158   .     T
C767   C896    1.458   1_455 S
N770   C529    1.157   1_565 S
C771   N532    1.157   1_565 S
C773   N774    1.157   .     T
C775   N776    1.158   .     T
C777   O778    1.224   .     D
O779   C537    1.399   1_565 S
O779   H940    1.014   1_455 S
H780   O859    1.014   .     S
C781   O782    1.221   .     D
C781   O543    1.398   1_565 S
O783   H784    1.011   .     S
C785   N786    1.155   .     T
C787   N788    1.158   .     T
C789   N790    1.158   .     T
C791   N792    1.158   .     T
C793   O795    1.398   .     S
C793   O794    1.223   .     D
O795   H796    1.014   .     S
C797   O798    1.223   .     D
C797   O799    1.398   .     S
O799   H800    1.014   .     S
C801   C821    1.426   .     S
C801   O837    1.288   .     A
C801   O835    1.286   .     A
C802   C822    1.464   .     S
C802   O838    1.298   .     A
C802   O836    1.295   .     A
C803   H831    1.082   .     S
C803   C805    1.403   .     A
C803   C811    1.408   .     A
C804   C812    1.408   .     A
C804   H832    1.082   .     S
C804   C806    1.404   .     A
C805   N833    1.364   .     A
C805   C865    1.433   .     S
C806   C867    1.438   .     S
C806   N834    1.367   .     A
C807   N833    1.373   .     A
C807   C809    1.426   .     A
C807   C869    1.443   .     S
C808   N834    1.372   .     A
C808   C871    1.442   .     S
C808   C810    1.425   .     A
C809   C873    1.489   .     S
C809   C811    1.424   .     A
C810   C877    1.488   .     S
C810   C812    1.424   .     A
C812   C331    1.528   1_556 S
C813   O841    1.288   .     A
C813   C815    1.406   .     S
C813   O839    1.275   .     A
C814   O842    1.285   .     A
C814   C816    1.404   .     S
C814   O840    1.277   .     A
C816   C895    1.352   .     S
C816   C927    1.458   .     S
C817   C827    1.418   .     A
C817   C849    1.454   .     S
C817   C819    1.393   .     A
C818   C820    1.398   .     A
C818   C851    1.454   .     S
C818   C828    1.409   .     A
C819   C821    1.397   .     A
C819   C853    1.453   .     S
C820   C855    1.452   .     S
C820   C822    1.418   .     A
C821   C823    1.393   .     A
C822   C824    1.404   .     A
C823   H829    1.085   .     S
C823   C825    1.390   .     A
C824   C826    1.385   .     A
C824   H830    1.083   .     S
C825   C857    1.498   .     S
C825   C827    1.416   .     A
C826   C861    1.491   .     S
C826   C828    1.406   .     A
C828   C587    1.455   1_565 S
N833   Zn844   2.018   .     S
N834   Zn843   2.018   .     S
O835   Zn843   1.989   .     S
O836   Zn844   1.989   .     S
O837   Zn844   1.981   .     S
O838   Zn843   1.981   .     S
O839   Zn843   1.982   .     S
O840   Zn844   1.982   .     S
O841   Zn844   1.988   .     S
O842   Zn843   1.988   .     S
C845   N846    1.157   .     T
C845   C895    1.457   .     S
C847   N848    1.158   .     T
N850   C609    1.157   1_565 S
C851   N612    1.157   1_565 S
C853   N854    1.157   .     T
C855   N856    1.158   .     T
C857   O858    1.224   .     D
O859   C617    1.399   1_565 S
H860   O939    1.014   .     S
C861   O862    1.221   .     D
C861   O623    1.398   1_565 S
O863   H864    1.011   .     S
C865   N866    1.155   .     T
C867   N868    1.158   .     T
C869   N870    1.158   .     T
C871   N872    1.158   .     T
C873   O875    1.398   .     S
C873   O874    1.223   .     D
O875   H876    1.014   .     S
C877   O878    1.223   .     D
C877   O879    1.398   .     S
O879   H880    1.014   .     S
C881   C901    1.426   .     S
C881   O917    1.288   .     A
C881   O915    1.286   .     A
C882   C902    1.464   .     S
C882   O918    1.298   .     A
C882   O916    1.295   .     A
C883   H911    1.082   .     S
C883   C885    1.403   .     A
C883   C891    1.408   .     A
C884   C892    1.408   .     A
C884   H912    1.082   .     S
C884   C886    1.404   .     A
C885   N913    1.364   .     A
C885   C945    1.433   .     S
C886   C947    1.438   .     S
C886   N914    1.367   .     A
C887   N913    1.373   .     A
C887   C889    1.426   .     A
C887   C949    1.443   .     S
C888   N914    1.372   .     A
C888   C951    1.442   .     S
C888   C890    1.425   .     A
C889   C953    1.489   .     S
C889   C891    1.424   .     A
C890   C957    1.488   .     S
C890   C892    1.424   .     A
C892   C411    1.528   1_556 S
C893   O921    1.288   .     A
C893   C895    1.406   .     S
C893   O919    1.275   .     A
C894   O922    1.285   .     A
C894   C896    1.404   .     S
C894   O920    1.277   .     A
C896   C735    1.352   1_655 S
C896   C767    1.458   1_655 S
C897   C907    1.418   .     A
C897   C929    1.454   .     S
C897   C899    1.393   .     A
C898   C900    1.398   .     A
C898   C931    1.454   .     S
C898   C908    1.409   .     A
C899   C901    1.397   .     A
C899   C933    1.453   .     S
C900   C935    1.452   .     S
C900   C902    1.418   .     A
C901   C903    1.393   .     A
C902   C904    1.404   .     A
C903   H909    1.085   .     S
C903   C905    1.390   .     A
C904   C906    1.385   .     A
C904   H910    1.083   .     S
C905   C937    1.498   .     S
C905   C907    1.416   .     A
C906   C941    1.491   .     S
C906   C908    1.406   .     A
C908   C667    1.455   1_565 S
N913   Zn924   2.018   .     S
N914   Zn923   2.018   .     S
O915   Zn923   1.989   .     S
O916   Zn924   1.989   .     S
O917   Zn924   1.981   .     S
O918   Zn923   1.981   .     S
O919   Zn923   1.982   .     S
O920   Zn924   1.982   .     S
O921   Zn924   1.988   .     S
O922   Zn923   1.988   .     S
C925   N926    1.157   .     T
C925   C735    1.457   1_655 S
C927   N928    1.158   .     T
N930   C689    1.157   1_565 S
C931   N692    1.157   1_565 S
C933   N934    1.157   .     T
C935   N936    1.158   .     T
C937   O938    1.224   .     D
O939   C697    1.399   1_565 S
H940   O779    1.014   1_655 S
C941   O942    1.221   .     D
C941   O703    1.398   1_565 S
O943   H944    1.011   .     S
C945   N946    1.155   .     T
C947   N948    1.158   .     T
C949   N950    1.158   .     T
C951   N952    1.158   .     T
C953   O955    1.398   .     S
C953   O954    1.223   .     D
O955   H956    1.014   .     S
C957   O958    1.223   .     D
C957   O959    1.398   .     S
O959   H960    1.014   .     S
