data_str_m3_o1_o1_pcu_sym.84
_audit_creation_date              2020-01-03
_audit_creation_method            'Materials Studio'
_symmetry_space_group_name_H-M    'P1'
_symmetry_Int_Tables_number       1
_symmetry_cell_setting            triclinic
loop_
_symmetry_equiv_pos_as_xyz
  x,y,z
_cell_length_a                    31.5596
_cell_length_b                    29.6103
_cell_length_c                    29.7486
_cell_angle_alpha                 90.3577
_cell_angle_beta                  89.3919
_cell_angle_gamma                 90.1851
loop_
_atom_site_label
_atom_site_type_symbol
_atom_site_fract_x
_atom_site_fract_y
_atom_site_fract_z
_atom_site_U_iso_or_equiv
_atom_site_adp_type
_atom_site_occupancy
C1     C     0.05937   0.18906   0.16659   0.00000  Uiso   1.00
C2     C     0.43902   0.30889   0.16721   0.00000  Uiso   1.00
C3     C     0.43898   0.19107   0.16637   0.00000  Uiso   1.00
C4     C     0.06081   0.30905   0.16618   0.00000  Uiso   1.00
C5     C     0.30966   0.43973   0.16657   0.00000  Uiso   1.00
C6     C     0.19086   0.06066   0.16708   0.00000  Uiso   1.00
C7     C     0.19043   0.43967   0.16682   0.00000  Uiso   1.00
C8     C     0.30957   0.06024   0.16661   0.00000  Uiso   1.00
C9     C     0.00076   0.28972   0.02432   0.00000  Uiso   1.00
C10    C     0.49568   0.21055   0.30878   0.00000  Uiso   1.00
C11    C     0.49685   0.21033   0.02372   0.00000  Uiso   1.00
C12    C     0.00281   0.28961   0.30943   0.00000  Uiso   1.00
C13    C     0.25266   0.03982   0.02368   0.00000  Uiso   1.00
C14    C     0.25077   0.46019   0.30972   0.00000  Uiso   1.00
C15    C     0.24844   0.46056   0.02432   0.00000  Uiso   1.00
C16    C     0.25073   0.03953   0.30902   0.00000  Uiso   1.00
C17    C     0.39988   0.12958   0.12840   0.00000  Uiso   1.00
C18    C     0.12684   0.33803   0.19815   0.00000  Uiso   1.00
C19    C     0.10034   0.37025   0.12833   0.00000  Uiso   1.00
C20    C     0.37117   0.16331   0.19739   0.00000  Uiso   1.00
C21    C     0.10293   0.13345   0.20797   0.00000  Uiso   1.00
C22    C     0.37280   0.33738   0.13537   0.00000  Uiso   1.00
C23    C     0.39891   0.36951   0.20589   0.00000  Uiso   1.00
C24    C     0.11541   0.14546   0.12727   0.00000  Uiso   1.00
C25    C     0.12864   0.40593   0.13168   0.00000  Uiso   1.00
C26    C     0.33802   0.13189   0.19600   0.00000  Uiso   1.00
C27    C     0.37233   0.09335   0.13212   0.00000  Uiso   1.00
C28    C     0.15844   0.37082   0.19879   0.00000  Uiso   1.00
C29    C     0.37001   0.40459   0.20345   0.00000  Uiso   1.00
C30    C     0.15271   0.12160   0.13077   0.00000  Uiso   1.00
C31    C     0.13261   0.09897   0.20699   0.00000  Uiso   1.00
C32    C     0.34063   0.36970   0.13533   0.00000  Uiso   1.00
C33    C     0.09638   0.33960   0.16431   0.00000  Uiso   1.00
C34    C     0.40344   0.16024   0.16476   0.00000  Uiso   1.00
C35    C     0.40347   0.33952   0.16909   0.00000  Uiso   1.00
C36    C     0.09237   0.15514   0.16705   0.00000  Uiso   1.00
C37    C     0.34127   0.09483   0.16605   0.00000  Uiso   1.00
C38    C     0.15790   0.40580   0.16681   0.00000  Uiso   1.00
C39    C     0.15845   0.09428   0.16841   0.00000  Uiso   1.00
C40    C     0.34154   0.40513   0.16730   0.00000  Uiso   1.00
N41    N     0.00000   0.25000   0.28573   0.00000  Uiso   1.00
N42    N     0.00000   0.25000   0.04760   0.00000  Uiso   1.00
N43    N     0.25000   0.00000   0.28573   0.00000  Uiso   1.00
N44    N     0.25000   0.00000   0.04760   0.00000  Uiso   1.00
O45    O     0.04581   0.20419   0.20487   0.00000  Uiso   1.00
O46    O     0.45420   0.29581   0.12846   0.00000  Uiso   1.00
O47    O     0.45420   0.29581   0.20487   0.00000  Uiso   1.00
O48    O     0.04581   0.20419   0.12846   0.00000  Uiso   1.00
O49    O     0.45420   0.20419   0.12846   0.00000  Uiso   1.00
O50    O     0.04581   0.29581   0.20487   0.00000  Uiso   1.00
O51    O     0.04581   0.29581   0.12846   0.00000  Uiso   1.00
O52    O     0.45420   0.20419   0.20487   0.00000  Uiso   1.00
O53    O     0.29581   0.45419   0.20487   0.00000  Uiso   1.00
O54    O     0.20420   0.04581   0.12846   0.00000  Uiso   1.00
O55    O     0.20420   0.04581   0.20487   0.00000  Uiso   1.00
O56    O     0.29581   0.45419   0.12846   0.00000  Uiso   1.00
O57    O     0.20420   0.45419   0.12846   0.00000  Uiso   1.00
O58    O     0.29581   0.04581   0.20487   0.00000  Uiso   1.00
O59    O     0.29581   0.04581   0.12846   0.00000  Uiso   1.00
O60    O     0.20420   0.45419   0.20487   0.00000  Uiso   1.00
Zn61   Zn    0.00000   0.25000   0.21771   0.00000  Uiso   1.00
Zn62   Zn    0.00000   0.25000   0.11563   0.00000  Uiso   1.00
Zn63   Zn    0.25000   0.00000   0.21771   0.00000  Uiso   1.00
Zn64   Zn    0.25000   0.00000   0.11563   0.00000  Uiso   1.00
N65    N     0.49602   0.33115   0.04884   0.00000  Uiso   1.00
H66    H     0.46543   0.34291   0.04331   0.00000  Uiso   1.00
H67    H     0.01609   0.35540   0.03500   0.00000  Uiso   1.00
N68    N     0.48864   0.17000   0.28354   0.00000  Uiso   1.00
H69    H     0.45950   0.15632   0.29334   0.00000  Uiso   1.00
H70    H     0.01199   0.14675   0.29141   0.00000  Uiso   1.00
N71    N     0.49190   0.16922   0.04820   0.00000  Uiso   1.00
H72    H     0.01783   0.16559   0.06865   0.00000  Uiso   1.00
H73    H     0.49141   0.14065   0.02765   0.00000  Uiso   1.00
N74    N     0.00835   0.33081   0.28513   0.00000  Uiso   1.00
H75    H     0.03822   0.34383   0.29258   0.00000  Uiso   1.00
H76    H     0.48648   0.35439   0.29699   0.00000  Uiso   1.00
N77    N     0.26212   0.08162   0.04612   0.00000  Uiso   1.00
H78    H     0.25109   0.08015   0.07883   0.00000  Uiso   1.00
H79    H     0.24427   0.10739   0.03203   0.00000  Uiso   1.00
N80    N     0.25908   0.41808   0.28747   0.00000  Uiso   1.00
H81    H     0.25018   0.42042   0.25437   0.00000  Uiso   1.00
H82    H     0.23914   0.39338   0.30090   0.00000  Uiso   1.00
N83    N     0.24563   0.41949   0.04894   0.00000  Uiso   1.00
H84    H     0.26991   0.39843   0.03751   0.00000  Uiso   1.00
H85    H     0.21666   0.40408   0.04157   0.00000  Uiso   1.00
N86    N     0.25152   0.08064   0.28430   0.00000  Uiso   1.00
H87    H     0.27778   0.09917   0.29494   0.00000  Uiso   1.00
H88    H     0.22405   0.09882   0.29213   0.00000  Uiso   1.00
N89    N     0.41865   0.13899   0.08589   0.00000  Uiso   1.00
H90    H     0.43027   0.11131   0.06872   0.00000  Uiso   1.00
C91    C     0.39249   0.16729   0.05794   0.00000  Uiso   1.00
H92    H     0.40983   0.17569   0.02654   0.00000  Uiso   1.00
H93    H     0.38461   0.19937   0.07564   0.00000  Uiso   1.00
H94    H     0.36267   0.14949   0.04899   0.00000  Uiso   1.00
N95    N     0.13015   0.29961   0.22661   0.00000  Uiso   1.00
H96    H     0.12193   0.26889   0.21275   0.00000  Uiso   1.00
C97    C     0.11981   0.30558   0.27376   0.00000  Uiso   1.00
H98    H     0.09156   0.28496   0.28261   0.00000  Uiso   1.00
H99    H     0.11337   0.34153   0.28221   0.00000  Uiso   1.00
H100   H     0.14667   0.29378   0.29431   0.00000  Uiso   1.00
N101   N     0.07903   0.36275   0.08717   0.00000  Uiso   1.00
H102   H     0.06710   0.39152   0.07276   0.00000  Uiso   1.00
C103   C     0.10320   0.33503   0.05581   0.00000  Uiso   1.00
H104   H     0.08437   0.32834   0.02538   0.00000  Uiso   1.00
H105   H     0.11109   0.30201   0.07114   0.00000  Uiso   1.00
H106   H     0.13302   0.35235   0.04557   0.00000  Uiso   1.00
N107   N     0.36858   0.20231   0.22568   0.00000  Uiso   1.00
H108   H     0.34258   0.22244   0.22007   0.00000  Uiso   1.00
C109   C     0.37796   0.19586   0.27276   0.00000  Uiso   1.00
H110   H     0.40489   0.21798   0.28219   0.00000  Uiso   1.00
H111   H     0.38609   0.16016   0.28006   0.00000  Uiso   1.00
H112   H     0.35020   0.20548   0.29398   0.00000  Uiso   1.00
N113   N     0.08322   0.14519   0.24970   0.00000  Uiso   1.00
H114   H     0.07307   0.11794   0.26833   0.00000  Uiso   1.00
C115   C     0.10672   0.17774   0.27624   0.00000  Uiso   1.00
H116   H     0.08593   0.19180   0.30311   0.00000  Uiso   1.00
H117   H     0.11797   0.20597   0.25504   0.00000  Uiso   1.00
H118   H     0.13457   0.16176   0.29202   0.00000  Uiso   1.00
N119   N     0.37047   0.29844   0.10692   0.00000  Uiso   1.00
H120   H     0.34348   0.27919   0.11137   0.00000  Uiso   1.00
C121   C     0.38296   0.30417   0.06030   0.00000  Uiso   1.00
H122   H     0.40976   0.28127   0.05228   0.00000  Uiso   1.00
H123   H     0.39248   0.33960   0.05316   0.00000  Uiso   1.00
H124   H     0.35631   0.29500   0.03787   0.00000  Uiso   1.00
N125   N     0.42106   0.36240   0.24661   0.00000  Uiso   1.00
H126   H     0.43288   0.39132   0.26138   0.00000  Uiso   1.00
C127   C     0.39836   0.33340   0.27786   0.00000  Uiso   1.00
H128   H     0.41828   0.32654   0.30739   0.00000  Uiso   1.00
H129   H     0.39041   0.30058   0.26171   0.00000  Uiso   1.00
H130   H     0.36856   0.34961   0.28973   0.00000  Uiso   1.00
N131   N     0.10110   0.15827   0.08393   0.00000  Uiso   1.00
H132   H     0.12172   0.17911   0.06670   0.00000  Uiso   1.00
C133   C     0.08653   0.12050   0.05673   0.00000  Uiso   1.00
H134   H     0.07349   0.13308   0.02474   0.00000  Uiso   1.00
H135   H     0.06130   0.10146   0.07491   0.00000  Uiso   1.00
H136   H     0.11262   0.09687   0.04834   0.00000  Uiso   1.00
N137   N     0.12945   0.44067   0.09847   0.00000  Uiso   1.00
H138   H     0.12815   0.43001   0.06549   0.00000  Uiso   1.00
C139   C     0.10255   0.47897   0.10829   0.00000  Uiso   1.00
H140   H     0.10662   0.00472   0.08159   0.00000  Uiso   1.00
H141   H     0.11152   0.49468   0.14072   0.00000  Uiso   1.00
H142   H     0.06877   0.46834   0.10973   0.00000  Uiso   1.00
N143   N     0.30055   0.13875   0.22233   0.00000  Uiso   1.00
H144   H     0.30482   0.15624   0.25192   0.00000  Uiso   1.00
C145   C     0.26483   0.15571   0.19757   0.00000  Uiso   1.00
H146   H     0.23679   0.15849   0.22029   0.00000  Uiso   1.00
H147   H     0.25660   0.13229   0.16978   0.00000  Uiso   1.00
H148   H     0.27224   0.18963   0.18371   0.00000  Uiso   1.00
N149   N     0.37227   0.05836   0.09879   0.00000  Uiso   1.00
H150   H     0.36847   0.06943   0.06630   0.00000  Uiso   1.00
C151   C     0.40521   0.02483   0.10294   0.00000  Uiso   1.00
H152   H     0.40113   0.49843   0.07665   0.00000  Uiso   1.00
H153   H     0.40317   0.00831   0.13608   0.00000  Uiso   1.00
H154   H     0.43706   0.04034   0.09885   0.00000  Uiso   1.00
N155   N     0.19127   0.36812   0.23097   0.00000  Uiso   1.00
H156   H     0.18071   0.37422   0.26331   0.00000  Uiso   1.00
C157   C     0.21990   0.32994   0.22702   0.00000  Uiso   1.00
H158   H     0.25312   0.34226   0.22677   0.00000  Uiso   1.00
H159   H     0.21447   0.31009   0.19574   0.00000  Uiso   1.00
H160   H     0.21575   0.30714   0.25624   0.00000  Uiso   1.00
N161   N     0.36728   0.43722   0.23910   0.00000  Uiso   1.00
H162   H     0.36986   0.42514   0.27132   0.00000  Uiso   1.00
C163   C     0.39030   0.47879   0.23168   0.00000  Uiso   1.00
H164   H     0.38855   0.00022   0.26241   0.00000  Uiso   1.00
H165   H     0.37556   0.49786   0.20412   0.00000  Uiso   1.00
H166   H     0.42411   0.47175   0.22362   0.00000  Uiso   1.00
N167   N     0.18525   0.12696   0.09773   0.00000  Uiso   1.00
H168   H     0.17759   0.11634   0.06584   0.00000  Uiso   1.00
C169   C     0.20719   0.17010   0.09865   0.00000  Uiso   1.00
H170   H     0.24173   0.16450   0.09438   0.00000  Uiso   1.00
H171   H     0.20188   0.18843   0.13098   0.00000  Uiso   1.00
H172   H     0.19633   0.19172   0.07068   0.00000  Uiso   1.00
N173   N     0.13800   0.07079   0.24539   0.00000  Uiso   1.00
H174   H     0.13830   0.08683   0.27617   0.00000  Uiso   1.00
C175   C     0.11310   0.02972   0.24528   0.00000  Uiso   1.00
H176   H     0.11974   0.01012   0.27611   0.00000  Uiso   1.00
H177   H     0.12177   0.00844   0.21586   0.00000  Uiso   1.00
H178   H     0.07873   0.03767   0.24449   0.00000  Uiso   1.00
N179   N     0.30621   0.36517   0.10503   0.00000  Uiso   1.00
H180   H     0.31388   0.35090   0.07444   0.00000  Uiso   1.00
C181   C     0.26827   0.34563   0.12452   0.00000  Uiso   1.00
H182   H     0.24409   0.34044   0.09813   0.00000  Uiso   1.00
H183   H     0.25475   0.36885   0.15017   0.00000  Uiso   1.00
H184   H     0.27535   0.31239   0.13983   0.00000  Uiso   1.00
C185   C     0.55937   0.18906   0.16659   0.00000  Uiso   1.00
C186   C     0.93902   0.30889   0.16721   0.00000  Uiso   1.00
C187   C     0.93898   0.19107   0.16637   0.00000  Uiso   1.00
C188   C     0.56081   0.30905   0.16618   0.00000  Uiso   1.00
C189   C     0.80966   0.43973   0.16657   0.00000  Uiso   1.00
C190   C     0.69086   0.06066   0.16708   0.00000  Uiso   1.00
C191   C     0.69043   0.43967   0.16682   0.00000  Uiso   1.00
C192   C     0.80957   0.06024   0.16661   0.00000  Uiso   1.00
C193   C     0.50076   0.28972   0.02432   0.00000  Uiso   1.00
C194   C     0.99568   0.21055   0.30878   0.00000  Uiso   1.00
C195   C     0.99685   0.21033   0.02372   0.00000  Uiso   1.00
C196   C     0.50281   0.28961   0.30943   0.00000  Uiso   1.00
C197   C     0.75266   0.03982   0.02368   0.00000  Uiso   1.00
C198   C     0.75077   0.46019   0.30972   0.00000  Uiso   1.00
C199   C     0.74844   0.46056   0.02432   0.00000  Uiso   1.00
C200   C     0.75073   0.03953   0.30902   0.00000  Uiso   1.00
C201   C     0.89988   0.12958   0.12840   0.00000  Uiso   1.00
C202   C     0.62684   0.33803   0.19815   0.00000  Uiso   1.00
C203   C     0.60034   0.37025   0.12833   0.00000  Uiso   1.00
C204   C     0.87117   0.16331   0.19739   0.00000  Uiso   1.00
C205   C     0.60293   0.13345   0.20797   0.00000  Uiso   1.00
C206   C     0.87280   0.33738   0.13537   0.00000  Uiso   1.00
C207   C     0.89891   0.36951   0.20589   0.00000  Uiso   1.00
C208   C     0.61541   0.14546   0.12727   0.00000  Uiso   1.00
C209   C     0.62864   0.40593   0.13168   0.00000  Uiso   1.00
C210   C     0.83802   0.13189   0.19600   0.00000  Uiso   1.00
C211   C     0.87233   0.09335   0.13212   0.00000  Uiso   1.00
C212   C     0.65844   0.37082   0.19879   0.00000  Uiso   1.00
C213   C     0.87001   0.40459   0.20345   0.00000  Uiso   1.00
C214   C     0.65271   0.12160   0.13077   0.00000  Uiso   1.00
C215   C     0.63261   0.09897   0.20699   0.00000  Uiso   1.00
C216   C     0.84063   0.36970   0.13533   0.00000  Uiso   1.00
C217   C     0.59638   0.33960   0.16431   0.00000  Uiso   1.00
C218   C     0.90344   0.16024   0.16476   0.00000  Uiso   1.00
C219   C     0.90347   0.33952   0.16909   0.00000  Uiso   1.00
C220   C     0.59237   0.15514   0.16705   0.00000  Uiso   1.00
C221   C     0.84127   0.09483   0.16605   0.00000  Uiso   1.00
C222   C     0.65790   0.40580   0.16681   0.00000  Uiso   1.00
C223   C     0.65845   0.09428   0.16841   0.00000  Uiso   1.00
C224   C     0.84154   0.40513   0.16730   0.00000  Uiso   1.00
N225   N     0.50000   0.25000   0.28573   0.00000  Uiso   1.00
N226   N     0.50000   0.25000   0.04760   0.00000  Uiso   1.00
N227   N     0.75000   0.00000   0.28573   0.00000  Uiso   1.00
N228   N     0.75000   0.00000   0.04760   0.00000  Uiso   1.00
O229   O     0.54581   0.20419   0.20487   0.00000  Uiso   1.00
O230   O     0.95420   0.29581   0.12846   0.00000  Uiso   1.00
O231   O     0.95420   0.29581   0.20487   0.00000  Uiso   1.00
O232   O     0.54581   0.20419   0.12846   0.00000  Uiso   1.00
O233   O     0.95420   0.20419   0.12846   0.00000  Uiso   1.00
O234   O     0.54581   0.29581   0.20487   0.00000  Uiso   1.00
O235   O     0.54581   0.29581   0.12846   0.00000  Uiso   1.00
O236   O     0.95420   0.20419   0.20487   0.00000  Uiso   1.00
O237   O     0.79581   0.45419   0.20487   0.00000  Uiso   1.00
O238   O     0.70420   0.04581   0.12846   0.00000  Uiso   1.00
O239   O     0.70420   0.04581   0.20487   0.00000  Uiso   1.00
O240   O     0.79581   0.45419   0.12846   0.00000  Uiso   1.00
O241   O     0.70420   0.45419   0.12846   0.00000  Uiso   1.00
O242   O     0.79581   0.04581   0.20487   0.00000  Uiso   1.00
O243   O     0.79581   0.04581   0.12846   0.00000  Uiso   1.00
O244   O     0.70420   0.45419   0.20487   0.00000  Uiso   1.00
Zn245  Zn    0.50000   0.25000   0.21771   0.00000  Uiso   1.00
Zn246  Zn    0.50000   0.25000   0.11563   0.00000  Uiso   1.00
Zn247  Zn    0.75000   0.00000   0.21771   0.00000  Uiso   1.00
Zn248  Zn    0.75000   0.00000   0.11563   0.00000  Uiso   1.00
N249   N     0.99602   0.33115   0.04884   0.00000  Uiso   1.00
H250   H     0.96543   0.34291   0.04331   0.00000  Uiso   1.00
H251   H     0.51609   0.35540   0.03500   0.00000  Uiso   1.00
N252   N     0.98864   0.17000   0.28354   0.00000  Uiso   1.00
H253   H     0.95950   0.15632   0.29334   0.00000  Uiso   1.00
H254   H     0.51199   0.14675   0.29141   0.00000  Uiso   1.00
N255   N     0.99190   0.16922   0.04820   0.00000  Uiso   1.00
H256   H     0.51783   0.16559   0.06865   0.00000  Uiso   1.00
H257   H     0.99141   0.14065   0.02765   0.00000  Uiso   1.00
N258   N     0.50835   0.33081   0.28513   0.00000  Uiso   1.00
H259   H     0.53822   0.34383   0.29258   0.00000  Uiso   1.00
H260   H     0.98648   0.35439   0.29699   0.00000  Uiso   1.00
N261   N     0.76212   0.08162   0.04612   0.00000  Uiso   1.00
H262   H     0.75109   0.08015   0.07883   0.00000  Uiso   1.00
H263   H     0.74427   0.10739   0.03203   0.00000  Uiso   1.00
N264   N     0.75908   0.41808   0.28747   0.00000  Uiso   1.00
H265   H     0.75018   0.42042   0.25437   0.00000  Uiso   1.00
H266   H     0.73914   0.39338   0.30090   0.00000  Uiso   1.00
N267   N     0.74563   0.41949   0.04894   0.00000  Uiso   1.00
H268   H     0.76991   0.39843   0.03751   0.00000  Uiso   1.00
H269   H     0.71666   0.40408   0.04157   0.00000  Uiso   1.00
N270   N     0.75152   0.08064   0.28430   0.00000  Uiso   1.00
H271   H     0.77778   0.09917   0.29494   0.00000  Uiso   1.00
H272   H     0.72405   0.09882   0.29213   0.00000  Uiso   1.00
N273   N     0.91865   0.13899   0.08589   0.00000  Uiso   1.00
H274   H     0.93027   0.11131   0.06872   0.00000  Uiso   1.00
C275   C     0.89249   0.16729   0.05794   0.00000  Uiso   1.00
H276   H     0.90983   0.17569   0.02654   0.00000  Uiso   1.00
H277   H     0.88461   0.19937   0.07564   0.00000  Uiso   1.00
H278   H     0.86267   0.14949   0.04899   0.00000  Uiso   1.00
N279   N     0.63015   0.29961   0.22661   0.00000  Uiso   1.00
H280   H     0.62193   0.26889   0.21275   0.00000  Uiso   1.00
C281   C     0.61981   0.30558   0.27376   0.00000  Uiso   1.00
H282   H     0.59156   0.28496   0.28261   0.00000  Uiso   1.00
H283   H     0.61337   0.34153   0.28221   0.00000  Uiso   1.00
H284   H     0.64667   0.29378   0.29431   0.00000  Uiso   1.00
N285   N     0.57903   0.36275   0.08717   0.00000  Uiso   1.00
H286   H     0.56710   0.39152   0.07276   0.00000  Uiso   1.00
C287   C     0.60320   0.33503   0.05581   0.00000  Uiso   1.00
H288   H     0.58437   0.32834   0.02538   0.00000  Uiso   1.00
H289   H     0.61109   0.30201   0.07114   0.00000  Uiso   1.00
H290   H     0.63302   0.35235   0.04557   0.00000  Uiso   1.00
N291   N     0.86858   0.20231   0.22568   0.00000  Uiso   1.00
H292   H     0.84258   0.22244   0.22007   0.00000  Uiso   1.00
C293   C     0.87796   0.19586   0.27276   0.00000  Uiso   1.00
H294   H     0.90489   0.21798   0.28219   0.00000  Uiso   1.00
H295   H     0.88609   0.16016   0.28006   0.00000  Uiso   1.00
H296   H     0.85020   0.20548   0.29398   0.00000  Uiso   1.00
N297   N     0.58322   0.14519   0.24970   0.00000  Uiso   1.00
H298   H     0.57307   0.11794   0.26833   0.00000  Uiso   1.00
C299   C     0.60672   0.17774   0.27624   0.00000  Uiso   1.00
H300   H     0.58593   0.19180   0.30311   0.00000  Uiso   1.00
H301   H     0.61797   0.20597   0.25504   0.00000  Uiso   1.00
H302   H     0.63457   0.16176   0.29202   0.00000  Uiso   1.00
N303   N     0.87047   0.29844   0.10692   0.00000  Uiso   1.00
H304   H     0.84348   0.27919   0.11137   0.00000  Uiso   1.00
C305   C     0.88296   0.30417   0.06030   0.00000  Uiso   1.00
H306   H     0.90976   0.28127   0.05228   0.00000  Uiso   1.00
H307   H     0.89248   0.33960   0.05316   0.00000  Uiso   1.00
H308   H     0.85631   0.29500   0.03787   0.00000  Uiso   1.00
N309   N     0.92106   0.36240   0.24661   0.00000  Uiso   1.00
H310   H     0.93288   0.39132   0.26138   0.00000  Uiso   1.00
C311   C     0.89836   0.33340   0.27786   0.00000  Uiso   1.00
H312   H     0.91828   0.32654   0.30739   0.00000  Uiso   1.00
H313   H     0.89041   0.30058   0.26171   0.00000  Uiso   1.00
H314   H     0.86856   0.34961   0.28973   0.00000  Uiso   1.00
N315   N     0.60110   0.15827   0.08393   0.00000  Uiso   1.00
H316   H     0.62172   0.17911   0.06670   0.00000  Uiso   1.00
C317   C     0.58653   0.12050   0.05673   0.00000  Uiso   1.00
H318   H     0.57349   0.13308   0.02474   0.00000  Uiso   1.00
H319   H     0.56130   0.10146   0.07491   0.00000  Uiso   1.00
H320   H     0.61262   0.09687   0.04834   0.00000  Uiso   1.00
N321   N     0.62945   0.44067   0.09847   0.00000  Uiso   1.00
H322   H     0.62815   0.43001   0.06549   0.00000  Uiso   1.00
C323   C     0.60255   0.47897   0.10829   0.00000  Uiso   1.00
H324   H     0.60662   0.00472   0.08159   0.00000  Uiso   1.00
H325   H     0.61152   0.49468   0.14072   0.00000  Uiso   1.00
H326   H     0.56877   0.46834   0.10973   0.00000  Uiso   1.00
N327   N     0.80055   0.13875   0.22233   0.00000  Uiso   1.00
H328   H     0.80482   0.15624   0.25192   0.00000  Uiso   1.00
C329   C     0.76483   0.15571   0.19757   0.00000  Uiso   1.00
H330   H     0.73679   0.15849   0.22029   0.00000  Uiso   1.00
H331   H     0.75660   0.13229   0.16978   0.00000  Uiso   1.00
H332   H     0.77224   0.18963   0.18371   0.00000  Uiso   1.00
N333   N     0.87227   0.05836   0.09879   0.00000  Uiso   1.00
H334   H     0.86847   0.06943   0.06630   0.00000  Uiso   1.00
C335   C     0.90521   0.02483   0.10294   0.00000  Uiso   1.00
H336   H     0.90113   0.49843   0.07665   0.00000  Uiso   1.00
H337   H     0.90317   0.00831   0.13608   0.00000  Uiso   1.00
H338   H     0.93706   0.04034   0.09885   0.00000  Uiso   1.00
N339   N     0.69127   0.36812   0.23097   0.00000  Uiso   1.00
H340   H     0.68071   0.37422   0.26331   0.00000  Uiso   1.00
C341   C     0.71990   0.32994   0.22702   0.00000  Uiso   1.00
H342   H     0.75312   0.34226   0.22677   0.00000  Uiso   1.00
H343   H     0.71447   0.31009   0.19574   0.00000  Uiso   1.00
H344   H     0.71575   0.30714   0.25624   0.00000  Uiso   1.00
N345   N     0.86728   0.43722   0.23910   0.00000  Uiso   1.00
H346   H     0.86986   0.42514   0.27132   0.00000  Uiso   1.00
C347   C     0.89030   0.47879   0.23168   0.00000  Uiso   1.00
H348   H     0.88855   0.00022   0.26241   0.00000  Uiso   1.00
H349   H     0.87556   0.49786   0.20412   0.00000  Uiso   1.00
H350   H     0.92411   0.47175   0.22362   0.00000  Uiso   1.00
N351   N     0.68525   0.12696   0.09773   0.00000  Uiso   1.00
H352   H     0.67759   0.11634   0.06584   0.00000  Uiso   1.00
C353   C     0.70719   0.17010   0.09865   0.00000  Uiso   1.00
H354   H     0.74173   0.16450   0.09438   0.00000  Uiso   1.00
H355   H     0.70188   0.18843   0.13098   0.00000  Uiso   1.00
H356   H     0.69633   0.19172   0.07068   0.00000  Uiso   1.00
N357   N     0.63800   0.07079   0.24539   0.00000  Uiso   1.00
H358   H     0.63830   0.08683   0.27617   0.00000  Uiso   1.00
C359   C     0.61310   0.02972   0.24528   0.00000  Uiso   1.00
H360   H     0.61974   0.01012   0.27611   0.00000  Uiso   1.00
H361   H     0.62177   0.00844   0.21586   0.00000  Uiso   1.00
H362   H     0.57873   0.03767   0.24449   0.00000  Uiso   1.00
N363   N     0.80621   0.36517   0.10503   0.00000  Uiso   1.00
H364   H     0.81388   0.35090   0.07444   0.00000  Uiso   1.00
C365   C     0.76827   0.34563   0.12452   0.00000  Uiso   1.00
H366   H     0.74409   0.34044   0.09813   0.00000  Uiso   1.00
H367   H     0.75475   0.36885   0.15017   0.00000  Uiso   1.00
H368   H     0.77535   0.31239   0.13983   0.00000  Uiso   1.00
C369   C     0.05937   0.68906   0.16659   0.00000  Uiso   1.00
C370   C     0.43902   0.80889   0.16721   0.00000  Uiso   1.00
C371   C     0.43898   0.69107   0.16637   0.00000  Uiso   1.00
C372   C     0.06081   0.80905   0.16618   0.00000  Uiso   1.00
C373   C     0.30966   0.93973   0.16657   0.00000  Uiso   1.00
C374   C     0.19086   0.56066   0.16708   0.00000  Uiso   1.00
C375   C     0.19043   0.93967   0.16682   0.00000  Uiso   1.00
C376   C     0.30957   0.56024   0.16661   0.00000  Uiso   1.00
C377   C     0.00076   0.78972   0.02432   0.00000  Uiso   1.00
C378   C     0.49568   0.71055   0.30878   0.00000  Uiso   1.00
C379   C     0.49685   0.71033   0.02372   0.00000  Uiso   1.00
C380   C     0.00281   0.78961   0.30943   0.00000  Uiso   1.00
C381   C     0.25266   0.53982   0.02368   0.00000  Uiso   1.00
C382   C     0.25077   0.96019   0.30972   0.00000  Uiso   1.00
C383   C     0.24844   0.96056   0.02432   0.00000  Uiso   1.00
C384   C     0.25073   0.53953   0.30902   0.00000  Uiso   1.00
C385   C     0.39988   0.62958   0.12840   0.00000  Uiso   1.00
C386   C     0.12684   0.83803   0.19815   0.00000  Uiso   1.00
C387   C     0.10034   0.87025   0.12833   0.00000  Uiso   1.00
C388   C     0.37117   0.66331   0.19739   0.00000  Uiso   1.00
C389   C     0.10293   0.63345   0.20797   0.00000  Uiso   1.00
C390   C     0.37280   0.83738   0.13537   0.00000  Uiso   1.00
C391   C     0.39891   0.86951   0.20589   0.00000  Uiso   1.00
C392   C     0.11541   0.64546   0.12727   0.00000  Uiso   1.00
C393   C     0.12864   0.90593   0.13168   0.00000  Uiso   1.00
C394   C     0.33802   0.63189   0.19600   0.00000  Uiso   1.00
C395   C     0.37233   0.59335   0.13212   0.00000  Uiso   1.00
C396   C     0.15844   0.87082   0.19879   0.00000  Uiso   1.00
C397   C     0.37001   0.90459   0.20345   0.00000  Uiso   1.00
C398   C     0.15271   0.62160   0.13077   0.00000  Uiso   1.00
C399   C     0.13261   0.59897   0.20699   0.00000  Uiso   1.00
C400   C     0.34063   0.86970   0.13533   0.00000  Uiso   1.00
C401   C     0.09638   0.83960   0.16431   0.00000  Uiso   1.00
C402   C     0.40344   0.66024   0.16476   0.00000  Uiso   1.00
C403   C     0.40347   0.83952   0.16909   0.00000  Uiso   1.00
C404   C     0.09237   0.65514   0.16705   0.00000  Uiso   1.00
C405   C     0.34127   0.59483   0.16605   0.00000  Uiso   1.00
C406   C     0.15790   0.90580   0.16681   0.00000  Uiso   1.00
C407   C     0.15845   0.59428   0.16841   0.00000  Uiso   1.00
C408   C     0.34154   0.90513   0.16730   0.00000  Uiso   1.00
N409   N     0.00000   0.75000   0.28573   0.00000  Uiso   1.00
N410   N     0.00000   0.75000   0.04760   0.00000  Uiso   1.00
N411   N     0.25000   0.50000   0.28573   0.00000  Uiso   1.00
N412   N     0.25000   0.50000   0.04760   0.00000  Uiso   1.00
O413   O     0.04581   0.70419   0.20487   0.00000  Uiso   1.00
O414   O     0.45420   0.79581   0.12846   0.00000  Uiso   1.00
O415   O     0.45420   0.79581   0.20487   0.00000  Uiso   1.00
O416   O     0.04581   0.70419   0.12846   0.00000  Uiso   1.00
O417   O     0.45420   0.70419   0.12846   0.00000  Uiso   1.00
O418   O     0.04581   0.79581   0.20487   0.00000  Uiso   1.00
O419   O     0.04581   0.79581   0.12846   0.00000  Uiso   1.00
O420   O     0.45420   0.70419   0.20487   0.00000  Uiso   1.00
O421   O     0.29581   0.95419   0.20487   0.00000  Uiso   1.00
O422   O     0.20420   0.54581   0.12846   0.00000  Uiso   1.00
O423   O     0.20420   0.54581   0.20487   0.00000  Uiso   1.00
O424   O     0.29581   0.95419   0.12846   0.00000  Uiso   1.00
O425   O     0.20420   0.95419   0.12846   0.00000  Uiso   1.00
O426   O     0.29581   0.54581   0.20487   0.00000  Uiso   1.00
O427   O     0.29581   0.54581   0.12846   0.00000  Uiso   1.00
O428   O     0.20420   0.95419   0.20487   0.00000  Uiso   1.00
Zn429  Zn    0.00000   0.75000   0.21771   0.00000  Uiso   1.00
Zn430  Zn    0.00000   0.75000   0.11563   0.00000  Uiso   1.00
Zn431  Zn    0.25000   0.50000   0.21771   0.00000  Uiso   1.00
Zn432  Zn    0.25000   0.50000   0.11563   0.00000  Uiso   1.00
N433   N     0.49602   0.83115   0.04884   0.00000  Uiso   1.00
H434   H     0.46543   0.84291   0.04331   0.00000  Uiso   1.00
H435   H     0.01609   0.85540   0.03500   0.00000  Uiso   1.00
N436   N     0.48864   0.67000   0.28354   0.00000  Uiso   1.00
H437   H     0.45950   0.65632   0.29334   0.00000  Uiso   1.00
H438   H     0.01199   0.64675   0.29141   0.00000  Uiso   1.00
N439   N     0.49190   0.66922   0.04820   0.00000  Uiso   1.00
H440   H     0.01783   0.66559   0.06865   0.00000  Uiso   1.00
H441   H     0.49141   0.64065   0.02765   0.00000  Uiso   1.00
N442   N     0.00835   0.83081   0.28513   0.00000  Uiso   1.00
H443   H     0.03822   0.84383   0.29258   0.00000  Uiso   1.00
H444   H     0.48648   0.85439   0.29699   0.00000  Uiso   1.00
N445   N     0.26212   0.58162   0.04612   0.00000  Uiso   1.00
H446   H     0.25109   0.58015   0.07883   0.00000  Uiso   1.00
H447   H     0.24427   0.60739   0.03203   0.00000  Uiso   1.00
N448   N     0.25908   0.91808   0.28747   0.00000  Uiso   1.00
H449   H     0.25018   0.92042   0.25437   0.00000  Uiso   1.00
H450   H     0.23914   0.89338   0.30090   0.00000  Uiso   1.00
N451   N     0.24563   0.91949   0.04894   0.00000  Uiso   1.00
H452   H     0.26991   0.89843   0.03751   0.00000  Uiso   1.00
H453   H     0.21666   0.90408   0.04157   0.00000  Uiso   1.00
N454   N     0.25152   0.58064   0.28430   0.00000  Uiso   1.00
H455   H     0.27778   0.59917   0.29494   0.00000  Uiso   1.00
H456   H     0.22405   0.59882   0.29213   0.00000  Uiso   1.00
N457   N     0.41865   0.63899   0.08589   0.00000  Uiso   1.00
H458   H     0.43027   0.61131   0.06872   0.00000  Uiso   1.00
C459   C     0.39249   0.66729   0.05794   0.00000  Uiso   1.00
H460   H     0.40983   0.67569   0.02654   0.00000  Uiso   1.00
H461   H     0.38461   0.69937   0.07564   0.00000  Uiso   1.00
H462   H     0.36267   0.64949   0.04899   0.00000  Uiso   1.00
N463   N     0.13015   0.79961   0.22661   0.00000  Uiso   1.00
H464   H     0.12193   0.76889   0.21275   0.00000  Uiso   1.00
C465   C     0.11981   0.80558   0.27376   0.00000  Uiso   1.00
H466   H     0.09156   0.78496   0.28261   0.00000  Uiso   1.00
H467   H     0.11337   0.84153   0.28221   0.00000  Uiso   1.00
H468   H     0.14667   0.79378   0.29431   0.00000  Uiso   1.00
N469   N     0.07903   0.86275   0.08717   0.00000  Uiso   1.00
H470   H     0.06710   0.89152   0.07276   0.00000  Uiso   1.00
C471   C     0.10320   0.83503   0.05581   0.00000  Uiso   1.00
H472   H     0.08437   0.82834   0.02538   0.00000  Uiso   1.00
H473   H     0.11109   0.80201   0.07114   0.00000  Uiso   1.00
H474   H     0.13302   0.85235   0.04557   0.00000  Uiso   1.00
N475   N     0.36858   0.70231   0.22568   0.00000  Uiso   1.00
H476   H     0.34258   0.72244   0.22007   0.00000  Uiso   1.00
C477   C     0.37796   0.69586   0.27276   0.00000  Uiso   1.00
H478   H     0.40489   0.71798   0.28219   0.00000  Uiso   1.00
H479   H     0.38609   0.66016   0.28006   0.00000  Uiso   1.00
H480   H     0.35020   0.70548   0.29398   0.00000  Uiso   1.00
N481   N     0.08322   0.64519   0.24970   0.00000  Uiso   1.00
H482   H     0.07307   0.61794   0.26833   0.00000  Uiso   1.00
C483   C     0.10672   0.67774   0.27624   0.00000  Uiso   1.00
H484   H     0.08593   0.69180   0.30311   0.00000  Uiso   1.00
H485   H     0.11797   0.70597   0.25504   0.00000  Uiso   1.00
H486   H     0.13457   0.66176   0.29202   0.00000  Uiso   1.00
N487   N     0.37047   0.79844   0.10692   0.00000  Uiso   1.00
H488   H     0.34348   0.77919   0.11137   0.00000  Uiso   1.00
C489   C     0.38296   0.80417   0.06030   0.00000  Uiso   1.00
H490   H     0.40976   0.78127   0.05228   0.00000  Uiso   1.00
H491   H     0.39248   0.83960   0.05316   0.00000  Uiso   1.00
H492   H     0.35631   0.79500   0.03787   0.00000  Uiso   1.00
N493   N     0.42106   0.86240   0.24661   0.00000  Uiso   1.00
H494   H     0.43288   0.89132   0.26138   0.00000  Uiso   1.00
C495   C     0.39836   0.83340   0.27786   0.00000  Uiso   1.00
H496   H     0.41828   0.82654   0.30739   0.00000  Uiso   1.00
H497   H     0.39041   0.80058   0.26171   0.00000  Uiso   1.00
H498   H     0.36856   0.84961   0.28973   0.00000  Uiso   1.00
N499   N     0.10110   0.65827   0.08393   0.00000  Uiso   1.00
H500   H     0.12172   0.67911   0.06670   0.00000  Uiso   1.00
C501   C     0.08653   0.62050   0.05673   0.00000  Uiso   1.00
H502   H     0.07349   0.63308   0.02474   0.00000  Uiso   1.00
H503   H     0.06130   0.60146   0.07491   0.00000  Uiso   1.00
H504   H     0.11262   0.59687   0.04834   0.00000  Uiso   1.00
N505   N     0.12945   0.94067   0.09847   0.00000  Uiso   1.00
H506   H     0.12815   0.93001   0.06549   0.00000  Uiso   1.00
C507   C     0.10255   0.97897   0.10829   0.00000  Uiso   1.00
H508   H     0.10662   0.50472   0.08159   0.00000  Uiso   1.00
H509   H     0.11152   0.99468   0.14072   0.00000  Uiso   1.00
H510   H     0.06877   0.96834   0.10973   0.00000  Uiso   1.00
N511   N     0.30055   0.63875   0.22233   0.00000  Uiso   1.00
H512   H     0.30482   0.65624   0.25192   0.00000  Uiso   1.00
C513   C     0.26483   0.65571   0.19757   0.00000  Uiso   1.00
H514   H     0.23679   0.65849   0.22029   0.00000  Uiso   1.00
H515   H     0.25660   0.63229   0.16978   0.00000  Uiso   1.00
H516   H     0.27224   0.68963   0.18371   0.00000  Uiso   1.00
N517   N     0.37227   0.55836   0.09879   0.00000  Uiso   1.00
H518   H     0.36847   0.56943   0.06630   0.00000  Uiso   1.00
C519   C     0.40521   0.52483   0.10294   0.00000  Uiso   1.00
H520   H     0.40113   0.99843   0.07665   0.00000  Uiso   1.00
H521   H     0.40317   0.50831   0.13608   0.00000  Uiso   1.00
H522   H     0.43706   0.54034   0.09885   0.00000  Uiso   1.00
N523   N     0.19127   0.86812   0.23097   0.00000  Uiso   1.00
H524   H     0.18071   0.87422   0.26331   0.00000  Uiso   1.00
C525   C     0.21990   0.82994   0.22702   0.00000  Uiso   1.00
H526   H     0.25312   0.84226   0.22677   0.00000  Uiso   1.00
H527   H     0.21447   0.81009   0.19574   0.00000  Uiso   1.00
H528   H     0.21575   0.80714   0.25624   0.00000  Uiso   1.00
N529   N     0.36728   0.93722   0.23910   0.00000  Uiso   1.00
H530   H     0.36986   0.92514   0.27132   0.00000  Uiso   1.00
C531   C     0.39030   0.97879   0.23168   0.00000  Uiso   1.00
H532   H     0.38855   0.50022   0.26241   0.00000  Uiso   1.00
H533   H     0.37556   0.99786   0.20412   0.00000  Uiso   1.00
H534   H     0.42411   0.97175   0.22362   0.00000  Uiso   1.00
N535   N     0.18525   0.62696   0.09773   0.00000  Uiso   1.00
H536   H     0.17759   0.61634   0.06584   0.00000  Uiso   1.00
C537   C     0.20719   0.67010   0.09865   0.00000  Uiso   1.00
H538   H     0.24173   0.66450   0.09438   0.00000  Uiso   1.00
H539   H     0.20188   0.68843   0.13098   0.00000  Uiso   1.00
H540   H     0.19633   0.69172   0.07068   0.00000  Uiso   1.00
N541   N     0.13800   0.57079   0.24539   0.00000  Uiso   1.00
H542   H     0.13830   0.58683   0.27617   0.00000  Uiso   1.00
C543   C     0.11310   0.52972   0.24528   0.00000  Uiso   1.00
H544   H     0.11974   0.51012   0.27611   0.00000  Uiso   1.00
H545   H     0.12177   0.50844   0.21586   0.00000  Uiso   1.00
H546   H     0.07873   0.53767   0.24449   0.00000  Uiso   1.00
N547   N     0.30621   0.86517   0.10503   0.00000  Uiso   1.00
H548   H     0.31388   0.85090   0.07444   0.00000  Uiso   1.00
C549   C     0.26827   0.84563   0.12452   0.00000  Uiso   1.00
H550   H     0.24409   0.84044   0.09813   0.00000  Uiso   1.00
H551   H     0.25475   0.86885   0.15017   0.00000  Uiso   1.00
H552   H     0.27535   0.81239   0.13983   0.00000  Uiso   1.00
C553   C     0.55937   0.68906   0.16659   0.00000  Uiso   1.00
C554   C     0.93902   0.80889   0.16721   0.00000  Uiso   1.00
C555   C     0.93898   0.69107   0.16637   0.00000  Uiso   1.00
C556   C     0.56081   0.80905   0.16618   0.00000  Uiso   1.00
C557   C     0.80966   0.93973   0.16657   0.00000  Uiso   1.00
C558   C     0.69086   0.56066   0.16708   0.00000  Uiso   1.00
C559   C     0.69043   0.93967   0.16682   0.00000  Uiso   1.00
C560   C     0.80957   0.56024   0.16661   0.00000  Uiso   1.00
C561   C     0.50076   0.78972   0.02432   0.00000  Uiso   1.00
C562   C     0.99568   0.71055   0.30878   0.00000  Uiso   1.00
C563   C     0.99685   0.71033   0.02372   0.00000  Uiso   1.00
C564   C     0.50281   0.78961   0.30943   0.00000  Uiso   1.00
C565   C     0.75266   0.53982   0.02368   0.00000  Uiso   1.00
C566   C     0.75077   0.96019   0.30972   0.00000  Uiso   1.00
C567   C     0.74844   0.96056   0.02432   0.00000  Uiso   1.00
C568   C     0.75073   0.53953   0.30902   0.00000  Uiso   1.00
C569   C     0.89988   0.62958   0.12840   0.00000  Uiso   1.00
C570   C     0.62684   0.83803   0.19815   0.00000  Uiso   1.00
C571   C     0.60034   0.87025   0.12833   0.00000  Uiso   1.00
C572   C     0.87117   0.66331   0.19739   0.00000  Uiso   1.00
C573   C     0.60293   0.63345   0.20797   0.00000  Uiso   1.00
C574   C     0.87280   0.83738   0.13537   0.00000  Uiso   1.00
C575   C     0.89891   0.86951   0.20589   0.00000  Uiso   1.00
C576   C     0.61541   0.64546   0.12727   0.00000  Uiso   1.00
C577   C     0.62864   0.90593   0.13168   0.00000  Uiso   1.00
C578   C     0.83802   0.63189   0.19600   0.00000  Uiso   1.00
C579   C     0.87233   0.59335   0.13212   0.00000  Uiso   1.00
C580   C     0.65844   0.87082   0.19879   0.00000  Uiso   1.00
C581   C     0.87001   0.90459   0.20345   0.00000  Uiso   1.00
C582   C     0.65271   0.62160   0.13077   0.00000  Uiso   1.00
C583   C     0.63261   0.59897   0.20699   0.00000  Uiso   1.00
C584   C     0.84063   0.86970   0.13533   0.00000  Uiso   1.00
C585   C     0.59638   0.83960   0.16431   0.00000  Uiso   1.00
C586   C     0.90344   0.66024   0.16476   0.00000  Uiso   1.00
C587   C     0.90347   0.83952   0.16909   0.00000  Uiso   1.00
C588   C     0.59237   0.65514   0.16705   0.00000  Uiso   1.00
C589   C     0.84127   0.59483   0.16605   0.00000  Uiso   1.00
C590   C     0.65790   0.90580   0.16681   0.00000  Uiso   1.00
C591   C     0.65845   0.59428   0.16841   0.00000  Uiso   1.00
C592   C     0.84154   0.90513   0.16730   0.00000  Uiso   1.00
N593   N     0.50000   0.75000   0.28573   0.00000  Uiso   1.00
N594   N     0.50000   0.75000   0.04760   0.00000  Uiso   1.00
N595   N     0.75000   0.50000   0.28573   0.00000  Uiso   1.00
N596   N     0.75000   0.50000   0.04760   0.00000  Uiso   1.00
O597   O     0.54581   0.70419   0.20487   0.00000  Uiso   1.00
O598   O     0.95420   0.79581   0.12846   0.00000  Uiso   1.00
O599   O     0.95420   0.79581   0.20487   0.00000  Uiso   1.00
O600   O     0.54581   0.70419   0.12846   0.00000  Uiso   1.00
O601   O     0.95420   0.70419   0.12846   0.00000  Uiso   1.00
O602   O     0.54581   0.79581   0.20487   0.00000  Uiso   1.00
O603   O     0.54581   0.79581   0.12846   0.00000  Uiso   1.00
O604   O     0.95420   0.70419   0.20487   0.00000  Uiso   1.00
O605   O     0.79581   0.95419   0.20487   0.00000  Uiso   1.00
O606   O     0.70420   0.54581   0.12846   0.00000  Uiso   1.00
O607   O     0.70420   0.54581   0.20487   0.00000  Uiso   1.00
O608   O     0.79581   0.95419   0.12846   0.00000  Uiso   1.00
O609   O     0.70420   0.95419   0.12846   0.00000  Uiso   1.00
O610   O     0.79581   0.54581   0.20487   0.00000  Uiso   1.00
O611   O     0.79581   0.54581   0.12846   0.00000  Uiso   1.00
O612   O     0.70420   0.95419   0.20487   0.00000  Uiso   1.00
Zn613  Zn    0.50000   0.75000   0.21771   0.00000  Uiso   1.00
Zn614  Zn    0.50000   0.75000   0.11563   0.00000  Uiso   1.00
Zn615  Zn    0.75000   0.50000   0.21771   0.00000  Uiso   1.00
Zn616  Zn    0.75000   0.50000   0.11563   0.00000  Uiso   1.00
N617   N     0.99602   0.83115   0.04884   0.00000  Uiso   1.00
H618   H     0.96543   0.84291   0.04331   0.00000  Uiso   1.00
H619   H     0.51609   0.85540   0.03500   0.00000  Uiso   1.00
N620   N     0.98864   0.67000   0.28354   0.00000  Uiso   1.00
H621   H     0.95950   0.65632   0.29334   0.00000  Uiso   1.00
H622   H     0.51199   0.64675   0.29141   0.00000  Uiso   1.00
N623   N     0.99190   0.66922   0.04820   0.00000  Uiso   1.00
H624   H     0.51783   0.66559   0.06865   0.00000  Uiso   1.00
H625   H     0.99141   0.64065   0.02765   0.00000  Uiso   1.00
N626   N     0.50835   0.83081   0.28513   0.00000  Uiso   1.00
H627   H     0.53822   0.84383   0.29258   0.00000  Uiso   1.00
H628   H     0.98648   0.85439   0.29699   0.00000  Uiso   1.00
N629   N     0.76212   0.58162   0.04612   0.00000  Uiso   1.00
H630   H     0.75109   0.58015   0.07883   0.00000  Uiso   1.00
H631   H     0.74427   0.60739   0.03203   0.00000  Uiso   1.00
N632   N     0.75908   0.91808   0.28747   0.00000  Uiso   1.00
H633   H     0.75018   0.92042   0.25437   0.00000  Uiso   1.00
H634   H     0.73914   0.89338   0.30090   0.00000  Uiso   1.00
N635   N     0.74563   0.91949   0.04894   0.00000  Uiso   1.00
H636   H     0.76991   0.89843   0.03751   0.00000  Uiso   1.00
H637   H     0.71666   0.90408   0.04157   0.00000  Uiso   1.00
N638   N     0.75152   0.58064   0.28430   0.00000  Uiso   1.00
H639   H     0.77778   0.59917   0.29494   0.00000  Uiso   1.00
H640   H     0.72405   0.59882   0.29213   0.00000  Uiso   1.00
N641   N     0.91865   0.63899   0.08589   0.00000  Uiso   1.00
H642   H     0.93027   0.61131   0.06872   0.00000  Uiso   1.00
C643   C     0.89249   0.66729   0.05794   0.00000  Uiso   1.00
H644   H     0.90983   0.67569   0.02654   0.00000  Uiso   1.00
H645   H     0.88461   0.69937   0.07564   0.00000  Uiso   1.00
H646   H     0.86267   0.64949   0.04899   0.00000  Uiso   1.00
N647   N     0.63015   0.79961   0.22661   0.00000  Uiso   1.00
H648   H     0.62193   0.76889   0.21275   0.00000  Uiso   1.00
C649   C     0.61981   0.80558   0.27376   0.00000  Uiso   1.00
H650   H     0.59156   0.78496   0.28261   0.00000  Uiso   1.00
H651   H     0.61337   0.84153   0.28221   0.00000  Uiso   1.00
H652   H     0.64667   0.79378   0.29431   0.00000  Uiso   1.00
N653   N     0.57903   0.86275   0.08717   0.00000  Uiso   1.00
H654   H     0.56710   0.89152   0.07276   0.00000  Uiso   1.00
C655   C     0.60320   0.83503   0.05581   0.00000  Uiso   1.00
H656   H     0.58437   0.82834   0.02538   0.00000  Uiso   1.00
H657   H     0.61109   0.80201   0.07114   0.00000  Uiso   1.00
H658   H     0.63302   0.85235   0.04557   0.00000  Uiso   1.00
N659   N     0.86858   0.70231   0.22568   0.00000  Uiso   1.00
H660   H     0.84258   0.72244   0.22007   0.00000  Uiso   1.00
C661   C     0.87796   0.69586   0.27276   0.00000  Uiso   1.00
H662   H     0.90489   0.71798   0.28219   0.00000  Uiso   1.00
H663   H     0.88609   0.66016   0.28006   0.00000  Uiso   1.00
H664   H     0.85020   0.70548   0.29398   0.00000  Uiso   1.00
N665   N     0.58322   0.64519   0.24970   0.00000  Uiso   1.00
H666   H     0.57307   0.61794   0.26833   0.00000  Uiso   1.00
C667   C     0.60672   0.67774   0.27624   0.00000  Uiso   1.00
H668   H     0.58593   0.69180   0.30311   0.00000  Uiso   1.00
H669   H     0.61797   0.70597   0.25504   0.00000  Uiso   1.00
H670   H     0.63457   0.66176   0.29202   0.00000  Uiso   1.00
N671   N     0.87047   0.79844   0.10692   0.00000  Uiso   1.00
H672   H     0.84348   0.77919   0.11137   0.00000  Uiso   1.00
C673   C     0.88296   0.80417   0.06030   0.00000  Uiso   1.00
H674   H     0.90976   0.78127   0.05228   0.00000  Uiso   1.00
H675   H     0.89248   0.83960   0.05316   0.00000  Uiso   1.00
H676   H     0.85631   0.79500   0.03787   0.00000  Uiso   1.00
N677   N     0.92106   0.86240   0.24661   0.00000  Uiso   1.00
H678   H     0.93288   0.89132   0.26138   0.00000  Uiso   1.00
C679   C     0.89836   0.83340   0.27786   0.00000  Uiso   1.00
H680   H     0.91828   0.82654   0.30739   0.00000  Uiso   1.00
H681   H     0.89041   0.80058   0.26171   0.00000  Uiso   1.00
H682   H     0.86856   0.84961   0.28973   0.00000  Uiso   1.00
N683   N     0.60110   0.65827   0.08393   0.00000  Uiso   1.00
H684   H     0.62172   0.67911   0.06670   0.00000  Uiso   1.00
C685   C     0.58653   0.62050   0.05673   0.00000  Uiso   1.00
H686   H     0.57349   0.63308   0.02474   0.00000  Uiso   1.00
H687   H     0.56130   0.60146   0.07491   0.00000  Uiso   1.00
H688   H     0.61262   0.59687   0.04834   0.00000  Uiso   1.00
N689   N     0.62945   0.94067   0.09847   0.00000  Uiso   1.00
H690   H     0.62815   0.93001   0.06549   0.00000  Uiso   1.00
C691   C     0.60255   0.97897   0.10829   0.00000  Uiso   1.00
H692   H     0.60662   0.50472   0.08159   0.00000  Uiso   1.00
H693   H     0.61152   0.99468   0.14072   0.00000  Uiso   1.00
H694   H     0.56877   0.96834   0.10973   0.00000  Uiso   1.00
N695   N     0.80055   0.63875   0.22233   0.00000  Uiso   1.00
H696   H     0.80482   0.65624   0.25192   0.00000  Uiso   1.00
C697   C     0.76483   0.65571   0.19757   0.00000  Uiso   1.00
H698   H     0.73679   0.65849   0.22029   0.00000  Uiso   1.00
H699   H     0.75660   0.63229   0.16978   0.00000  Uiso   1.00
H700   H     0.77224   0.68963   0.18371   0.00000  Uiso   1.00
N701   N     0.87227   0.55836   0.09879   0.00000  Uiso   1.00
H702   H     0.86847   0.56943   0.06630   0.00000  Uiso   1.00
C703   C     0.90521   0.52483   0.10294   0.00000  Uiso   1.00
H704   H     0.90113   0.99843   0.07665   0.00000  Uiso   1.00
H705   H     0.90317   0.50831   0.13608   0.00000  Uiso   1.00
H706   H     0.93706   0.54034   0.09885   0.00000  Uiso   1.00
N707   N     0.69127   0.86812   0.23097   0.00000  Uiso   1.00
H708   H     0.68071   0.87422   0.26331   0.00000  Uiso   1.00
C709   C     0.71990   0.82994   0.22702   0.00000  Uiso   1.00
H710   H     0.75312   0.84226   0.22677   0.00000  Uiso   1.00
H711   H     0.71447   0.81009   0.19574   0.00000  Uiso   1.00
H712   H     0.71575   0.80714   0.25624   0.00000  Uiso   1.00
N713   N     0.86728   0.93722   0.23910   0.00000  Uiso   1.00
H714   H     0.86986   0.92514   0.27132   0.00000  Uiso   1.00
C715   C     0.89030   0.97879   0.23168   0.00000  Uiso   1.00
H716   H     0.88855   0.50022   0.26241   0.00000  Uiso   1.00
H717   H     0.87556   0.99786   0.20412   0.00000  Uiso   1.00
H718   H     0.92411   0.97175   0.22362   0.00000  Uiso   1.00
N719   N     0.68525   0.62696   0.09773   0.00000  Uiso   1.00
H720   H     0.67759   0.61634   0.06584   0.00000  Uiso   1.00
C721   C     0.70719   0.67010   0.09865   0.00000  Uiso   1.00
H722   H     0.74173   0.66450   0.09438   0.00000  Uiso   1.00
H723   H     0.70188   0.68843   0.13098   0.00000  Uiso   1.00
H724   H     0.69633   0.69172   0.07068   0.00000  Uiso   1.00
N725   N     0.63800   0.57079   0.24539   0.00000  Uiso   1.00
H726   H     0.63830   0.58683   0.27617   0.00000  Uiso   1.00
C727   C     0.61310   0.52972   0.24528   0.00000  Uiso   1.00
H728   H     0.61974   0.51012   0.27611   0.00000  Uiso   1.00
H729   H     0.62177   0.50844   0.21586   0.00000  Uiso   1.00
H730   H     0.57873   0.53767   0.24449   0.00000  Uiso   1.00
N731   N     0.80621   0.86517   0.10503   0.00000  Uiso   1.00
H732   H     0.81388   0.85090   0.07444   0.00000  Uiso   1.00
C733   C     0.76827   0.84563   0.12452   0.00000  Uiso   1.00
H734   H     0.74409   0.84044   0.09813   0.00000  Uiso   1.00
H735   H     0.75475   0.86885   0.15017   0.00000  Uiso   1.00
H736   H     0.77535   0.81239   0.13983   0.00000  Uiso   1.00
C737   C     0.05937   0.18906   0.49992   0.00000  Uiso   1.00
C738   C     0.43902   0.30889   0.50054   0.00000  Uiso   1.00
C739   C     0.43898   0.19107   0.49970   0.00000  Uiso   1.00
C740   C     0.06081   0.30905   0.49952   0.00000  Uiso   1.00
C741   C     0.30966   0.43973   0.49991   0.00000  Uiso   1.00
C742   C     0.19086   0.06066   0.50041   0.00000  Uiso   1.00
C743   C     0.19043   0.43967   0.50016   0.00000  Uiso   1.00
C744   C     0.30957   0.06024   0.49995   0.00000  Uiso   1.00
C745   C     0.00076   0.28972   0.35765   0.00000  Uiso   1.00
C746   C     0.49568   0.21055   0.64211   0.00000  Uiso   1.00
C747   C     0.49685   0.21033   0.35705   0.00000  Uiso   1.00
C748   C     0.00281   0.28961   0.64277   0.00000  Uiso   1.00
C749   C     0.25266   0.03982   0.35701   0.00000  Uiso   1.00
C750   C     0.25077   0.46019   0.64305   0.00000  Uiso   1.00
C751   C     0.24844   0.46056   0.35765   0.00000  Uiso   1.00
C752   C     0.25073   0.03953   0.64235   0.00000  Uiso   1.00
C753   C     0.39988   0.12958   0.46173   0.00000  Uiso   1.00
C754   C     0.12684   0.33803   0.53148   0.00000  Uiso   1.00
C755   C     0.10034   0.37025   0.46167   0.00000  Uiso   1.00
C756   C     0.37117   0.16331   0.53073   0.00000  Uiso   1.00
C757   C     0.10293   0.13345   0.54131   0.00000  Uiso   1.00
C758   C     0.37280   0.33738   0.46870   0.00000  Uiso   1.00
C759   C     0.39891   0.36951   0.53923   0.00000  Uiso   1.00
C760   C     0.11541   0.14546   0.46061   0.00000  Uiso   1.00
C761   C     0.12864   0.40593   0.46502   0.00000  Uiso   1.00
C762   C     0.33802   0.13189   0.52934   0.00000  Uiso   1.00
C763   C     0.37233   0.09335   0.46546   0.00000  Uiso   1.00
C764   C     0.15844   0.37082   0.53212   0.00000  Uiso   1.00
C765   C     0.37001   0.40459   0.53678   0.00000  Uiso   1.00
C766   C     0.15271   0.12160   0.46410   0.00000  Uiso   1.00
C767   C     0.13261   0.09897   0.54032   0.00000  Uiso   1.00
C768   C     0.34063   0.36970   0.46867   0.00000  Uiso   1.00
C769   C     0.09638   0.33960   0.49765   0.00000  Uiso   1.00
C770   C     0.40344   0.16024   0.49809   0.00000  Uiso   1.00
C771   C     0.40347   0.33952   0.50243   0.00000  Uiso   1.00
C772   C     0.09237   0.15514   0.50039   0.00000  Uiso   1.00
C773   C     0.34127   0.09483   0.49939   0.00000  Uiso   1.00
C774   C     0.15790   0.40580   0.50015   0.00000  Uiso   1.00
C775   C     0.15845   0.09428   0.50174   0.00000  Uiso   1.00
C776   C     0.34154   0.40513   0.50063   0.00000  Uiso   1.00
N777   N     0.00000   0.25000   0.61907   0.00000  Uiso   1.00
N778   N     0.00000   0.25000   0.38093   0.00000  Uiso   1.00
N779   N     0.25000   0.00000   0.61907   0.00000  Uiso   1.00
N780   N     0.25000   0.00000   0.38093   0.00000  Uiso   1.00
O781   O     0.04581   0.20419   0.53821   0.00000  Uiso   1.00
O782   O     0.45420   0.29581   0.46179   0.00000  Uiso   1.00
O783   O     0.45420   0.29581   0.53821   0.00000  Uiso   1.00
O784   O     0.04581   0.20419   0.46179   0.00000  Uiso   1.00
O785   O     0.45420   0.20419   0.46179   0.00000  Uiso   1.00
O786   O     0.04581   0.29581   0.53821   0.00000  Uiso   1.00
O787   O     0.04581   0.29581   0.46179   0.00000  Uiso   1.00
O788   O     0.45420   0.20419   0.53821   0.00000  Uiso   1.00
O789   O     0.29581   0.45419   0.53821   0.00000  Uiso   1.00
O790   O     0.20420   0.04581   0.46179   0.00000  Uiso   1.00
O791   O     0.20420   0.04581   0.53821   0.00000  Uiso   1.00
O792   O     0.29581   0.45419   0.46179   0.00000  Uiso   1.00
O793   O     0.20420   0.45419   0.46179   0.00000  Uiso   1.00
O794   O     0.29581   0.04581   0.53821   0.00000  Uiso   1.00
O795   O     0.29581   0.04581   0.46179   0.00000  Uiso   1.00
O796   O     0.20420   0.45419   0.53821   0.00000  Uiso   1.00
Zn797  Zn    0.00000   0.25000   0.55104   0.00000  Uiso   1.00
Zn798  Zn    0.00000   0.25000   0.44896   0.00000  Uiso   1.00
Zn799  Zn    0.25000   0.00000   0.55104   0.00000  Uiso   1.00
Zn800  Zn    0.25000   0.00000   0.44896   0.00000  Uiso   1.00
N801   N     0.49602   0.33115   0.38217   0.00000  Uiso   1.00
H802   H     0.46543   0.34291   0.37665   0.00000  Uiso   1.00
H803   H     0.01609   0.35540   0.36833   0.00000  Uiso   1.00
N804   N     0.48864   0.17000   0.61687   0.00000  Uiso   1.00
H805   H     0.45950   0.15632   0.62667   0.00000  Uiso   1.00
H806   H     0.01199   0.14675   0.62474   0.00000  Uiso   1.00
N807   N     0.49190   0.16922   0.38153   0.00000  Uiso   1.00
H808   H     0.01783   0.16559   0.40198   0.00000  Uiso   1.00
H809   H     0.49141   0.14065   0.36099   0.00000  Uiso   1.00
N810   N     0.00835   0.33081   0.61846   0.00000  Uiso   1.00
H811   H     0.03822   0.34383   0.62591   0.00000  Uiso   1.00
H812   H     0.48648   0.35439   0.63033   0.00000  Uiso   1.00
N813   N     0.26212   0.08162   0.37945   0.00000  Uiso   1.00
H814   H     0.25109   0.08015   0.41217   0.00000  Uiso   1.00
H815   H     0.24427   0.10739   0.36537   0.00000  Uiso   1.00
N816   N     0.25908   0.41808   0.62080   0.00000  Uiso   1.00
H817   H     0.25018   0.42042   0.58770   0.00000  Uiso   1.00
H818   H     0.23914   0.39338   0.63423   0.00000  Uiso   1.00
N819   N     0.24563   0.41949   0.38227   0.00000  Uiso   1.00
H820   H     0.26991   0.39843   0.37084   0.00000  Uiso   1.00
H821   H     0.21666   0.40408   0.37490   0.00000  Uiso   1.00
N822   N     0.25152   0.08064   0.61763   0.00000  Uiso   1.00
H823   H     0.27778   0.09917   0.62827   0.00000  Uiso   1.00
H824   H     0.22405   0.09882   0.62547   0.00000  Uiso   1.00
N825   N     0.41865   0.13899   0.41922   0.00000  Uiso   1.00
H826   H     0.43027   0.11131   0.40205   0.00000  Uiso   1.00
C827   C     0.39249   0.16729   0.39127   0.00000  Uiso   1.00
H828   H     0.40983   0.17569   0.35987   0.00000  Uiso   1.00
H829   H     0.38461   0.19937   0.40897   0.00000  Uiso   1.00
H830   H     0.36267   0.14949   0.38232   0.00000  Uiso   1.00
N831   N     0.13015   0.29961   0.55994   0.00000  Uiso   1.00
H832   H     0.12193   0.26889   0.54608   0.00000  Uiso   1.00
C833   C     0.11981   0.30558   0.60709   0.00000  Uiso   1.00
H834   H     0.09156   0.28496   0.61594   0.00000  Uiso   1.00
H835   H     0.11337   0.34153   0.61555   0.00000  Uiso   1.00
H836   H     0.14667   0.29378   0.62764   0.00000  Uiso   1.00
N837   N     0.07903   0.36275   0.42050   0.00000  Uiso   1.00
H838   H     0.06710   0.39152   0.40609   0.00000  Uiso   1.00
C839   C     0.10320   0.33503   0.38915   0.00000  Uiso   1.00
H840   H     0.08437   0.32834   0.35871   0.00000  Uiso   1.00
H841   H     0.11109   0.30201   0.40447   0.00000  Uiso   1.00
H842   H     0.13302   0.35235   0.37890   0.00000  Uiso   1.00
N843   N     0.36858   0.20231   0.55901   0.00000  Uiso   1.00
H844   H     0.34258   0.22244   0.55340   0.00000  Uiso   1.00
C845   C     0.37796   0.19586   0.60609   0.00000  Uiso   1.00
H846   H     0.40489   0.21798   0.61553   0.00000  Uiso   1.00
H847   H     0.38609   0.16016   0.61339   0.00000  Uiso   1.00
H848   H     0.35020   0.20548   0.62732   0.00000  Uiso   1.00
N849   N     0.08322   0.14519   0.58303   0.00000  Uiso   1.00
H850   H     0.07307   0.11794   0.60167   0.00000  Uiso   1.00
C851   C     0.10672   0.17774   0.60958   0.00000  Uiso   1.00
H852   H     0.08593   0.19180   0.63645   0.00000  Uiso   1.00
H853   H     0.11797   0.20597   0.58837   0.00000  Uiso   1.00
H854   H     0.13457   0.16176   0.62536   0.00000  Uiso   1.00
N855   N     0.37047   0.29844   0.44026   0.00000  Uiso   1.00
H856   H     0.34348   0.27919   0.44471   0.00000  Uiso   1.00
C857   C     0.38296   0.30417   0.39363   0.00000  Uiso   1.00
H858   H     0.40976   0.28127   0.38562   0.00000  Uiso   1.00
H859   H     0.39248   0.33960   0.38649   0.00000  Uiso   1.00
H860   H     0.35631   0.29500   0.37121   0.00000  Uiso   1.00
N861   N     0.42106   0.36240   0.57995   0.00000  Uiso   1.00
H862   H     0.43288   0.39132   0.59471   0.00000  Uiso   1.00
C863   C     0.39836   0.33340   0.61120   0.00000  Uiso   1.00
H864   H     0.41828   0.32654   0.64072   0.00000  Uiso   1.00
H865   H     0.39041   0.30058   0.59504   0.00000  Uiso   1.00
H866   H     0.36856   0.34961   0.62306   0.00000  Uiso   1.00
N867   N     0.10110   0.15827   0.41726   0.00000  Uiso   1.00
H868   H     0.12172   0.17911   0.40004   0.00000  Uiso   1.00
C869   C     0.08653   0.12050   0.39007   0.00000  Uiso   1.00
H870   H     0.07349   0.13308   0.35808   0.00000  Uiso   1.00
H871   H     0.06130   0.10146   0.40824   0.00000  Uiso   1.00
H872   H     0.11262   0.09687   0.38168   0.00000  Uiso   1.00
N873   N     0.12945   0.44067   0.43181   0.00000  Uiso   1.00
H874   H     0.12815   0.43001   0.39883   0.00000  Uiso   1.00
C875   C     0.10255   0.47897   0.44162   0.00000  Uiso   1.00
H876   H     0.10662   0.00472   0.41492   0.00000  Uiso   1.00
H877   H     0.11152   0.49468   0.47405   0.00000  Uiso   1.00
H878   H     0.06877   0.46834   0.44306   0.00000  Uiso   1.00
N879   N     0.30055   0.13875   0.55566   0.00000  Uiso   1.00
H880   H     0.30482   0.15624   0.58525   0.00000  Uiso   1.00
C881   C     0.26483   0.15571   0.53090   0.00000  Uiso   1.00
H882   H     0.23679   0.15849   0.55363   0.00000  Uiso   1.00
H883   H     0.25660   0.13229   0.50311   0.00000  Uiso   1.00
H884   H     0.27224   0.18963   0.51704   0.00000  Uiso   1.00
N885   N     0.37227   0.05836   0.43212   0.00000  Uiso   1.00
H886   H     0.36847   0.06943   0.39964   0.00000  Uiso   1.00
C887   C     0.40521   0.02483   0.43627   0.00000  Uiso   1.00
H888   H     0.40113   0.49843   0.40998   0.00000  Uiso   1.00
H889   H     0.40317   0.00831   0.46942   0.00000  Uiso   1.00
H890   H     0.43706   0.04034   0.43219   0.00000  Uiso   1.00
N891   N     0.19127   0.36812   0.56430   0.00000  Uiso   1.00
H892   H     0.18071   0.37422   0.59664   0.00000  Uiso   1.00
C893   C     0.21990   0.32994   0.56035   0.00000  Uiso   1.00
H894   H     0.25312   0.34226   0.56010   0.00000  Uiso   1.00
H895   H     0.21447   0.31009   0.52908   0.00000  Uiso   1.00
H896   H     0.21575   0.30714   0.58957   0.00000  Uiso   1.00
N897   N     0.36728   0.43722   0.57243   0.00000  Uiso   1.00
H898   H     0.36986   0.42514   0.60465   0.00000  Uiso   1.00
C899   C     0.39030   0.47879   0.56501   0.00000  Uiso   1.00
H900   H     0.38855   0.00022   0.59575   0.00000  Uiso   1.00
H901   H     0.37556   0.49786   0.53745   0.00000  Uiso   1.00
H902   H     0.42411   0.47175   0.55696   0.00000  Uiso   1.00
N903   N     0.18525   0.12696   0.43106   0.00000  Uiso   1.00
H904   H     0.17759   0.11634   0.39917   0.00000  Uiso   1.00
C905   C     0.20719   0.17010   0.43198   0.00000  Uiso   1.00
H906   H     0.24173   0.16450   0.42772   0.00000  Uiso   1.00
H907   H     0.20188   0.18843   0.46431   0.00000  Uiso   1.00
H908   H     0.19633   0.19172   0.40401   0.00000  Uiso   1.00
N909   N     0.13800   0.07079   0.57872   0.00000  Uiso   1.00
H910   H     0.13830   0.08683   0.60951   0.00000  Uiso   1.00
C911   C     0.11310   0.02972   0.57861   0.00000  Uiso   1.00
H912   H     0.11974   0.01012   0.60944   0.00000  Uiso   1.00
H913   H     0.12177   0.00844   0.54919   0.00000  Uiso   1.00
H914   H     0.07873   0.03767   0.57783   0.00000  Uiso   1.00
N915   N     0.30621   0.36517   0.43837   0.00000  Uiso   1.00
H916   H     0.31388   0.35090   0.40777   0.00000  Uiso   1.00
C917   C     0.26827   0.34563   0.45785   0.00000  Uiso   1.00
H918   H     0.24409   0.34044   0.43146   0.00000  Uiso   1.00
H919   H     0.25475   0.36885   0.48350   0.00000  Uiso   1.00
H920   H     0.27535   0.31239   0.47316   0.00000  Uiso   1.00
C921   C     0.55937   0.18906   0.49992   0.00000  Uiso   1.00
C922   C     0.93902   0.30889   0.50054   0.00000  Uiso   1.00
C923   C     0.93898   0.19107   0.49970   0.00000  Uiso   1.00
C924   C     0.56081   0.30905   0.49952   0.00000  Uiso   1.00
C925   C     0.80966   0.43973   0.49991   0.00000  Uiso   1.00
C926   C     0.69086   0.06066   0.50041   0.00000  Uiso   1.00
C927   C     0.69043   0.43967   0.50016   0.00000  Uiso   1.00
C928   C     0.80957   0.06024   0.49995   0.00000  Uiso   1.00
C929   C     0.50076   0.28972   0.35765   0.00000  Uiso   1.00
C930   C     0.99568   0.21055   0.64211   0.00000  Uiso   1.00
C931   C     0.99685   0.21033   0.35705   0.00000  Uiso   1.00
C932   C     0.50281   0.28961   0.64277   0.00000  Uiso   1.00
C933   C     0.75266   0.03982   0.35701   0.00000  Uiso   1.00
C934   C     0.75077   0.46019   0.64305   0.00000  Uiso   1.00
C935   C     0.74844   0.46056   0.35765   0.00000  Uiso   1.00
C936   C     0.75073   0.03953   0.64235   0.00000  Uiso   1.00
C937   C     0.89988   0.12958   0.46173   0.00000  Uiso   1.00
C938   C     0.62684   0.33803   0.53148   0.00000  Uiso   1.00
C939   C     0.60034   0.37025   0.46167   0.00000  Uiso   1.00
C940   C     0.87117   0.16331   0.53073   0.00000  Uiso   1.00
C941   C     0.60293   0.13345   0.54131   0.00000  Uiso   1.00
C942   C     0.87280   0.33738   0.46870   0.00000  Uiso   1.00
C943   C     0.89891   0.36951   0.53923   0.00000  Uiso   1.00
C944   C     0.61541   0.14546   0.46061   0.00000  Uiso   1.00
C945   C     0.62864   0.40593   0.46502   0.00000  Uiso   1.00
C946   C     0.83802   0.13189   0.52934   0.00000  Uiso   1.00
C947   C     0.87233   0.09335   0.46546   0.00000  Uiso   1.00
C948   C     0.65844   0.37082   0.53212   0.00000  Uiso   1.00
C949   C     0.87001   0.40459   0.53678   0.00000  Uiso   1.00
C950   C     0.65271   0.12160   0.46410   0.00000  Uiso   1.00
C951   C     0.63261   0.09897   0.54032   0.00000  Uiso   1.00
C952   C     0.84063   0.36970   0.46867   0.00000  Uiso   1.00
C953   C     0.59638   0.33960   0.49765   0.00000  Uiso   1.00
C954   C     0.90344   0.16024   0.49809   0.00000  Uiso   1.00
C955   C     0.90347   0.33952   0.50243   0.00000  Uiso   1.00
C956   C     0.59237   0.15514   0.50039   0.00000  Uiso   1.00
C957   C     0.84127   0.09483   0.49939   0.00000  Uiso   1.00
C958   C     0.65790   0.40580   0.50015   0.00000  Uiso   1.00
C959   C     0.65845   0.09428   0.50174   0.00000  Uiso   1.00
C960   C     0.84154   0.40513   0.50063   0.00000  Uiso   1.00
N961   N     0.50000   0.25000   0.61907   0.00000  Uiso   1.00
N962   N     0.50000   0.25000   0.38093   0.00000  Uiso   1.00
N963   N     0.75000   0.00000   0.61907   0.00000  Uiso   1.00
N964   N     0.75000   0.00000   0.38093   0.00000  Uiso   1.00
O965   O     0.54581   0.20419   0.53821   0.00000  Uiso   1.00
O966   O     0.95420   0.29581   0.46179   0.00000  Uiso   1.00
O967   O     0.95420   0.29581   0.53821   0.00000  Uiso   1.00
O968   O     0.54581   0.20419   0.46179   0.00000  Uiso   1.00
O969   O     0.95420   0.20419   0.46179   0.00000  Uiso   1.00
O970   O     0.54581   0.29581   0.53821   0.00000  Uiso   1.00
O971   O     0.54581   0.29581   0.46179   0.00000  Uiso   1.00
O972   O     0.95420   0.20419   0.53821   0.00000  Uiso   1.00
O973   O     0.79581   0.45419   0.53821   0.00000  Uiso   1.00
O974   O     0.70420   0.04581   0.46179   0.00000  Uiso   1.00
O975   O     0.70420   0.04581   0.53821   0.00000  Uiso   1.00
O976   O     0.79581   0.45419   0.46179   0.00000  Uiso   1.00
O977   O     0.70420   0.45419   0.46179   0.00000  Uiso   1.00
O978   O     0.79581   0.04581   0.53821   0.00000  Uiso   1.00
O979   O     0.79581   0.04581   0.46179   0.00000  Uiso   1.00
O980   O     0.70420   0.45419   0.53821   0.00000  Uiso   1.00
Zn981  Zn    0.50000   0.25000   0.55104   0.00000  Uiso   1.00
Zn982  Zn    0.50000   0.25000   0.44896   0.00000  Uiso   1.00
Zn983  Zn    0.75000   0.00000   0.55104   0.00000  Uiso   1.00
Zn984  Zn    0.75000   0.00000   0.44896   0.00000  Uiso   1.00
N985   N     0.99602   0.33115   0.38217   0.00000  Uiso   1.00
H986   H     0.96543   0.34291   0.37665   0.00000  Uiso   1.00
H987   H     0.51609   0.35540   0.36833   0.00000  Uiso   1.00
N988   N     0.98864   0.17000   0.61687   0.00000  Uiso   1.00
H989   H     0.95950   0.15632   0.62667   0.00000  Uiso   1.00
H990   H     0.51199   0.14675   0.62474   0.00000  Uiso   1.00
N991   N     0.99190   0.16922   0.38153   0.00000  Uiso   1.00
H992   H     0.51783   0.16559   0.40198   0.00000  Uiso   1.00
H993   H     0.99141   0.14065   0.36099   0.00000  Uiso   1.00
N994   N     0.50835   0.33081   0.61846   0.00000  Uiso   1.00
H995   H     0.53822   0.34383   0.62591   0.00000  Uiso   1.00
H996   H     0.98648   0.35439   0.63033   0.00000  Uiso   1.00
N997   N     0.76212   0.08162   0.37945   0.00000  Uiso   1.00
H998   H     0.75109   0.08015   0.41217   0.00000  Uiso   1.00
H999   H     0.74427   0.10739   0.36537   0.00000  Uiso   1.00
N1000  N     0.75908   0.41808   0.62080   0.00000  Uiso   1.00
H1001  H     0.75018   0.42042   0.58770   0.00000  Uiso   1.00
H1002  H     0.73914   0.39338   0.63423   0.00000  Uiso   1.00
N1003  N     0.74563   0.41949   0.38227   0.00000  Uiso   1.00
H1004  H     0.76991   0.39843   0.37084   0.00000  Uiso   1.00
H1005  H     0.71666   0.40408   0.37490   0.00000  Uiso   1.00
N1006  N     0.75152   0.08064   0.61763   0.00000  Uiso   1.00
H1007  H     0.77778   0.09917   0.62827   0.00000  Uiso   1.00
H1008  H     0.72405   0.09882   0.62547   0.00000  Uiso   1.00
N1009  N     0.91865   0.13899   0.41922   0.00000  Uiso   1.00
H1010  H     0.93027   0.11131   0.40205   0.00000  Uiso   1.00
C1011  C     0.89249   0.16729   0.39127   0.00000  Uiso   1.00
H1012  H     0.90983   0.17569   0.35987   0.00000  Uiso   1.00
H1013  H     0.88461   0.19937   0.40897   0.00000  Uiso   1.00
H1014  H     0.86267   0.14949   0.38232   0.00000  Uiso   1.00
N1015  N     0.63015   0.29961   0.55994   0.00000  Uiso   1.00
H1016  H     0.62193   0.26889   0.54608   0.00000  Uiso   1.00
C1017  C     0.61981   0.30558   0.60709   0.00000  Uiso   1.00
H1018  H     0.59156   0.28496   0.61594   0.00000  Uiso   1.00
H1019  H     0.61337   0.34153   0.61555   0.00000  Uiso   1.00
H1020  H     0.64667   0.29378   0.62764   0.00000  Uiso   1.00
N1021  N     0.57903   0.36275   0.42050   0.00000  Uiso   1.00
H1022  H     0.56710   0.39152   0.40609   0.00000  Uiso   1.00
C1023  C     0.60320   0.33503   0.38915   0.00000  Uiso   1.00
H1024  H     0.58437   0.32834   0.35871   0.00000  Uiso   1.00
H1025  H     0.61109   0.30201   0.40447   0.00000  Uiso   1.00
H1026  H     0.63302   0.35235   0.37890   0.00000  Uiso   1.00
N1027  N     0.86858   0.20231   0.55901   0.00000  Uiso   1.00
H1028  H     0.84258   0.22244   0.55340   0.00000  Uiso   1.00
C1029  C     0.87796   0.19586   0.60609   0.00000  Uiso   1.00
H1030  H     0.90489   0.21798   0.61553   0.00000  Uiso   1.00
H1031  H     0.88609   0.16016   0.61339   0.00000  Uiso   1.00
H1032  H     0.85020   0.20548   0.62732   0.00000  Uiso   1.00
N1033  N     0.58322   0.14519   0.58303   0.00000  Uiso   1.00
H1034  H     0.57307   0.11794   0.60167   0.00000  Uiso   1.00
C1035  C     0.60672   0.17774   0.60958   0.00000  Uiso   1.00
H1036  H     0.58593   0.19180   0.63645   0.00000  Uiso   1.00
H1037  H     0.61797   0.20597   0.58837   0.00000  Uiso   1.00
H1038  H     0.63457   0.16176   0.62536   0.00000  Uiso   1.00
N1039  N     0.87047   0.29844   0.44026   0.00000  Uiso   1.00
H1040  H     0.84348   0.27919   0.44471   0.00000  Uiso   1.00
C1041  C     0.88296   0.30417   0.39363   0.00000  Uiso   1.00
H1042  H     0.90976   0.28127   0.38562   0.00000  Uiso   1.00
H1043  H     0.89248   0.33960   0.38649   0.00000  Uiso   1.00
H1044  H     0.85631   0.29500   0.37121   0.00000  Uiso   1.00
N1045  N     0.92106   0.36240   0.57995   0.00000  Uiso   1.00
H1046  H     0.93288   0.39132   0.59471   0.00000  Uiso   1.00
C1047  C     0.89836   0.33340   0.61120   0.00000  Uiso   1.00
H1048  H     0.91828   0.32654   0.64072   0.00000  Uiso   1.00
H1049  H     0.89041   0.30058   0.59504   0.00000  Uiso   1.00
H1050  H     0.86856   0.34961   0.62306   0.00000  Uiso   1.00
N1051  N     0.60110   0.15827   0.41726   0.00000  Uiso   1.00
H1052  H     0.62172   0.17911   0.40004   0.00000  Uiso   1.00
C1053  C     0.58653   0.12050   0.39007   0.00000  Uiso   1.00
H1054  H     0.57349   0.13308   0.35808   0.00000  Uiso   1.00
H1055  H     0.56130   0.10146   0.40824   0.00000  Uiso   1.00
H1056  H     0.61262   0.09687   0.38168   0.00000  Uiso   1.00
N1057  N     0.62945   0.44067   0.43181   0.00000  Uiso   1.00
H1058  H     0.62815   0.43001   0.39883   0.00000  Uiso   1.00
C1059  C     0.60255   0.47897   0.44162   0.00000  Uiso   1.00
H1060  H     0.60662   0.00472   0.41492   0.00000  Uiso   1.00
H1061  H     0.61152   0.49468   0.47405   0.00000  Uiso   1.00
H1062  H     0.56877   0.46834   0.44306   0.00000  Uiso   1.00
N1063  N     0.80055   0.13875   0.55566   0.00000  Uiso   1.00
H1064  H     0.80482   0.15624   0.58525   0.00000  Uiso   1.00
C1065  C     0.76483   0.15571   0.53090   0.00000  Uiso   1.00
H1066  H     0.73679   0.15849   0.55363   0.00000  Uiso   1.00
H1067  H     0.75660   0.13229   0.50311   0.00000  Uiso   1.00
H1068  H     0.77224   0.18963   0.51704   0.00000  Uiso   1.00
N1069  N     0.87227   0.05836   0.43212   0.00000  Uiso   1.00
H1070  H     0.86847   0.06943   0.39964   0.00000  Uiso   1.00
C1071  C     0.90521   0.02483   0.43627   0.00000  Uiso   1.00
H1072  H     0.90113   0.49843   0.40998   0.00000  Uiso   1.00
H1073  H     0.90317   0.00831   0.46942   0.00000  Uiso   1.00
H1074  H     0.93706   0.04034   0.43219   0.00000  Uiso   1.00
N1075  N     0.69127   0.36812   0.56430   0.00000  Uiso   1.00
H1076  H     0.68071   0.37422   0.59664   0.00000  Uiso   1.00
C1077  C     0.71990   0.32994   0.56035   0.00000  Uiso   1.00
H1078  H     0.75312   0.34226   0.56010   0.00000  Uiso   1.00
H1079  H     0.71447   0.31009   0.52908   0.00000  Uiso   1.00
H1080  H     0.71575   0.30714   0.58957   0.00000  Uiso   1.00
N1081  N     0.86728   0.43722   0.57243   0.00000  Uiso   1.00
H1082  H     0.86986   0.42514   0.60465   0.00000  Uiso   1.00
C1083  C     0.89030   0.47879   0.56501   0.00000  Uiso   1.00
H1084  H     0.88855   0.00022   0.59575   0.00000  Uiso   1.00
H1085  H     0.87556   0.49786   0.53745   0.00000  Uiso   1.00
H1086  H     0.92411   0.47175   0.55696   0.00000  Uiso   1.00
N1087  N     0.68525   0.12696   0.43106   0.00000  Uiso   1.00
H1088  H     0.67759   0.11634   0.39917   0.00000  Uiso   1.00
C1089  C     0.70719   0.17010   0.43198   0.00000  Uiso   1.00
H1090  H     0.74173   0.16450   0.42772   0.00000  Uiso   1.00
H1091  H     0.70188   0.18843   0.46431   0.00000  Uiso   1.00
H1092  H     0.69633   0.19172   0.40401   0.00000  Uiso   1.00
N1093  N     0.63800   0.07079   0.57872   0.00000  Uiso   1.00
H1094  H     0.63830   0.08683   0.60951   0.00000  Uiso   1.00
C1095  C     0.61310   0.02972   0.57861   0.00000  Uiso   1.00
H1096  H     0.61974   0.01012   0.60944   0.00000  Uiso   1.00
H1097  H     0.62177   0.00844   0.54919   0.00000  Uiso   1.00
H1098  H     0.57873   0.03767   0.57783   0.00000  Uiso   1.00
N1099  N     0.80621   0.36517   0.43837   0.00000  Uiso   1.00
H1100  H     0.81388   0.35090   0.40777   0.00000  Uiso   1.00
C1101  C     0.76827   0.34563   0.45785   0.00000  Uiso   1.00
H1102  H     0.74409   0.34044   0.43146   0.00000  Uiso   1.00
H1103  H     0.75475   0.36885   0.48350   0.00000  Uiso   1.00
H1104  H     0.77535   0.31239   0.47316   0.00000  Uiso   1.00
C1105  C     0.05937   0.68906   0.49992   0.00000  Uiso   1.00
C1106  C     0.43902   0.80889   0.50054   0.00000  Uiso   1.00
C1107  C     0.43898   0.69107   0.49970   0.00000  Uiso   1.00
C1108  C     0.06081   0.80905   0.49952   0.00000  Uiso   1.00
C1109  C     0.30966   0.93973   0.49991   0.00000  Uiso   1.00
C1110  C     0.19086   0.56066   0.50041   0.00000  Uiso   1.00
C1111  C     0.19043   0.93967   0.50016   0.00000  Uiso   1.00
C1112  C     0.30957   0.56024   0.49995   0.00000  Uiso   1.00
C1113  C     0.00076   0.78972   0.35765   0.00000  Uiso   1.00
C1114  C     0.49568   0.71055   0.64211   0.00000  Uiso   1.00
C1115  C     0.49685   0.71033   0.35705   0.00000  Uiso   1.00
C1116  C     0.00281   0.78961   0.64277   0.00000  Uiso   1.00
C1117  C     0.25266   0.53982   0.35701   0.00000  Uiso   1.00
C1118  C     0.25077   0.96019   0.64305   0.00000  Uiso   1.00
C1119  C     0.24844   0.96056   0.35765   0.00000  Uiso   1.00
C1120  C     0.25073   0.53953   0.64235   0.00000  Uiso   1.00
C1121  C     0.39988   0.62958   0.46173   0.00000  Uiso   1.00
C1122  C     0.12684   0.83803   0.53148   0.00000  Uiso   1.00
C1123  C     0.10034   0.87025   0.46167   0.00000  Uiso   1.00
C1124  C     0.37117   0.66331   0.53073   0.00000  Uiso   1.00
C1125  C     0.10293   0.63345   0.54131   0.00000  Uiso   1.00
C1126  C     0.37280   0.83738   0.46870   0.00000  Uiso   1.00
C1127  C     0.39891   0.86951   0.53923   0.00000  Uiso   1.00
C1128  C     0.11541   0.64546   0.46061   0.00000  Uiso   1.00
C1129  C     0.12864   0.90593   0.46502   0.00000  Uiso   1.00
C1130  C     0.33802   0.63189   0.52934   0.00000  Uiso   1.00
C1131  C     0.37233   0.59335   0.46546   0.00000  Uiso   1.00
C1132  C     0.15844   0.87082   0.53212   0.00000  Uiso   1.00
C1133  C     0.37001   0.90459   0.53678   0.00000  Uiso   1.00
C1134  C     0.15271   0.62160   0.46410   0.00000  Uiso   1.00
C1135  C     0.13261   0.59897   0.54032   0.00000  Uiso   1.00
C1136  C     0.34063   0.86970   0.46867   0.00000  Uiso   1.00
C1137  C     0.09638   0.83960   0.49765   0.00000  Uiso   1.00
C1138  C     0.40344   0.66024   0.49809   0.00000  Uiso   1.00
C1139  C     0.40347   0.83952   0.50243   0.00000  Uiso   1.00
C1140  C     0.09237   0.65514   0.50039   0.00000  Uiso   1.00
C1141  C     0.34127   0.59483   0.49939   0.00000  Uiso   1.00
C1142  C     0.15790   0.90580   0.50015   0.00000  Uiso   1.00
C1143  C     0.15845   0.59428   0.50174   0.00000  Uiso   1.00
C1144  C     0.34154   0.90513   0.50063   0.00000  Uiso   1.00
N1145  N     0.00000   0.75000   0.61907   0.00000  Uiso   1.00
N1146  N     0.00000   0.75000   0.38093   0.00000  Uiso   1.00
N1147  N     0.25000   0.50000   0.61907   0.00000  Uiso   1.00
N1148  N     0.25000   0.50000   0.38093   0.00000  Uiso   1.00
O1149  O     0.04581   0.70419   0.53821   0.00000  Uiso   1.00
O1150  O     0.45420   0.79581   0.46179   0.00000  Uiso   1.00
O1151  O     0.45420   0.79581   0.53821   0.00000  Uiso   1.00
O1152  O     0.04581   0.70419   0.46179   0.00000  Uiso   1.00
O1153  O     0.45420   0.70419   0.46179   0.00000  Uiso   1.00
O1154  O     0.04581   0.79581   0.53821   0.00000  Uiso   1.00
O1155  O     0.04581   0.79581   0.46179   0.00000  Uiso   1.00
O1156  O     0.45420   0.70419   0.53821   0.00000  Uiso   1.00
O1157  O     0.29581   0.95419   0.53821   0.00000  Uiso   1.00
O1158  O     0.20420   0.54581   0.46179   0.00000  Uiso   1.00
O1159  O     0.20420   0.54581   0.53821   0.00000  Uiso   1.00
O1160  O     0.29581   0.95419   0.46179   0.00000  Uiso   1.00
O1161  O     0.20420   0.95419   0.46179   0.00000  Uiso   1.00
O1162  O     0.29581   0.54581   0.53821   0.00000  Uiso   1.00
O1163  O     0.29581   0.54581   0.46179   0.00000  Uiso   1.00
O1164  O     0.20420   0.95419   0.53821   0.00000  Uiso   1.00
Zn1165 Zn    0.00000   0.75000   0.55104   0.00000  Uiso   1.00
Zn1166 Zn    0.00000   0.75000   0.44896   0.00000  Uiso   1.00
Zn1167 Zn    0.25000   0.50000   0.55104   0.00000  Uiso   1.00
Zn1168 Zn    0.25000   0.50000   0.44896   0.00000  Uiso   1.00
N1169  N     0.49602   0.83115   0.38217   0.00000  Uiso   1.00
H1170  H     0.46543   0.84291   0.37665   0.00000  Uiso   1.00
H1171  H     0.01609   0.85540   0.36833   0.00000  Uiso   1.00
N1172  N     0.48864   0.67000   0.61687   0.00000  Uiso   1.00
H1173  H     0.45950   0.65632   0.62667   0.00000  Uiso   1.00
H1174  H     0.01199   0.64675   0.62474   0.00000  Uiso   1.00
N1175  N     0.49190   0.66922   0.38153   0.00000  Uiso   1.00
H1176  H     0.01783   0.66559   0.40198   0.00000  Uiso   1.00
H1177  H     0.49141   0.64065   0.36099   0.00000  Uiso   1.00
N1178  N     0.00835   0.83081   0.61846   0.00000  Uiso   1.00
H1179  H     0.03822   0.84383   0.62591   0.00000  Uiso   1.00
H1180  H     0.48648   0.85439   0.63033   0.00000  Uiso   1.00
N1181  N     0.26212   0.58162   0.37945   0.00000  Uiso   1.00
H1182  H     0.25109   0.58015   0.41217   0.00000  Uiso   1.00
H1183  H     0.24427   0.60739   0.36537   0.00000  Uiso   1.00
N1184  N     0.25908   0.91808   0.62080   0.00000  Uiso   1.00
H1185  H     0.25018   0.92042   0.58770   0.00000  Uiso   1.00
H1186  H     0.23914   0.89338   0.63423   0.00000  Uiso   1.00
N1187  N     0.24563   0.91949   0.38227   0.00000  Uiso   1.00
H1188  H     0.26991   0.89843   0.37084   0.00000  Uiso   1.00
H1189  H     0.21666   0.90408   0.37490   0.00000  Uiso   1.00
N1190  N     0.25152   0.58064   0.61763   0.00000  Uiso   1.00
H1191  H     0.27778   0.59917   0.62827   0.00000  Uiso   1.00
H1192  H     0.22405   0.59882   0.62547   0.00000  Uiso   1.00
N1193  N     0.41865   0.63899   0.41922   0.00000  Uiso   1.00
H1194  H     0.43027   0.61131   0.40205   0.00000  Uiso   1.00
C1195  C     0.39249   0.66729   0.39127   0.00000  Uiso   1.00
H1196  H     0.40983   0.67569   0.35987   0.00000  Uiso   1.00
H1197  H     0.38461   0.69937   0.40897   0.00000  Uiso   1.00
H1198  H     0.36267   0.64949   0.38232   0.00000  Uiso   1.00
N1199  N     0.13015   0.79961   0.55994   0.00000  Uiso   1.00
H1200  H     0.12193   0.76889   0.54608   0.00000  Uiso   1.00
C1201  C     0.11981   0.80558   0.60709   0.00000  Uiso   1.00
H1202  H     0.09156   0.78496   0.61594   0.00000  Uiso   1.00
H1203  H     0.11337   0.84153   0.61555   0.00000  Uiso   1.00
H1204  H     0.14667   0.79378   0.62764   0.00000  Uiso   1.00
N1205  N     0.07903   0.86275   0.42050   0.00000  Uiso   1.00
H1206  H     0.06710   0.89152   0.40609   0.00000  Uiso   1.00
C1207  C     0.10320   0.83503   0.38915   0.00000  Uiso   1.00
H1208  H     0.08437   0.82834   0.35871   0.00000  Uiso   1.00
H1209  H     0.11109   0.80201   0.40447   0.00000  Uiso   1.00
H1210  H     0.13302   0.85235   0.37890   0.00000  Uiso   1.00
N1211  N     0.36858   0.70231   0.55901   0.00000  Uiso   1.00
H1212  H     0.34258   0.72244   0.55340   0.00000  Uiso   1.00
C1213  C     0.37796   0.69586   0.60609   0.00000  Uiso   1.00
H1214  H     0.40489   0.71798   0.61553   0.00000  Uiso   1.00
H1215  H     0.38609   0.66016   0.61339   0.00000  Uiso   1.00
H1216  H     0.35020   0.70548   0.62732   0.00000  Uiso   1.00
N1217  N     0.08322   0.64519   0.58303   0.00000  Uiso   1.00
H1218  H     0.07307   0.61794   0.60167   0.00000  Uiso   1.00
C1219  C     0.10672   0.67774   0.60958   0.00000  Uiso   1.00
H1220  H     0.08593   0.69180   0.63645   0.00000  Uiso   1.00
H1221  H     0.11797   0.70597   0.58837   0.00000  Uiso   1.00
H1222  H     0.13457   0.66176   0.62536   0.00000  Uiso   1.00
N1223  N     0.37047   0.79844   0.44026   0.00000  Uiso   1.00
H1224  H     0.34348   0.77919   0.44471   0.00000  Uiso   1.00
C1225  C     0.38296   0.80417   0.39363   0.00000  Uiso   1.00
H1226  H     0.40976   0.78127   0.38562   0.00000  Uiso   1.00
H1227  H     0.39248   0.83960   0.38649   0.00000  Uiso   1.00
H1228  H     0.35631   0.79500   0.37121   0.00000  Uiso   1.00
N1229  N     0.42106   0.86240   0.57995   0.00000  Uiso   1.00
H1230  H     0.43288   0.89132   0.59471   0.00000  Uiso   1.00
C1231  C     0.39836   0.83340   0.61120   0.00000  Uiso   1.00
H1232  H     0.41828   0.82654   0.64072   0.00000  Uiso   1.00
H1233  H     0.39041   0.80058   0.59504   0.00000  Uiso   1.00
H1234  H     0.36856   0.84961   0.62306   0.00000  Uiso   1.00
N1235  N     0.10110   0.65827   0.41726   0.00000  Uiso   1.00
H1236  H     0.12172   0.67911   0.40004   0.00000  Uiso   1.00
C1237  C     0.08653   0.62050   0.39007   0.00000  Uiso   1.00
H1238  H     0.07349   0.63308   0.35808   0.00000  Uiso   1.00
H1239  H     0.06130   0.60146   0.40824   0.00000  Uiso   1.00
H1240  H     0.11262   0.59687   0.38168   0.00000  Uiso   1.00
N1241  N     0.12945   0.94067   0.43181   0.00000  Uiso   1.00
H1242  H     0.12815   0.93001   0.39883   0.00000  Uiso   1.00
C1243  C     0.10255   0.97897   0.44162   0.00000  Uiso   1.00
H1244  H     0.10662   0.50472   0.41492   0.00000  Uiso   1.00
H1245  H     0.11152   0.99468   0.47405   0.00000  Uiso   1.00
H1246  H     0.06877   0.96834   0.44306   0.00000  Uiso   1.00
N1247  N     0.30055   0.63875   0.55566   0.00000  Uiso   1.00
H1248  H     0.30482   0.65624   0.58525   0.00000  Uiso   1.00
C1249  C     0.26483   0.65571   0.53090   0.00000  Uiso   1.00
H1250  H     0.23679   0.65849   0.55363   0.00000  Uiso   1.00
H1251  H     0.25660   0.63229   0.50311   0.00000  Uiso   1.00
H1252  H     0.27224   0.68963   0.51704   0.00000  Uiso   1.00
N1253  N     0.37227   0.55836   0.43212   0.00000  Uiso   1.00
H1254  H     0.36847   0.56943   0.39964   0.00000  Uiso   1.00
C1255  C     0.40521   0.52483   0.43627   0.00000  Uiso   1.00
H1256  H     0.40113   0.99843   0.40998   0.00000  Uiso   1.00
H1257  H     0.40317   0.50831   0.46942   0.00000  Uiso   1.00
H1258  H     0.43706   0.54034   0.43219   0.00000  Uiso   1.00
N1259  N     0.19127   0.86812   0.56430   0.00000  Uiso   1.00
H1260  H     0.18071   0.87422   0.59664   0.00000  Uiso   1.00
C1261  C     0.21990   0.82994   0.56035   0.00000  Uiso   1.00
H1262  H     0.25312   0.84226   0.56010   0.00000  Uiso   1.00
H1263  H     0.21447   0.81009   0.52908   0.00000  Uiso   1.00
H1264  H     0.21575   0.80714   0.58957   0.00000  Uiso   1.00
N1265  N     0.36728   0.93722   0.57243   0.00000  Uiso   1.00
H1266  H     0.36986   0.92514   0.60465   0.00000  Uiso   1.00
C1267  C     0.39030   0.97879   0.56501   0.00000  Uiso   1.00
H1268  H     0.38855   0.50022   0.59575   0.00000  Uiso   1.00
H1269  H     0.37556   0.99786   0.53745   0.00000  Uiso   1.00
H1270  H     0.42411   0.97175   0.55696   0.00000  Uiso   1.00
N1271  N     0.18525   0.62696   0.43106   0.00000  Uiso   1.00
H1272  H     0.17759   0.61634   0.39917   0.00000  Uiso   1.00
C1273  C     0.20719   0.67010   0.43198   0.00000  Uiso   1.00
H1274  H     0.24173   0.66450   0.42772   0.00000  Uiso   1.00
H1275  H     0.20188   0.68843   0.46431   0.00000  Uiso   1.00
H1276  H     0.19633   0.69172   0.40401   0.00000  Uiso   1.00
N1277  N     0.13800   0.57079   0.57872   0.00000  Uiso   1.00
H1278  H     0.13830   0.58683   0.60951   0.00000  Uiso   1.00
C1279  C     0.11310   0.52972   0.57861   0.00000  Uiso   1.00
H1280  H     0.11974   0.51012   0.60944   0.00000  Uiso   1.00
H1281  H     0.12177   0.50844   0.54919   0.00000  Uiso   1.00
H1282  H     0.07873   0.53767   0.57783   0.00000  Uiso   1.00
N1283  N     0.30621   0.86517   0.43837   0.00000  Uiso   1.00
H1284  H     0.31388   0.85090   0.40777   0.00000  Uiso   1.00
C1285  C     0.26827   0.84563   0.45785   0.00000  Uiso   1.00
H1286  H     0.24409   0.84044   0.43146   0.00000  Uiso   1.00
H1287  H     0.25475   0.86885   0.48350   0.00000  Uiso   1.00
H1288  H     0.27535   0.81239   0.47316   0.00000  Uiso   1.00
C1289  C     0.55937   0.68906   0.49992   0.00000  Uiso   1.00
C1290  C     0.93902   0.80889   0.50054   0.00000  Uiso   1.00
C1291  C     0.93898   0.69107   0.49970   0.00000  Uiso   1.00
C1292  C     0.56081   0.80905   0.49952   0.00000  Uiso   1.00
C1293  C     0.80966   0.93973   0.49991   0.00000  Uiso   1.00
C1294  C     0.69086   0.56066   0.50041   0.00000  Uiso   1.00
C1295  C     0.69043   0.93967   0.50016   0.00000  Uiso   1.00
C1296  C     0.80957   0.56024   0.49995   0.00000  Uiso   1.00
C1297  C     0.50076   0.78972   0.35765   0.00000  Uiso   1.00
C1298  C     0.99568   0.71055   0.64211   0.00000  Uiso   1.00
C1299  C     0.99685   0.71033   0.35705   0.00000  Uiso   1.00
C1300  C     0.50281   0.78961   0.64277   0.00000  Uiso   1.00
C1301  C     0.75266   0.53982   0.35701   0.00000  Uiso   1.00
C1302  C     0.75077   0.96019   0.64305   0.00000  Uiso   1.00
C1303  C     0.74844   0.96056   0.35765   0.00000  Uiso   1.00
C1304  C     0.75073   0.53953   0.64235   0.00000  Uiso   1.00
C1305  C     0.89988   0.62958   0.46173   0.00000  Uiso   1.00
C1306  C     0.62684   0.83803   0.53148   0.00000  Uiso   1.00
C1307  C     0.60034   0.87025   0.46167   0.00000  Uiso   1.00
C1308  C     0.87117   0.66331   0.53073   0.00000  Uiso   1.00
C1309  C     0.60293   0.63345   0.54131   0.00000  Uiso   1.00
C1310  C     0.87280   0.83738   0.46870   0.00000  Uiso   1.00
C1311  C     0.89891   0.86951   0.53923   0.00000  Uiso   1.00
C1312  C     0.61541   0.64546   0.46061   0.00000  Uiso   1.00
C1313  C     0.62864   0.90593   0.46502   0.00000  Uiso   1.00
C1314  C     0.83802   0.63189   0.52934   0.00000  Uiso   1.00
C1315  C     0.87233   0.59335   0.46546   0.00000  Uiso   1.00
C1316  C     0.65844   0.87082   0.53212   0.00000  Uiso   1.00
C1317  C     0.87001   0.90459   0.53678   0.00000  Uiso   1.00
C1318  C     0.65271   0.62160   0.46410   0.00000  Uiso   1.00
C1319  C     0.63261   0.59897   0.54032   0.00000  Uiso   1.00
C1320  C     0.84063   0.86970   0.46867   0.00000  Uiso   1.00
C1321  C     0.59638   0.83960   0.49765   0.00000  Uiso   1.00
C1322  C     0.90344   0.66024   0.49809   0.00000  Uiso   1.00
C1323  C     0.90347   0.83952   0.50243   0.00000  Uiso   1.00
C1324  C     0.59237   0.65514   0.50039   0.00000  Uiso   1.00
C1325  C     0.84127   0.59483   0.49939   0.00000  Uiso   1.00
C1326  C     0.65790   0.90580   0.50015   0.00000  Uiso   1.00
C1327  C     0.65845   0.59428   0.50174   0.00000  Uiso   1.00
C1328  C     0.84154   0.90513   0.50063   0.00000  Uiso   1.00
N1329  N     0.50000   0.75000   0.61907   0.00000  Uiso   1.00
N1330  N     0.50000   0.75000   0.38093   0.00000  Uiso   1.00
N1331  N     0.75000   0.50000   0.61907   0.00000  Uiso   1.00
N1332  N     0.75000   0.50000   0.38093   0.00000  Uiso   1.00
O1333  O     0.54581   0.70419   0.53821   0.00000  Uiso   1.00
O1334  O     0.95420   0.79581   0.46179   0.00000  Uiso   1.00
O1335  O     0.95420   0.79581   0.53821   0.00000  Uiso   1.00
O1336  O     0.54581   0.70419   0.46179   0.00000  Uiso   1.00
O1337  O     0.95420   0.70419   0.46179   0.00000  Uiso   1.00
O1338  O     0.54581   0.79581   0.53821   0.00000  Uiso   1.00
O1339  O     0.54581   0.79581   0.46179   0.00000  Uiso   1.00
O1340  O     0.95420   0.70419   0.53821   0.00000  Uiso   1.00
O1341  O     0.79581   0.95419   0.53821   0.00000  Uiso   1.00
O1342  O     0.70420   0.54581   0.46179   0.00000  Uiso   1.00
O1343  O     0.70420   0.54581   0.53821   0.00000  Uiso   1.00
O1344  O     0.79581   0.95419   0.46179   0.00000  Uiso   1.00
O1345  O     0.70420   0.95419   0.46179   0.00000  Uiso   1.00
O1346  O     0.79581   0.54581   0.53821   0.00000  Uiso   1.00
O1347  O     0.79581   0.54581   0.46179   0.00000  Uiso   1.00
O1348  O     0.70420   0.95419   0.53821   0.00000  Uiso   1.00
Zn1349 Zn    0.50000   0.75000   0.55104   0.00000  Uiso   1.00
Zn1350 Zn    0.50000   0.75000   0.44896   0.00000  Uiso   1.00
Zn1351 Zn    0.75000   0.50000   0.55104   0.00000  Uiso   1.00
Zn1352 Zn    0.75000   0.50000   0.44896   0.00000  Uiso   1.00
N1353  N     0.99602   0.83115   0.38217   0.00000  Uiso   1.00
H1354  H     0.96543   0.84291   0.37665   0.00000  Uiso   1.00
H1355  H     0.51609   0.85540   0.36833   0.00000  Uiso   1.00
N1356  N     0.98864   0.67000   0.61687   0.00000  Uiso   1.00
H1357  H     0.95950   0.65632   0.62667   0.00000  Uiso   1.00
H1358  H     0.51199   0.64675   0.62474   0.00000  Uiso   1.00
N1359  N     0.99190   0.66922   0.38153   0.00000  Uiso   1.00
H1360  H     0.51783   0.66559   0.40198   0.00000  Uiso   1.00
H1361  H     0.99141   0.64065   0.36099   0.00000  Uiso   1.00
N1362  N     0.50835   0.83081   0.61846   0.00000  Uiso   1.00
H1363  H     0.53822   0.84383   0.62591   0.00000  Uiso   1.00
H1364  H     0.98648   0.85439   0.63033   0.00000  Uiso   1.00
N1365  N     0.76212   0.58162   0.37945   0.00000  Uiso   1.00
H1366  H     0.75109   0.58015   0.41217   0.00000  Uiso   1.00
H1367  H     0.74427   0.60739   0.36537   0.00000  Uiso   1.00
N1368  N     0.75908   0.91808   0.62080   0.00000  Uiso   1.00
H1369  H     0.75018   0.92042   0.58770   0.00000  Uiso   1.00
H1370  H     0.73914   0.89338   0.63423   0.00000  Uiso   1.00
N1371  N     0.74563   0.91949   0.38227   0.00000  Uiso   1.00
H1372  H     0.76991   0.89843   0.37084   0.00000  Uiso   1.00
H1373  H     0.71666   0.90408   0.37490   0.00000  Uiso   1.00
N1374  N     0.75152   0.58064   0.61763   0.00000  Uiso   1.00
H1375  H     0.77778   0.59917   0.62827   0.00000  Uiso   1.00
H1376  H     0.72405   0.59882   0.62547   0.00000  Uiso   1.00
N1377  N     0.91865   0.63899   0.41922   0.00000  Uiso   1.00
H1378  H     0.93027   0.61131   0.40205   0.00000  Uiso   1.00
C1379  C     0.89249   0.66729   0.39127   0.00000  Uiso   1.00
H1380  H     0.90983   0.67569   0.35987   0.00000  Uiso   1.00
H1381  H     0.88461   0.69937   0.40897   0.00000  Uiso   1.00
H1382  H     0.86267   0.64949   0.38232   0.00000  Uiso   1.00
N1383  N     0.63015   0.79961   0.55994   0.00000  Uiso   1.00
H1384  H     0.62193   0.76889   0.54608   0.00000  Uiso   1.00
C1385  C     0.61981   0.80558   0.60709   0.00000  Uiso   1.00
H1386  H     0.59156   0.78496   0.61594   0.00000  Uiso   1.00
H1387  H     0.61337   0.84153   0.61555   0.00000  Uiso   1.00
H1388  H     0.64667   0.79378   0.62764   0.00000  Uiso   1.00
N1389  N     0.57903   0.86275   0.42050   0.00000  Uiso   1.00
H1390  H     0.56710   0.89152   0.40609   0.00000  Uiso   1.00
C1391  C     0.60320   0.83503   0.38915   0.00000  Uiso   1.00
H1392  H     0.58437   0.82834   0.35871   0.00000  Uiso   1.00
H1393  H     0.61109   0.80201   0.40447   0.00000  Uiso   1.00
H1394  H     0.63302   0.85235   0.37890   0.00000  Uiso   1.00
N1395  N     0.86858   0.70231   0.55901   0.00000  Uiso   1.00
H1396  H     0.84258   0.72244   0.55340   0.00000  Uiso   1.00
C1397  C     0.87796   0.69586   0.60609   0.00000  Uiso   1.00
H1398  H     0.90489   0.71798   0.61553   0.00000  Uiso   1.00
H1399  H     0.88609   0.66016   0.61339   0.00000  Uiso   1.00
H1400  H     0.85020   0.70548   0.62732   0.00000  Uiso   1.00
N1401  N     0.58322   0.64519   0.58303   0.00000  Uiso   1.00
H1402  H     0.57307   0.61794   0.60167   0.00000  Uiso   1.00
C1403  C     0.60672   0.67774   0.60958   0.00000  Uiso   1.00
H1404  H     0.58593   0.69180   0.63645   0.00000  Uiso   1.00
H1405  H     0.61797   0.70597   0.58837   0.00000  Uiso   1.00
H1406  H     0.63457   0.66176   0.62536   0.00000  Uiso   1.00
N1407  N     0.87047   0.79844   0.44026   0.00000  Uiso   1.00
H1408  H     0.84348   0.77919   0.44471   0.00000  Uiso   1.00
C1409  C     0.88296   0.80417   0.39363   0.00000  Uiso   1.00
H1410  H     0.90976   0.78127   0.38562   0.00000  Uiso   1.00
H1411  H     0.89248   0.83960   0.38649   0.00000  Uiso   1.00
H1412  H     0.85631   0.79500   0.37121   0.00000  Uiso   1.00
N1413  N     0.92106   0.86240   0.57995   0.00000  Uiso   1.00
H1414  H     0.93288   0.89132   0.59471   0.00000  Uiso   1.00
C1415  C     0.89836   0.83340   0.61120   0.00000  Uiso   1.00
H1416  H     0.91828   0.82654   0.64072   0.00000  Uiso   1.00
H1417  H     0.89041   0.80058   0.59504   0.00000  Uiso   1.00
H1418  H     0.86856   0.84961   0.62306   0.00000  Uiso   1.00
N1419  N     0.60110   0.65827   0.41726   0.00000  Uiso   1.00
H1420  H     0.62172   0.67911   0.40004   0.00000  Uiso   1.00
C1421  C     0.58653   0.62050   0.39007   0.00000  Uiso   1.00
H1422  H     0.57349   0.63308   0.35808   0.00000  Uiso   1.00
H1423  H     0.56130   0.60146   0.40824   0.00000  Uiso   1.00
H1424  H     0.61262   0.59687   0.38168   0.00000  Uiso   1.00
N1425  N     0.62945   0.94067   0.43181   0.00000  Uiso   1.00
H1426  H     0.62815   0.93001   0.39883   0.00000  Uiso   1.00
C1427  C     0.60255   0.97897   0.44162   0.00000  Uiso   1.00
H1428  H     0.60662   0.50472   0.41492   0.00000  Uiso   1.00
H1429  H     0.61152   0.99468   0.47405   0.00000  Uiso   1.00
H1430  H     0.56877   0.96834   0.44306   0.00000  Uiso   1.00
N1431  N     0.80055   0.63875   0.55566   0.00000  Uiso   1.00
H1432  H     0.80482   0.65624   0.58525   0.00000  Uiso   1.00
C1433  C     0.76483   0.65571   0.53090   0.00000  Uiso   1.00
H1434  H     0.73679   0.65849   0.55363   0.00000  Uiso   1.00
H1435  H     0.75660   0.63229   0.50311   0.00000  Uiso   1.00
H1436  H     0.77224   0.68963   0.51704   0.00000  Uiso   1.00
N1437  N     0.87227   0.55836   0.43212   0.00000  Uiso   1.00
H1438  H     0.86847   0.56943   0.39964   0.00000  Uiso   1.00
C1439  C     0.90521   0.52483   0.43627   0.00000  Uiso   1.00
H1440  H     0.90113   0.99843   0.40998   0.00000  Uiso   1.00
H1441  H     0.90317   0.50831   0.46942   0.00000  Uiso   1.00
H1442  H     0.93706   0.54034   0.43219   0.00000  Uiso   1.00
N1443  N     0.69127   0.86812   0.56430   0.00000  Uiso   1.00
H1444  H     0.68071   0.87422   0.59664   0.00000  Uiso   1.00
C1445  C     0.71990   0.82994   0.56035   0.00000  Uiso   1.00
H1446  H     0.75312   0.84226   0.56010   0.00000  Uiso   1.00
H1447  H     0.71447   0.81009   0.52908   0.00000  Uiso   1.00
H1448  H     0.71575   0.80714   0.58957   0.00000  Uiso   1.00
N1449  N     0.86728   0.93722   0.57243   0.00000  Uiso   1.00
H1450  H     0.86986   0.92514   0.60465   0.00000  Uiso   1.00
C1451  C     0.89030   0.97879   0.56501   0.00000  Uiso   1.00
H1452  H     0.88855   0.50022   0.59575   0.00000  Uiso   1.00
H1453  H     0.87556   0.99786   0.53745   0.00000  Uiso   1.00
H1454  H     0.92411   0.97175   0.55696   0.00000  Uiso   1.00
N1455  N     0.68525   0.62696   0.43106   0.00000  Uiso   1.00
H1456  H     0.67759   0.61634   0.39917   0.00000  Uiso   1.00
C1457  C     0.70719   0.67010   0.43198   0.00000  Uiso   1.00
H1458  H     0.74173   0.66450   0.42772   0.00000  Uiso   1.00
H1459  H     0.70188   0.68843   0.46431   0.00000  Uiso   1.00
H1460  H     0.69633   0.69172   0.40401   0.00000  Uiso   1.00
N1461  N     0.63800   0.57079   0.57872   0.00000  Uiso   1.00
H1462  H     0.63830   0.58683   0.60951   0.00000  Uiso   1.00
C1463  C     0.61310   0.52972   0.57861   0.00000  Uiso   1.00
H1464  H     0.61974   0.51012   0.60944   0.00000  Uiso   1.00
H1465  H     0.62177   0.50844   0.54919   0.00000  Uiso   1.00
H1466  H     0.57873   0.53767   0.57783   0.00000  Uiso   1.00
N1467  N     0.80621   0.86517   0.43837   0.00000  Uiso   1.00
H1468  H     0.81388   0.85090   0.40777   0.00000  Uiso   1.00
C1469  C     0.76827   0.84563   0.45785   0.00000  Uiso   1.00
H1470  H     0.74409   0.84044   0.43146   0.00000  Uiso   1.00
H1471  H     0.75475   0.86885   0.48350   0.00000  Uiso   1.00
H1472  H     0.77535   0.81239   0.47316   0.00000  Uiso   1.00
C1473  C     0.05937   0.18906   0.83326   0.00000  Uiso   1.00
C1474  C     0.43902   0.30889   0.83388   0.00000  Uiso   1.00
C1475  C     0.43898   0.19107   0.83304   0.00000  Uiso   1.00
C1476  C     0.06081   0.30905   0.83285   0.00000  Uiso   1.00
C1477  C     0.30966   0.43973   0.83324   0.00000  Uiso   1.00
C1478  C     0.19086   0.06066   0.83375   0.00000  Uiso   1.00
C1479  C     0.19043   0.43967   0.83349   0.00000  Uiso   1.00
C1480  C     0.30957   0.06024   0.83328   0.00000  Uiso   1.00
C1481  C     0.00076   0.28972   0.69098   0.00000  Uiso   1.00
C1482  C     0.49568   0.21055   0.97544   0.00000  Uiso   1.00
C1483  C     0.49685   0.21033   0.69039   0.00000  Uiso   1.00
C1484  C     0.00281   0.28961   0.97610   0.00000  Uiso   1.00
C1485  C     0.25266   0.03982   0.69035   0.00000  Uiso   1.00
C1486  C     0.25077   0.46019   0.97639   0.00000  Uiso   1.00
C1487  C     0.24844   0.46056   0.69099   0.00000  Uiso   1.00
C1488  C     0.25073   0.03953   0.97568   0.00000  Uiso   1.00
C1489  C     0.39988   0.12958   0.79506   0.00000  Uiso   1.00
C1490  C     0.12684   0.33803   0.86481   0.00000  Uiso   1.00
C1491  C     0.10034   0.37025   0.79500   0.00000  Uiso   1.00
C1492  C     0.37117   0.16331   0.86406   0.00000  Uiso   1.00
C1493  C     0.10293   0.13345   0.87464   0.00000  Uiso   1.00
C1494  C     0.37280   0.33738   0.80204   0.00000  Uiso   1.00
C1495  C     0.39891   0.36951   0.87256   0.00000  Uiso   1.00
C1496  C     0.11541   0.14546   0.79394   0.00000  Uiso   1.00
C1497  C     0.12864   0.40593   0.79835   0.00000  Uiso   1.00
C1498  C     0.33802   0.13189   0.86267   0.00000  Uiso   1.00
C1499  C     0.37233   0.09335   0.79879   0.00000  Uiso   1.00
C1500  C     0.15844   0.37082   0.86545   0.00000  Uiso   1.00
C1501  C     0.37001   0.40459   0.87011   0.00000  Uiso   1.00
C1502  C     0.15271   0.12160   0.79743   0.00000  Uiso   1.00
C1503  C     0.13261   0.09897   0.87366   0.00000  Uiso   1.00
C1504  C     0.34063   0.36970   0.80200   0.00000  Uiso   1.00
C1505  C     0.09638   0.33960   0.83098   0.00000  Uiso   1.00
C1506  C     0.40344   0.16024   0.83143   0.00000  Uiso   1.00
C1507  C     0.40347   0.33952   0.83576   0.00000  Uiso   1.00
C1508  C     0.09237   0.15514   0.83372   0.00000  Uiso   1.00
C1509  C     0.34127   0.09483   0.83272   0.00000  Uiso   1.00
C1510  C     0.15790   0.40580   0.83348   0.00000  Uiso   1.00
C1511  C     0.15845   0.09428   0.83508   0.00000  Uiso   1.00
C1512  C     0.34154   0.40513   0.83397   0.00000  Uiso   1.00
N1513  N     0.00000   0.25000   0.95240   0.00000  Uiso   1.00
N1514  N     0.00000   0.25000   0.71427   0.00000  Uiso   1.00
N1515  N     0.25000   0.00000   0.95240   0.00000  Uiso   1.00
N1516  N     0.25000   0.00000   0.71427   0.00000  Uiso   1.00
O1517  O     0.04581   0.20419   0.87154   0.00000  Uiso   1.00
O1518  O     0.45420   0.29581   0.79513   0.00000  Uiso   1.00
O1519  O     0.45420   0.29581   0.87154   0.00000  Uiso   1.00
O1520  O     0.04581   0.20419   0.79513   0.00000  Uiso   1.00
O1521  O     0.45420   0.20419   0.79513   0.00000  Uiso   1.00
O1522  O     0.04581   0.29581   0.87154   0.00000  Uiso   1.00
O1523  O     0.04581   0.29581   0.79513   0.00000  Uiso   1.00
O1524  O     0.45420   0.20419   0.87154   0.00000  Uiso   1.00
O1525  O     0.29581   0.45419   0.87154   0.00000  Uiso   1.00
O1526  O     0.20420   0.04581   0.79513   0.00000  Uiso   1.00
O1527  O     0.20420   0.04581   0.87154   0.00000  Uiso   1.00
O1528  O     0.29581   0.45419   0.79513   0.00000  Uiso   1.00
O1529  O     0.20420   0.45419   0.79513   0.00000  Uiso   1.00
O1530  O     0.29581   0.04581   0.87154   0.00000  Uiso   1.00
O1531  O     0.29581   0.04581   0.79513   0.00000  Uiso   1.00
O1532  O     0.20420   0.45419   0.87154   0.00000  Uiso   1.00
Zn1533 Zn    0.00000   0.25000   0.88437   0.00000  Uiso   1.00
Zn1534 Zn    0.00000   0.25000   0.78229   0.00000  Uiso   1.00
Zn1535 Zn    0.25000   0.00000   0.88437   0.00000  Uiso   1.00
Zn1536 Zn    0.25000   0.00000   0.78229   0.00000  Uiso   1.00
N1537  N     0.49602   0.33115   0.71550   0.00000  Uiso   1.00
H1538  H     0.46543   0.34291   0.70998   0.00000  Uiso   1.00
H1539  H     0.01609   0.35540   0.70166   0.00000  Uiso   1.00
N1540  N     0.48864   0.17000   0.95020   0.00000  Uiso   1.00
H1541  H     0.45950   0.15632   0.96000   0.00000  Uiso   1.00
H1542  H     0.01199   0.14675   0.95807   0.00000  Uiso   1.00
N1543  N     0.49190   0.16922   0.71486   0.00000  Uiso   1.00
H1544  H     0.01783   0.16559   0.73531   0.00000  Uiso   1.00
H1545  H     0.49141   0.14065   0.69432   0.00000  Uiso   1.00
N1546  N     0.00835   0.33081   0.95180   0.00000  Uiso   1.00
H1547  H     0.03822   0.34383   0.95924   0.00000  Uiso   1.00
H1548  H     0.48648   0.35439   0.96366   0.00000  Uiso   1.00
N1549  N     0.26212   0.08162   0.71278   0.00000  Uiso   1.00
H1550  H     0.25109   0.08015   0.74550   0.00000  Uiso   1.00
H1551  H     0.24427   0.10739   0.69870   0.00000  Uiso   1.00
N1552  N     0.25908   0.41808   0.95413   0.00000  Uiso   1.00
H1553  H     0.25018   0.42042   0.92104   0.00000  Uiso   1.00
H1554  H     0.23914   0.39338   0.96756   0.00000  Uiso   1.00
N1555  N     0.24563   0.41949   0.71561   0.00000  Uiso   1.00
H1556  H     0.26991   0.39843   0.70418   0.00000  Uiso   1.00
H1557  H     0.21666   0.40408   0.70824   0.00000  Uiso   1.00
N1558  N     0.25152   0.08064   0.95096   0.00000  Uiso   1.00
H1559  H     0.27778   0.09917   0.96161   0.00000  Uiso   1.00
H1560  H     0.22405   0.09882   0.95880   0.00000  Uiso   1.00
N1561  N     0.41865   0.13899   0.75255   0.00000  Uiso   1.00
H1562  H     0.43027   0.11131   0.73539   0.00000  Uiso   1.00
C1563  C     0.39249   0.16729   0.72460   0.00000  Uiso   1.00
H1564  H     0.40983   0.17569   0.69320   0.00000  Uiso   1.00
H1565  H     0.38461   0.19937   0.74230   0.00000  Uiso   1.00
H1566  H     0.36267   0.14949   0.71566   0.00000  Uiso   1.00
N1567  N     0.13015   0.29961   0.89327   0.00000  Uiso   1.00
H1568  H     0.12193   0.26889   0.87942   0.00000  Uiso   1.00
C1569  C     0.11981   0.30558   0.94042   0.00000  Uiso   1.00
H1570  H     0.09156   0.28496   0.94927   0.00000  Uiso   1.00
H1571  H     0.11337   0.34153   0.94888   0.00000  Uiso   1.00
H1572  H     0.14667   0.29378   0.96097   0.00000  Uiso   1.00
N1573  N     0.07903   0.36275   0.75383   0.00000  Uiso   1.00
H1574  H     0.06710   0.39152   0.73942   0.00000  Uiso   1.00
C1575  C     0.10320   0.33503   0.72248   0.00000  Uiso   1.00
H1576  H     0.08437   0.32834   0.69204   0.00000  Uiso   1.00
H1577  H     0.11109   0.30201   0.73780   0.00000  Uiso   1.00
H1578  H     0.13302   0.35235   0.71224   0.00000  Uiso   1.00
N1579  N     0.36858   0.20231   0.89234   0.00000  Uiso   1.00
H1580  H     0.34258   0.22244   0.88673   0.00000  Uiso   1.00
C1581  C     0.37796   0.19586   0.93943   0.00000  Uiso   1.00
H1582  H     0.40489   0.21798   0.94886   0.00000  Uiso   1.00
H1583  H     0.38609   0.16016   0.94673   0.00000  Uiso   1.00
H1584  H     0.35020   0.20548   0.96065   0.00000  Uiso   1.00
N1585  N     0.08322   0.14519   0.91636   0.00000  Uiso   1.00
H1586  H     0.07307   0.11794   0.93500   0.00000  Uiso   1.00
C1587  C     0.10672   0.17774   0.94291   0.00000  Uiso   1.00
H1588  H     0.08593   0.19180   0.96978   0.00000  Uiso   1.00
H1589  H     0.11797   0.20597   0.92170   0.00000  Uiso   1.00
H1590  H     0.13457   0.16176   0.95869   0.00000  Uiso   1.00
N1591  N     0.37047   0.29844   0.77359   0.00000  Uiso   1.00
H1592  H     0.34348   0.27919   0.77804   0.00000  Uiso   1.00
C1593  C     0.38296   0.30417   0.72697   0.00000  Uiso   1.00
H1594  H     0.40976   0.28127   0.71895   0.00000  Uiso   1.00
H1595  H     0.39248   0.33960   0.71983   0.00000  Uiso   1.00
H1596  H     0.35631   0.29500   0.70454   0.00000  Uiso   1.00
N1597  N     0.42106   0.36240   0.91328   0.00000  Uiso   1.00
H1598  H     0.43288   0.39132   0.92804   0.00000  Uiso   1.00
C1599  C     0.39836   0.33340   0.94453   0.00000  Uiso   1.00
H1600  H     0.41828   0.32654   0.97406   0.00000  Uiso   1.00
H1601  H     0.39041   0.30058   0.92838   0.00000  Uiso   1.00
H1602  H     0.36856   0.34961   0.95640   0.00000  Uiso   1.00
N1603  N     0.10110   0.15827   0.75059   0.00000  Uiso   1.00
H1604  H     0.12172   0.17911   0.73337   0.00000  Uiso   1.00
C1605  C     0.08653   0.12050   0.72340   0.00000  Uiso   1.00
H1606  H     0.07349   0.13308   0.69141   0.00000  Uiso   1.00
H1607  H     0.06130   0.10146   0.74158   0.00000  Uiso   1.00
H1608  H     0.11262   0.09687   0.71501   0.00000  Uiso   1.00
N1609  N     0.12945   0.44067   0.76514   0.00000  Uiso   1.00
H1610  H     0.12815   0.43001   0.73216   0.00000  Uiso   1.00
C1611  C     0.10255   0.47897   0.77496   0.00000  Uiso   1.00
H1612  H     0.10662   0.00472   0.74825   0.00000  Uiso   1.00
H1613  H     0.11152   0.49468   0.80739   0.00000  Uiso   1.00
H1614  H     0.06877   0.46834   0.77639   0.00000  Uiso   1.00
N1615  N     0.30055   0.13875   0.88899   0.00000  Uiso   1.00
H1616  H     0.30482   0.15624   0.91858   0.00000  Uiso   1.00
C1617  C     0.26483   0.15571   0.86424   0.00000  Uiso   1.00
H1618  H     0.23679   0.15849   0.88696   0.00000  Uiso   1.00
H1619  H     0.25660   0.13229   0.83644   0.00000  Uiso   1.00
H1620  H     0.27224   0.18963   0.85037   0.00000  Uiso   1.00
N1621  N     0.37227   0.05836   0.76546   0.00000  Uiso   1.00
H1622  H     0.36847   0.06943   0.73297   0.00000  Uiso   1.00
C1623  C     0.40521   0.02483   0.76960   0.00000  Uiso   1.00
H1624  H     0.40113   0.49843   0.74331   0.00000  Uiso   1.00
H1625  H     0.40317   0.00831   0.80275   0.00000  Uiso   1.00
H1626  H     0.43706   0.04034   0.76552   0.00000  Uiso   1.00
N1627  N     0.19127   0.36812   0.89763   0.00000  Uiso   1.00
H1628  H     0.18071   0.37422   0.92997   0.00000  Uiso   1.00
C1629  C     0.21990   0.32994   0.89369   0.00000  Uiso   1.00
H1630  H     0.25312   0.34226   0.89344   0.00000  Uiso   1.00
H1631  H     0.21447   0.31009   0.86241   0.00000  Uiso   1.00
H1632  H     0.21575   0.30714   0.92291   0.00000  Uiso   1.00
N1633  N     0.36728   0.43722   0.90576   0.00000  Uiso   1.00
H1634  H     0.36986   0.42514   0.93799   0.00000  Uiso   1.00
C1635  C     0.39030   0.47879   0.89834   0.00000  Uiso   1.00
H1636  H     0.38855   0.00022   0.92908   0.00000  Uiso   1.00
H1637  H     0.37556   0.49786   0.87078   0.00000  Uiso   1.00
H1638  H     0.42411   0.47175   0.89029   0.00000  Uiso   1.00
N1639  N     0.18525   0.12696   0.76439   0.00000  Uiso   1.00
H1640  H     0.17759   0.11634   0.73251   0.00000  Uiso   1.00
C1641  C     0.20719   0.17010   0.76531   0.00000  Uiso   1.00
H1642  H     0.24173   0.16450   0.76105   0.00000  Uiso   1.00
H1643  H     0.20188   0.18843   0.79764   0.00000  Uiso   1.00
H1644  H     0.19633   0.19172   0.73735   0.00000  Uiso   1.00
N1645  N     0.13800   0.07079   0.91206   0.00000  Uiso   1.00
H1646  H     0.13830   0.08683   0.94284   0.00000  Uiso   1.00
C1647  C     0.11310   0.02972   0.91194   0.00000  Uiso   1.00
H1648  H     0.11974   0.01012   0.94277   0.00000  Uiso   1.00
H1649  H     0.12177   0.00844   0.88252   0.00000  Uiso   1.00
H1650  H     0.07873   0.03767   0.91116   0.00000  Uiso   1.00
N1651  N     0.30621   0.36517   0.77170   0.00000  Uiso   1.00
H1652  H     0.31388   0.35090   0.74110   0.00000  Uiso   1.00
C1653  C     0.26827   0.34563   0.79118   0.00000  Uiso   1.00
H1654  H     0.24409   0.34044   0.76480   0.00000  Uiso   1.00
H1655  H     0.25475   0.36885   0.81683   0.00000  Uiso   1.00
H1656  H     0.27535   0.31239   0.80649   0.00000  Uiso   1.00
C1657  C     0.55937   0.18906   0.83326   0.00000  Uiso   1.00
C1658  C     0.93902   0.30889   0.83388   0.00000  Uiso   1.00
C1659  C     0.93898   0.19107   0.83304   0.00000  Uiso   1.00
C1660  C     0.56081   0.30905   0.83285   0.00000  Uiso   1.00
C1661  C     0.80966   0.43973   0.83324   0.00000  Uiso   1.00
C1662  C     0.69086   0.06066   0.83375   0.00000  Uiso   1.00
C1663  C     0.69043   0.43967   0.83349   0.00000  Uiso   1.00
C1664  C     0.80957   0.06024   0.83328   0.00000  Uiso   1.00
C1665  C     0.50076   0.28972   0.69098   0.00000  Uiso   1.00
C1666  C     0.99568   0.21055   0.97544   0.00000  Uiso   1.00
C1667  C     0.99685   0.21033   0.69039   0.00000  Uiso   1.00
C1668  C     0.50281   0.28961   0.97610   0.00000  Uiso   1.00
C1669  C     0.75266   0.03982   0.69035   0.00000  Uiso   1.00
C1670  C     0.75077   0.46019   0.97639   0.00000  Uiso   1.00
C1671  C     0.74844   0.46056   0.69099   0.00000  Uiso   1.00
C1672  C     0.75073   0.03953   0.97568   0.00000  Uiso   1.00
C1673  C     0.89988   0.12958   0.79506   0.00000  Uiso   1.00
C1674  C     0.62684   0.33803   0.86481   0.00000  Uiso   1.00
C1675  C     0.60034   0.37025   0.79500   0.00000  Uiso   1.00
C1676  C     0.87117   0.16331   0.86406   0.00000  Uiso   1.00
C1677  C     0.60293   0.13345   0.87464   0.00000  Uiso   1.00
C1678  C     0.87280   0.33738   0.80204   0.00000  Uiso   1.00
C1679  C     0.89891   0.36951   0.87256   0.00000  Uiso   1.00
C1680  C     0.61541   0.14546   0.79394   0.00000  Uiso   1.00
C1681  C     0.62864   0.40593   0.79835   0.00000  Uiso   1.00
C1682  C     0.83802   0.13189   0.86267   0.00000  Uiso   1.00
C1683  C     0.87233   0.09335   0.79879   0.00000  Uiso   1.00
C1684  C     0.65844   0.37082   0.86545   0.00000  Uiso   1.00
C1685  C     0.87001   0.40459   0.87011   0.00000  Uiso   1.00
C1686  C     0.65271   0.12160   0.79743   0.00000  Uiso   1.00
C1687  C     0.63261   0.09897   0.87366   0.00000  Uiso   1.00
C1688  C     0.84063   0.36970   0.80200   0.00000  Uiso   1.00
C1689  C     0.59638   0.33960   0.83098   0.00000  Uiso   1.00
C1690  C     0.90344   0.16024   0.83143   0.00000  Uiso   1.00
C1691  C     0.90347   0.33952   0.83576   0.00000  Uiso   1.00
C1692  C     0.59237   0.15514   0.83372   0.00000  Uiso   1.00
C1693  C     0.84127   0.09483   0.83272   0.00000  Uiso   1.00
C1694  C     0.65790   0.40580   0.83348   0.00000  Uiso   1.00
C1695  C     0.65845   0.09428   0.83508   0.00000  Uiso   1.00
C1696  C     0.84154   0.40513   0.83397   0.00000  Uiso   1.00
N1697  N     0.50000   0.25000   0.95240   0.00000  Uiso   1.00
N1698  N     0.50000   0.25000   0.71427   0.00000  Uiso   1.00
N1699  N     0.75000   0.00000   0.95240   0.00000  Uiso   1.00
N1700  N     0.75000   0.00000   0.71427   0.00000  Uiso   1.00
O1701  O     0.54581   0.20419   0.87154   0.00000  Uiso   1.00
O1702  O     0.95420   0.29581   0.79513   0.00000  Uiso   1.00
O1703  O     0.95420   0.29581   0.87154   0.00000  Uiso   1.00
O1704  O     0.54581   0.20419   0.79513   0.00000  Uiso   1.00
O1705  O     0.95420   0.20419   0.79513   0.00000  Uiso   1.00
O1706  O     0.54581   0.29581   0.87154   0.00000  Uiso   1.00
O1707  O     0.54581   0.29581   0.79513   0.00000  Uiso   1.00
O1708  O     0.95420   0.20419   0.87154   0.00000  Uiso   1.00
O1709  O     0.79581   0.45419   0.87154   0.00000  Uiso   1.00
O1710  O     0.70420   0.04581   0.79513   0.00000  Uiso   1.00
O1711  O     0.70420   0.04581   0.87154   0.00000  Uiso   1.00
O1712  O     0.79581   0.45419   0.79513   0.00000  Uiso   1.00
O1713  O     0.70420   0.45419   0.79513   0.00000  Uiso   1.00
O1714  O     0.79581   0.04581   0.87154   0.00000  Uiso   1.00
O1715  O     0.79581   0.04581   0.79513   0.00000  Uiso   1.00
O1716  O     0.70420   0.45419   0.87154   0.00000  Uiso   1.00
Zn1717 Zn    0.50000   0.25000   0.88437   0.00000  Uiso   1.00
Zn1718 Zn    0.50000   0.25000   0.78229   0.00000  Uiso   1.00
Zn1719 Zn    0.75000   0.00000   0.88437   0.00000  Uiso   1.00
Zn1720 Zn    0.75000   0.00000   0.78229   0.00000  Uiso   1.00
N1721  N     0.99602   0.33115   0.71550   0.00000  Uiso   1.00
H1722  H     0.96543   0.34291   0.70998   0.00000  Uiso   1.00
H1723  H     0.51609   0.35540   0.70166   0.00000  Uiso   1.00
N1724  N     0.98864   0.17000   0.95020   0.00000  Uiso   1.00
H1725  H     0.95950   0.15632   0.96000   0.00000  Uiso   1.00
H1726  H     0.51199   0.14675   0.95807   0.00000  Uiso   1.00
N1727  N     0.99190   0.16922   0.71486   0.00000  Uiso   1.00
H1728  H     0.51783   0.16559   0.73531   0.00000  Uiso   1.00
H1729  H     0.99141   0.14065   0.69432   0.00000  Uiso   1.00
N1730  N     0.50835   0.33081   0.95180   0.00000  Uiso   1.00
H1731  H     0.53822   0.34383   0.95924   0.00000  Uiso   1.00
H1732  H     0.98648   0.35439   0.96366   0.00000  Uiso   1.00
N1733  N     0.76212   0.08162   0.71278   0.00000  Uiso   1.00
H1734  H     0.75109   0.08015   0.74550   0.00000  Uiso   1.00
H1735  H     0.74427   0.10739   0.69870   0.00000  Uiso   1.00
N1736  N     0.75908   0.41808   0.95413   0.00000  Uiso   1.00
H1737  H     0.75018   0.42042   0.92104   0.00000  Uiso   1.00
H1738  H     0.73914   0.39338   0.96756   0.00000  Uiso   1.00
N1739  N     0.74563   0.41949   0.71561   0.00000  Uiso   1.00
H1740  H     0.76991   0.39843   0.70418   0.00000  Uiso   1.00
H1741  H     0.71666   0.40408   0.70824   0.00000  Uiso   1.00
N1742  N     0.75152   0.08064   0.95096   0.00000  Uiso   1.00
H1743  H     0.77778   0.09917   0.96161   0.00000  Uiso   1.00
H1744  H     0.72405   0.09882   0.95880   0.00000  Uiso   1.00
N1745  N     0.91865   0.13899   0.75255   0.00000  Uiso   1.00
H1746  H     0.93027   0.11131   0.73539   0.00000  Uiso   1.00
C1747  C     0.89249   0.16729   0.72460   0.00000  Uiso   1.00
H1748  H     0.90983   0.17569   0.69320   0.00000  Uiso   1.00
H1749  H     0.88461   0.19937   0.74230   0.00000  Uiso   1.00
H1750  H     0.86267   0.14949   0.71566   0.00000  Uiso   1.00
N1751  N     0.63015   0.29961   0.89327   0.00000  Uiso   1.00
H1752  H     0.62193   0.26889   0.87942   0.00000  Uiso   1.00
C1753  C     0.61981   0.30558   0.94042   0.00000  Uiso   1.00
H1754  H     0.59156   0.28496   0.94927   0.00000  Uiso   1.00
H1755  H     0.61337   0.34153   0.94888   0.00000  Uiso   1.00
H1756  H     0.64667   0.29378   0.96097   0.00000  Uiso   1.00
N1757  N     0.57903   0.36275   0.75383   0.00000  Uiso   1.00
H1758  H     0.56710   0.39152   0.73942   0.00000  Uiso   1.00
C1759  C     0.60320   0.33503   0.72248   0.00000  Uiso   1.00
H1760  H     0.58437   0.32834   0.69204   0.00000  Uiso   1.00
H1761  H     0.61109   0.30201   0.73780   0.00000  Uiso   1.00
H1762  H     0.63302   0.35235   0.71224   0.00000  Uiso   1.00
N1763  N     0.86858   0.20231   0.89234   0.00000  Uiso   1.00
H1764  H     0.84258   0.22244   0.88673   0.00000  Uiso   1.00
C1765  C     0.87796   0.19586   0.93943   0.00000  Uiso   1.00
H1766  H     0.90489   0.21798   0.94886   0.00000  Uiso   1.00
H1767  H     0.88609   0.16016   0.94673   0.00000  Uiso   1.00
H1768  H     0.85020   0.20548   0.96065   0.00000  Uiso   1.00
N1769  N     0.58322   0.14519   0.91636   0.00000  Uiso   1.00
H1770  H     0.57307   0.11794   0.93500   0.00000  Uiso   1.00
C1771  C     0.60672   0.17774   0.94291   0.00000  Uiso   1.00
H1772  H     0.58593   0.19180   0.96978   0.00000  Uiso   1.00
H1773  H     0.61797   0.20597   0.92170   0.00000  Uiso   1.00
H1774  H     0.63457   0.16176   0.95869   0.00000  Uiso   1.00
N1775  N     0.87047   0.29844   0.77359   0.00000  Uiso   1.00
H1776  H     0.84348   0.27919   0.77804   0.00000  Uiso   1.00
C1777  C     0.88296   0.30417   0.72697   0.00000  Uiso   1.00
H1778  H     0.90976   0.28127   0.71895   0.00000  Uiso   1.00
H1779  H     0.89248   0.33960   0.71983   0.00000  Uiso   1.00
H1780  H     0.85631   0.29500   0.70454   0.00000  Uiso   1.00
N1781  N     0.92106   0.36240   0.91328   0.00000  Uiso   1.00
H1782  H     0.93288   0.39132   0.92804   0.00000  Uiso   1.00
C1783  C     0.89836   0.33340   0.94453   0.00000  Uiso   1.00
H1784  H     0.91828   0.32654   0.97406   0.00000  Uiso   1.00
H1785  H     0.89041   0.30058   0.92838   0.00000  Uiso   1.00
H1786  H     0.86856   0.34961   0.95640   0.00000  Uiso   1.00
N1787  N     0.60110   0.15827   0.75059   0.00000  Uiso   1.00
H1788  H     0.62172   0.17911   0.73337   0.00000  Uiso   1.00
C1789  C     0.58653   0.12050   0.72340   0.00000  Uiso   1.00
H1790  H     0.57349   0.13308   0.69141   0.00000  Uiso   1.00
H1791  H     0.56130   0.10146   0.74158   0.00000  Uiso   1.00
H1792  H     0.61262   0.09687   0.71501   0.00000  Uiso   1.00
N1793  N     0.62945   0.44067   0.76514   0.00000  Uiso   1.00
H1794  H     0.62815   0.43001   0.73216   0.00000  Uiso   1.00
C1795  C     0.60255   0.47897   0.77496   0.00000  Uiso   1.00
H1796  H     0.60662   0.00472   0.74825   0.00000  Uiso   1.00
H1797  H     0.61152   0.49468   0.80739   0.00000  Uiso   1.00
H1798  H     0.56877   0.46834   0.77639   0.00000  Uiso   1.00
N1799  N     0.80055   0.13875   0.88899   0.00000  Uiso   1.00
H1800  H     0.80482   0.15624   0.91858   0.00000  Uiso   1.00
C1801  C     0.76483   0.15571   0.86424   0.00000  Uiso   1.00
H1802  H     0.73679   0.15849   0.88696   0.00000  Uiso   1.00
H1803  H     0.75660   0.13229   0.83644   0.00000  Uiso   1.00
H1804  H     0.77224   0.18963   0.85037   0.00000  Uiso   1.00
N1805  N     0.87227   0.05836   0.76546   0.00000  Uiso   1.00
H1806  H     0.86847   0.06943   0.73297   0.00000  Uiso   1.00
C1807  C     0.90521   0.02483   0.76960   0.00000  Uiso   1.00
H1808  H     0.90113   0.49843   0.74331   0.00000  Uiso   1.00
H1809  H     0.90317   0.00831   0.80275   0.00000  Uiso   1.00
H1810  H     0.93706   0.04034   0.76552   0.00000  Uiso   1.00
N1811  N     0.69127   0.36812   0.89763   0.00000  Uiso   1.00
H1812  H     0.68071   0.37422   0.92997   0.00000  Uiso   1.00
C1813  C     0.71990   0.32994   0.89369   0.00000  Uiso   1.00
H1814  H     0.75312   0.34226   0.89344   0.00000  Uiso   1.00
H1815  H     0.71447   0.31009   0.86241   0.00000  Uiso   1.00
H1816  H     0.71575   0.30714   0.92291   0.00000  Uiso   1.00
N1817  N     0.86728   0.43722   0.90576   0.00000  Uiso   1.00
H1818  H     0.86986   0.42514   0.93799   0.00000  Uiso   1.00
C1819  C     0.89030   0.47879   0.89834   0.00000  Uiso   1.00
H1820  H     0.88855   0.00022   0.92908   0.00000  Uiso   1.00
H1821  H     0.87556   0.49786   0.87078   0.00000  Uiso   1.00
H1822  H     0.92411   0.47175   0.89029   0.00000  Uiso   1.00
N1823  N     0.68525   0.12696   0.76439   0.00000  Uiso   1.00
H1824  H     0.67759   0.11634   0.73251   0.00000  Uiso   1.00
C1825  C     0.70719   0.17010   0.76531   0.00000  Uiso   1.00
H1826  H     0.74173   0.16450   0.76105   0.00000  Uiso   1.00
H1827  H     0.70188   0.18843   0.79764   0.00000  Uiso   1.00
H1828  H     0.69633   0.19172   0.73735   0.00000  Uiso   1.00
N1829  N     0.63800   0.07079   0.91206   0.00000  Uiso   1.00
H1830  H     0.63830   0.08683   0.94284   0.00000  Uiso   1.00
C1831  C     0.61310   0.02972   0.91194   0.00000  Uiso   1.00
H1832  H     0.61974   0.01012   0.94277   0.00000  Uiso   1.00
H1833  H     0.62177   0.00844   0.88252   0.00000  Uiso   1.00
H1834  H     0.57873   0.03767   0.91116   0.00000  Uiso   1.00
N1835  N     0.80621   0.36517   0.77170   0.00000  Uiso   1.00
H1836  H     0.81388   0.35090   0.74110   0.00000  Uiso   1.00
C1837  C     0.76827   0.34563   0.79118   0.00000  Uiso   1.00
H1838  H     0.74409   0.34044   0.76480   0.00000  Uiso   1.00
H1839  H     0.75475   0.36885   0.81683   0.00000  Uiso   1.00
H1840  H     0.77535   0.31239   0.80649   0.00000  Uiso   1.00
C1841  C     0.05937   0.68906   0.83326   0.00000  Uiso   1.00
C1842  C     0.43902   0.80889   0.83388   0.00000  Uiso   1.00
C1843  C     0.43898   0.69107   0.83304   0.00000  Uiso   1.00
C1844  C     0.06081   0.80905   0.83285   0.00000  Uiso   1.00
C1845  C     0.30966   0.93973   0.83324   0.00000  Uiso   1.00
C1846  C     0.19086   0.56066   0.83375   0.00000  Uiso   1.00
C1847  C     0.19043   0.93967   0.83349   0.00000  Uiso   1.00
C1848  C     0.30957   0.56024   0.83328   0.00000  Uiso   1.00
C1849  C     0.00076   0.78972   0.69098   0.00000  Uiso   1.00
C1850  C     0.49568   0.71055   0.97544   0.00000  Uiso   1.00
C1851  C     0.49685   0.71033   0.69039   0.00000  Uiso   1.00
C1852  C     0.00281   0.78961   0.97610   0.00000  Uiso   1.00
C1853  C     0.25266   0.53982   0.69035   0.00000  Uiso   1.00
C1854  C     0.25077   0.96019   0.97639   0.00000  Uiso   1.00
C1855  C     0.24844   0.96056   0.69099   0.00000  Uiso   1.00
C1856  C     0.25073   0.53953   0.97568   0.00000  Uiso   1.00
C1857  C     0.39988   0.62958   0.79506   0.00000  Uiso   1.00
C1858  C     0.12684   0.83803   0.86481   0.00000  Uiso   1.00
C1859  C     0.10034   0.87025   0.79500   0.00000  Uiso   1.00
C1860  C     0.37117   0.66331   0.86406   0.00000  Uiso   1.00
C1861  C     0.10293   0.63345   0.87464   0.00000  Uiso   1.00
C1862  C     0.37280   0.83738   0.80204   0.00000  Uiso   1.00
C1863  C     0.39891   0.86951   0.87256   0.00000  Uiso   1.00
C1864  C     0.11541   0.64546   0.79394   0.00000  Uiso   1.00
C1865  C     0.12864   0.90593   0.79835   0.00000  Uiso   1.00
C1866  C     0.33802   0.63189   0.86267   0.00000  Uiso   1.00
C1867  C     0.37233   0.59335   0.79879   0.00000  Uiso   1.00
C1868  C     0.15844   0.87082   0.86545   0.00000  Uiso   1.00
C1869  C     0.37001   0.90459   0.87011   0.00000  Uiso   1.00
C1870  C     0.15271   0.62160   0.79743   0.00000  Uiso   1.00
C1871  C     0.13261   0.59897   0.87366   0.00000  Uiso   1.00
C1872  C     0.34063   0.86970   0.80200   0.00000  Uiso   1.00
C1873  C     0.09638   0.83960   0.83098   0.00000  Uiso   1.00
C1874  C     0.40344   0.66024   0.83143   0.00000  Uiso   1.00
C1875  C     0.40347   0.83952   0.83576   0.00000  Uiso   1.00
C1876  C     0.09237   0.65514   0.83372   0.00000  Uiso   1.00
C1877  C     0.34127   0.59483   0.83272   0.00000  Uiso   1.00
C1878  C     0.15790   0.90580   0.83348   0.00000  Uiso   1.00
C1879  C     0.15845   0.59428   0.83508   0.00000  Uiso   1.00
C1880  C     0.34154   0.90513   0.83397   0.00000  Uiso   1.00
N1881  N     0.00000   0.75000   0.95240   0.00000  Uiso   1.00
N1882  N     0.00000   0.75000   0.71427   0.00000  Uiso   1.00
N1883  N     0.25000   0.50000   0.95240   0.00000  Uiso   1.00
N1884  N     0.25000   0.50000   0.71427   0.00000  Uiso   1.00
O1885  O     0.04581   0.70419   0.87154   0.00000  Uiso   1.00
O1886  O     0.45420   0.79581   0.79513   0.00000  Uiso   1.00
O1887  O     0.45420   0.79581   0.87154   0.00000  Uiso   1.00
O1888  O     0.04581   0.70419   0.79513   0.00000  Uiso   1.00
O1889  O     0.45420   0.70419   0.79513   0.00000  Uiso   1.00
O1890  O     0.04581   0.79581   0.87154   0.00000  Uiso   1.00
O1891  O     0.04581   0.79581   0.79513   0.00000  Uiso   1.00
O1892  O     0.45420   0.70419   0.87154   0.00000  Uiso   1.00
O1893  O     0.29581   0.95419   0.87154   0.00000  Uiso   1.00
O1894  O     0.20420   0.54581   0.79513   0.00000  Uiso   1.00
O1895  O     0.20420   0.54581   0.87154   0.00000  Uiso   1.00
O1896  O     0.29581   0.95419   0.79513   0.00000  Uiso   1.00
O1897  O     0.20420   0.95419   0.79513   0.00000  Uiso   1.00
O1898  O     0.29581   0.54581   0.87154   0.00000  Uiso   1.00
O1899  O     0.29581   0.54581   0.79513   0.00000  Uiso   1.00
O1900  O     0.20420   0.95419   0.87154   0.00000  Uiso   1.00
Zn1901 Zn    0.00000   0.75000   0.88437   0.00000  Uiso   1.00
Zn1902 Zn    0.00000   0.75000   0.78229   0.00000  Uiso   1.00
Zn1903 Zn    0.25000   0.50000   0.88437   0.00000  Uiso   1.00
Zn1904 Zn    0.25000   0.50000   0.78229   0.00000  Uiso   1.00
N1905  N     0.49602   0.83115   0.71550   0.00000  Uiso   1.00
H1906  H     0.46543   0.84291   0.70998   0.00000  Uiso   1.00
H1907  H     0.01609   0.85540   0.70166   0.00000  Uiso   1.00
N1908  N     0.48864   0.67000   0.95020   0.00000  Uiso   1.00
H1909  H     0.45950   0.65632   0.96000   0.00000  Uiso   1.00
H1910  H     0.01199   0.64675   0.95807   0.00000  Uiso   1.00
N1911  N     0.49190   0.66922   0.71486   0.00000  Uiso   1.00
H1912  H     0.01783   0.66559   0.73531   0.00000  Uiso   1.00
H1913  H     0.49141   0.64065   0.69432   0.00000  Uiso   1.00
N1914  N     0.00835   0.83081   0.95180   0.00000  Uiso   1.00
H1915  H     0.03822   0.84383   0.95924   0.00000  Uiso   1.00
H1916  H     0.48648   0.85439   0.96366   0.00000  Uiso   1.00
N1917  N     0.26212   0.58162   0.71278   0.00000  Uiso   1.00
H1918  H     0.25109   0.58015   0.74550   0.00000  Uiso   1.00
H1919  H     0.24427   0.60739   0.69870   0.00000  Uiso   1.00
N1920  N     0.25908   0.91808   0.95413   0.00000  Uiso   1.00
H1921  H     0.25018   0.92042   0.92104   0.00000  Uiso   1.00
H1922  H     0.23914   0.89338   0.96756   0.00000  Uiso   1.00
N1923  N     0.24563   0.91949   0.71561   0.00000  Uiso   1.00
H1924  H     0.26991   0.89843   0.70418   0.00000  Uiso   1.00
H1925  H     0.21666   0.90408   0.70824   0.00000  Uiso   1.00
N1926  N     0.25152   0.58064   0.95096   0.00000  Uiso   1.00
H1927  H     0.27778   0.59917   0.96161   0.00000  Uiso   1.00
H1928  H     0.22405   0.59882   0.95880   0.00000  Uiso   1.00
N1929  N     0.41865   0.63899   0.75255   0.00000  Uiso   1.00
H1930  H     0.43027   0.61131   0.73539   0.00000  Uiso   1.00
C1931  C     0.39249   0.66729   0.72460   0.00000  Uiso   1.00
H1932  H     0.40983   0.67569   0.69320   0.00000  Uiso   1.00
H1933  H     0.38461   0.69937   0.74230   0.00000  Uiso   1.00
H1934  H     0.36267   0.64949   0.71566   0.00000  Uiso   1.00
N1935  N     0.13015   0.79961   0.89327   0.00000  Uiso   1.00
H1936  H     0.12193   0.76889   0.87942   0.00000  Uiso   1.00
C1937  C     0.11981   0.80558   0.94042   0.00000  Uiso   1.00
H1938  H     0.09156   0.78496   0.94927   0.00000  Uiso   1.00
H1939  H     0.11337   0.84153   0.94888   0.00000  Uiso   1.00
H1940  H     0.14667   0.79378   0.96097   0.00000  Uiso   1.00
N1941  N     0.07903   0.86275   0.75383   0.00000  Uiso   1.00
H1942  H     0.06710   0.89152   0.73942   0.00000  Uiso   1.00
C1943  C     0.10320   0.83503   0.72248   0.00000  Uiso   1.00
H1944  H     0.08437   0.82834   0.69204   0.00000  Uiso   1.00
H1945  H     0.11109   0.80201   0.73780   0.00000  Uiso   1.00
H1946  H     0.13302   0.85235   0.71224   0.00000  Uiso   1.00
N1947  N     0.36858   0.70231   0.89234   0.00000  Uiso   1.00
H1948  H     0.34258   0.72244   0.88673   0.00000  Uiso   1.00
C1949  C     0.37796   0.69586   0.93943   0.00000  Uiso   1.00
H1950  H     0.40489   0.71798   0.94886   0.00000  Uiso   1.00
H1951  H     0.38609   0.66016   0.94673   0.00000  Uiso   1.00
H1952  H     0.35020   0.70548   0.96065   0.00000  Uiso   1.00
N1953  N     0.08322   0.64519   0.91636   0.00000  Uiso   1.00
H1954  H     0.07307   0.61794   0.93500   0.00000  Uiso   1.00
C1955  C     0.10672   0.67774   0.94291   0.00000  Uiso   1.00
H1956  H     0.08593   0.69180   0.96978   0.00000  Uiso   1.00
H1957  H     0.11797   0.70597   0.92170   0.00000  Uiso   1.00
H1958  H     0.13457   0.66176   0.95869   0.00000  Uiso   1.00
N1959  N     0.37047   0.79844   0.77359   0.00000  Uiso   1.00
H1960  H     0.34348   0.77919   0.77804   0.00000  Uiso   1.00
C1961  C     0.38296   0.80417   0.72697   0.00000  Uiso   1.00
H1962  H     0.40976   0.78127   0.71895   0.00000  Uiso   1.00
H1963  H     0.39248   0.83960   0.71983   0.00000  Uiso   1.00
H1964  H     0.35631   0.79500   0.70454   0.00000  Uiso   1.00
N1965  N     0.42106   0.86240   0.91328   0.00000  Uiso   1.00
H1966  H     0.43288   0.89132   0.92804   0.00000  Uiso   1.00
C1967  C     0.39836   0.83340   0.94453   0.00000  Uiso   1.00
H1968  H     0.41828   0.82654   0.97406   0.00000  Uiso   1.00
H1969  H     0.39041   0.80058   0.92838   0.00000  Uiso   1.00
H1970  H     0.36856   0.84961   0.95640   0.00000  Uiso   1.00
N1971  N     0.10110   0.65827   0.75059   0.00000  Uiso   1.00
H1972  H     0.12172   0.67911   0.73337   0.00000  Uiso   1.00
C1973  C     0.08653   0.62050   0.72340   0.00000  Uiso   1.00
H1974  H     0.07349   0.63308   0.69141   0.00000  Uiso   1.00
H1975  H     0.06130   0.60146   0.74158   0.00000  Uiso   1.00
H1976  H     0.11262   0.59687   0.71501   0.00000  Uiso   1.00
N1977  N     0.12945   0.94067   0.76514   0.00000  Uiso   1.00
H1978  H     0.12815   0.93001   0.73216   0.00000  Uiso   1.00
C1979  C     0.10255   0.97897   0.77496   0.00000  Uiso   1.00
H1980  H     0.10662   0.50472   0.74825   0.00000  Uiso   1.00
H1981  H     0.11152   0.99468   0.80739   0.00000  Uiso   1.00
H1982  H     0.06877   0.96834   0.77639   0.00000  Uiso   1.00
N1983  N     0.30055   0.63875   0.88899   0.00000  Uiso   1.00
H1984  H     0.30482   0.65624   0.91858   0.00000  Uiso   1.00
C1985  C     0.26483   0.65571   0.86424   0.00000  Uiso   1.00
H1986  H     0.23679   0.65849   0.88696   0.00000  Uiso   1.00
H1987  H     0.25660   0.63229   0.83644   0.00000  Uiso   1.00
H1988  H     0.27224   0.68963   0.85037   0.00000  Uiso   1.00
N1989  N     0.37227   0.55836   0.76546   0.00000  Uiso   1.00
H1990  H     0.36847   0.56943   0.73297   0.00000  Uiso   1.00
C1991  C     0.40521   0.52483   0.76960   0.00000  Uiso   1.00
H1992  H     0.40113   0.99843   0.74331   0.00000  Uiso   1.00
H1993  H     0.40317   0.50831   0.80275   0.00000  Uiso   1.00
H1994  H     0.43706   0.54034   0.76552   0.00000  Uiso   1.00
N1995  N     0.19127   0.86812   0.89763   0.00000  Uiso   1.00
H1996  H     0.18071   0.87422   0.92997   0.00000  Uiso   1.00
C1997  C     0.21990   0.82994   0.89369   0.00000  Uiso   1.00
H1998  H     0.25312   0.84226   0.89344   0.00000  Uiso   1.00
H1999  H     0.21447   0.81009   0.86241   0.00000  Uiso   1.00
H2000  H     0.21575   0.80714   0.92291   0.00000  Uiso   1.00
N2001  N     0.36728   0.93722   0.90576   0.00000  Uiso   1.00
H2002  H     0.36986   0.92514   0.93799   0.00000  Uiso   1.00
C2003  C     0.39030   0.97879   0.89834   0.00000  Uiso   1.00
H2004  H     0.38855   0.50022   0.92908   0.00000  Uiso   1.00
H2005  H     0.37556   0.99786   0.87078   0.00000  Uiso   1.00
H2006  H     0.42411   0.97175   0.89029   0.00000  Uiso   1.00
N2007  N     0.18525   0.62696   0.76439   0.00000  Uiso   1.00
H2008  H     0.17759   0.61634   0.73251   0.00000  Uiso   1.00
C2009  C     0.20719   0.67010   0.76531   0.00000  Uiso   1.00
H2010  H     0.24173   0.66450   0.76105   0.00000  Uiso   1.00
H2011  H     0.20188   0.68843   0.79764   0.00000  Uiso   1.00
H2012  H     0.19633   0.69172   0.73735   0.00000  Uiso   1.00
N2013  N     0.13800   0.57079   0.91206   0.00000  Uiso   1.00
H2014  H     0.13830   0.58683   0.94284   0.00000  Uiso   1.00
C2015  C     0.11310   0.52972   0.91194   0.00000  Uiso   1.00
H2016  H     0.11974   0.51012   0.94277   0.00000  Uiso   1.00
H2017  H     0.12177   0.50844   0.88252   0.00000  Uiso   1.00
H2018  H     0.07873   0.53767   0.91116   0.00000  Uiso   1.00
N2019  N     0.30621   0.86517   0.77170   0.00000  Uiso   1.00
H2020  H     0.31388   0.85090   0.74110   0.00000  Uiso   1.00
C2021  C     0.26827   0.84563   0.79118   0.00000  Uiso   1.00
H2022  H     0.24409   0.84044   0.76480   0.00000  Uiso   1.00
H2023  H     0.25475   0.86885   0.81683   0.00000  Uiso   1.00
H2024  H     0.27535   0.81239   0.80649   0.00000  Uiso   1.00
C2025  C     0.55937   0.68906   0.83326   0.00000  Uiso   1.00
C2026  C     0.93902   0.80889   0.83388   0.00000  Uiso   1.00
C2027  C     0.93898   0.69107   0.83304   0.00000  Uiso   1.00
C2028  C     0.56081   0.80905   0.83285   0.00000  Uiso   1.00
C2029  C     0.80966   0.93973   0.83324   0.00000  Uiso   1.00
C2030  C     0.69086   0.56066   0.83375   0.00000  Uiso   1.00
C2031  C     0.69043   0.93967   0.83349   0.00000  Uiso   1.00
C2032  C     0.80957   0.56024   0.83328   0.00000  Uiso   1.00
C2033  C     0.50076   0.78972   0.69098   0.00000  Uiso   1.00
C2034  C     0.99568   0.71055   0.97544   0.00000  Uiso   1.00
C2035  C     0.99685   0.71033   0.69039   0.00000  Uiso   1.00
C2036  C     0.50281   0.78961   0.97610   0.00000  Uiso   1.00
C2037  C     0.75266   0.53982   0.69035   0.00000  Uiso   1.00
C2038  C     0.75077   0.96019   0.97639   0.00000  Uiso   1.00
C2039  C     0.74844   0.96056   0.69099   0.00000  Uiso   1.00
C2040  C     0.75073   0.53953   0.97568   0.00000  Uiso   1.00
C2041  C     0.89988   0.62958   0.79506   0.00000  Uiso   1.00
C2042  C     0.62684   0.83803   0.86481   0.00000  Uiso   1.00
C2043  C     0.60034   0.87025   0.79500   0.00000  Uiso   1.00
C2044  C     0.87117   0.66331   0.86406   0.00000  Uiso   1.00
C2045  C     0.60293   0.63345   0.87464   0.00000  Uiso   1.00
C2046  C     0.87280   0.83738   0.80204   0.00000  Uiso   1.00
C2047  C     0.89891   0.86951   0.87256   0.00000  Uiso   1.00
C2048  C     0.61541   0.64546   0.79394   0.00000  Uiso   1.00
C2049  C     0.62864   0.90593   0.79835   0.00000  Uiso   1.00
C2050  C     0.83802   0.63189   0.86267   0.00000  Uiso   1.00
C2051  C     0.87233   0.59335   0.79879   0.00000  Uiso   1.00
C2052  C     0.65844   0.87082   0.86545   0.00000  Uiso   1.00
C2053  C     0.87001   0.90459   0.87011   0.00000  Uiso   1.00
C2054  C     0.65271   0.62160   0.79743   0.00000  Uiso   1.00
C2055  C     0.63261   0.59897   0.87366   0.00000  Uiso   1.00
C2056  C     0.84063   0.86970   0.80200   0.00000  Uiso   1.00
C2057  C     0.59638   0.83960   0.83098   0.00000  Uiso   1.00
C2058  C     0.90344   0.66024   0.83143   0.00000  Uiso   1.00
C2059  C     0.90347   0.83952   0.83576   0.00000  Uiso   1.00
C2060  C     0.59237   0.65514   0.83372   0.00000  Uiso   1.00
C2061  C     0.84127   0.59483   0.83272   0.00000  Uiso   1.00
C2062  C     0.65790   0.90580   0.83348   0.00000  Uiso   1.00
C2063  C     0.65845   0.59428   0.83508   0.00000  Uiso   1.00
C2064  C     0.84154   0.90513   0.83397   0.00000  Uiso   1.00
N2065  N     0.50000   0.75000   0.95240   0.00000  Uiso   1.00
N2066  N     0.50000   0.75000   0.71427   0.00000  Uiso   1.00
N2067  N     0.75000   0.50000   0.95240   0.00000  Uiso   1.00
N2068  N     0.75000   0.50000   0.71427   0.00000  Uiso   1.00
O2069  O     0.54581   0.70419   0.87154   0.00000  Uiso   1.00
O2070  O     0.95420   0.79581   0.79513   0.00000  Uiso   1.00
O2071  O     0.95420   0.79581   0.87154   0.00000  Uiso   1.00
O2072  O     0.54581   0.70419   0.79513   0.00000  Uiso   1.00
O2073  O     0.95420   0.70419   0.79513   0.00000  Uiso   1.00
O2074  O     0.54581   0.79581   0.87154   0.00000  Uiso   1.00
O2075  O     0.54581   0.79581   0.79513   0.00000  Uiso   1.00
O2076  O     0.95420   0.70419   0.87154   0.00000  Uiso   1.00
O2077  O     0.79581   0.95419   0.87154   0.00000  Uiso   1.00
O2078  O     0.70420   0.54581   0.79513   0.00000  Uiso   1.00
O2079  O     0.70420   0.54581   0.87154   0.00000  Uiso   1.00
O2080  O     0.79581   0.95419   0.79513   0.00000  Uiso   1.00
O2081  O     0.70420   0.95419   0.79513   0.00000  Uiso   1.00
O2082  O     0.79581   0.54581   0.87154   0.00000  Uiso   1.00
O2083  O     0.79581   0.54581   0.79513   0.00000  Uiso   1.00
O2084  O     0.70420   0.95419   0.87154   0.00000  Uiso   1.00
Zn2085 Zn    0.50000   0.75000   0.88437   0.00000  Uiso   1.00
Zn2086 Zn    0.50000   0.75000   0.78229   0.00000  Uiso   1.00
Zn2087 Zn    0.75000   0.50000   0.88437   0.00000  Uiso   1.00
Zn2088 Zn    0.75000   0.50000   0.78229   0.00000  Uiso   1.00
N2089  N     0.99602   0.83115   0.71550   0.00000  Uiso   1.00
H2090  H     0.96543   0.84291   0.70998   0.00000  Uiso   1.00
H2091  H     0.51609   0.85540   0.70166   0.00000  Uiso   1.00
N2092  N     0.98864   0.67000   0.95020   0.00000  Uiso   1.00
H2093  H     0.95950   0.65632   0.96000   0.00000  Uiso   1.00
H2094  H     0.51199   0.64675   0.95807   0.00000  Uiso   1.00
N2095  N     0.99190   0.66922   0.71486   0.00000  Uiso   1.00
H2096  H     0.51783   0.66559   0.73531   0.00000  Uiso   1.00
H2097  H     0.99141   0.64065   0.69432   0.00000  Uiso   1.00
N2098  N     0.50835   0.83081   0.95180   0.00000  Uiso   1.00
H2099  H     0.53822   0.84383   0.95924   0.00000  Uiso   1.00
H2100  H     0.98648   0.85439   0.96366   0.00000  Uiso   1.00
N2101  N     0.76212   0.58162   0.71278   0.00000  Uiso   1.00
H2102  H     0.75109   0.58015   0.74550   0.00000  Uiso   1.00
H2103  H     0.74427   0.60739   0.69870   0.00000  Uiso   1.00
N2104  N     0.75908   0.91808   0.95413   0.00000  Uiso   1.00
H2105  H     0.75018   0.92042   0.92104   0.00000  Uiso   1.00
H2106  H     0.73914   0.89338   0.96756   0.00000  Uiso   1.00
N2107  N     0.74563   0.91949   0.71561   0.00000  Uiso   1.00
H2108  H     0.76991   0.89843   0.70418   0.00000  Uiso   1.00
H2109  H     0.71666   0.90408   0.70824   0.00000  Uiso   1.00
N2110  N     0.75152   0.58064   0.95096   0.00000  Uiso   1.00
H2111  H     0.77778   0.59917   0.96161   0.00000  Uiso   1.00
H2112  H     0.72405   0.59882   0.95880   0.00000  Uiso   1.00
N2113  N     0.91865   0.63899   0.75255   0.00000  Uiso   1.00
H2114  H     0.93027   0.61131   0.73539   0.00000  Uiso   1.00
C2115  C     0.89249   0.66729   0.72460   0.00000  Uiso   1.00
H2116  H     0.90983   0.67569   0.69320   0.00000  Uiso   1.00
H2117  H     0.88461   0.69937   0.74230   0.00000  Uiso   1.00
H2118  H     0.86267   0.64949   0.71566   0.00000  Uiso   1.00
N2119  N     0.63015   0.79961   0.89327   0.00000  Uiso   1.00
H2120  H     0.62193   0.76889   0.87942   0.00000  Uiso   1.00
C2121  C     0.61981   0.80558   0.94042   0.00000  Uiso   1.00
H2122  H     0.59156   0.78496   0.94927   0.00000  Uiso   1.00
H2123  H     0.61337   0.84153   0.94888   0.00000  Uiso   1.00
H2124  H     0.64667   0.79378   0.96097   0.00000  Uiso   1.00
N2125  N     0.57903   0.86275   0.75383   0.00000  Uiso   1.00
H2126  H     0.56710   0.89152   0.73942   0.00000  Uiso   1.00
C2127  C     0.60320   0.83503   0.72248   0.00000  Uiso   1.00
H2128  H     0.58437   0.82834   0.69204   0.00000  Uiso   1.00
H2129  H     0.61109   0.80201   0.73780   0.00000  Uiso   1.00
H2130  H     0.63302   0.85235   0.71224   0.00000  Uiso   1.00
N2131  N     0.86858   0.70231   0.89234   0.00000  Uiso   1.00
H2132  H     0.84258   0.72244   0.88673   0.00000  Uiso   1.00
C2133  C     0.87796   0.69586   0.93943   0.00000  Uiso   1.00
H2134  H     0.90489   0.71798   0.94886   0.00000  Uiso   1.00
H2135  H     0.88609   0.66016   0.94673   0.00000  Uiso   1.00
H2136  H     0.85020   0.70548   0.96065   0.00000  Uiso   1.00
N2137  N     0.58322   0.64519   0.91636   0.00000  Uiso   1.00
H2138  H     0.57307   0.61794   0.93500   0.00000  Uiso   1.00
C2139  C     0.60672   0.67774   0.94291   0.00000  Uiso   1.00
H2140  H     0.58593   0.69180   0.96978   0.00000  Uiso   1.00
H2141  H     0.61797   0.70597   0.92170   0.00000  Uiso   1.00
H2142  H     0.63457   0.66176   0.95869   0.00000  Uiso   1.00
N2143  N     0.87047   0.79844   0.77359   0.00000  Uiso   1.00
H2144  H     0.84348   0.77919   0.77804   0.00000  Uiso   1.00
C2145  C     0.88296   0.80417   0.72697   0.00000  Uiso   1.00
H2146  H     0.90976   0.78127   0.71895   0.00000  Uiso   1.00
H2147  H     0.89248   0.83960   0.71983   0.00000  Uiso   1.00
H2148  H     0.85631   0.79500   0.70454   0.00000  Uiso   1.00
N2149  N     0.92106   0.86240   0.91328   0.00000  Uiso   1.00
H2150  H     0.93288   0.89132   0.92804   0.00000  Uiso   1.00
C2151  C     0.89836   0.83340   0.94453   0.00000  Uiso   1.00
H2152  H     0.91828   0.82654   0.97406   0.00000  Uiso   1.00
H2153  H     0.89041   0.80058   0.92838   0.00000  Uiso   1.00
H2154  H     0.86856   0.84961   0.95640   0.00000  Uiso   1.00
N2155  N     0.60110   0.65827   0.75059   0.00000  Uiso   1.00
H2156  H     0.62172   0.67911   0.73337   0.00000  Uiso   1.00
C2157  C     0.58653   0.62050   0.72340   0.00000  Uiso   1.00
H2158  H     0.57349   0.63308   0.69141   0.00000  Uiso   1.00
H2159  H     0.56130   0.60146   0.74158   0.00000  Uiso   1.00
H2160  H     0.61262   0.59687   0.71501   0.00000  Uiso   1.00
N2161  N     0.62945   0.94067   0.76514   0.00000  Uiso   1.00
H2162  H     0.62815   0.93001   0.73216   0.00000  Uiso   1.00
C2163  C     0.60255   0.97897   0.77496   0.00000  Uiso   1.00
H2164  H     0.60662   0.50472   0.74825   0.00000  Uiso   1.00
H2165  H     0.61152   0.99468   0.80739   0.00000  Uiso   1.00
H2166  H     0.56877   0.96834   0.77639   0.00000  Uiso   1.00
N2167  N     0.80055   0.63875   0.88899   0.00000  Uiso   1.00
H2168  H     0.80482   0.65624   0.91858   0.00000  Uiso   1.00
C2169  C     0.76483   0.65571   0.86424   0.00000  Uiso   1.00
H2170  H     0.73679   0.65849   0.88696   0.00000  Uiso   1.00
H2171  H     0.75660   0.63229   0.83644   0.00000  Uiso   1.00
H2172  H     0.77224   0.68963   0.85037   0.00000  Uiso   1.00
N2173  N     0.87227   0.55836   0.76546   0.00000  Uiso   1.00
H2174  H     0.86847   0.56943   0.73297   0.00000  Uiso   1.00
C2175  C     0.90521   0.52483   0.76960   0.00000  Uiso   1.00
H2176  H     0.90113   0.99843   0.74331   0.00000  Uiso   1.00
H2177  H     0.90317   0.50831   0.80275   0.00000  Uiso   1.00
H2178  H     0.93706   0.54034   0.76552   0.00000  Uiso   1.00
N2179  N     0.69127   0.86812   0.89763   0.00000  Uiso   1.00
H2180  H     0.68071   0.87422   0.92997   0.00000  Uiso   1.00
C2181  C     0.71990   0.82994   0.89369   0.00000  Uiso   1.00
H2182  H     0.75312   0.84226   0.89344   0.00000  Uiso   1.00
H2183  H     0.71447   0.81009   0.86241   0.00000  Uiso   1.00
H2184  H     0.71575   0.80714   0.92291   0.00000  Uiso   1.00
N2185  N     0.86728   0.93722   0.90576   0.00000  Uiso   1.00
H2186  H     0.86986   0.92514   0.93799   0.00000  Uiso   1.00
C2187  C     0.89030   0.97879   0.89834   0.00000  Uiso   1.00
H2188  H     0.88855   0.50022   0.92908   0.00000  Uiso   1.00
H2189  H     0.87556   0.99786   0.87078   0.00000  Uiso   1.00
H2190  H     0.92411   0.97175   0.89029   0.00000  Uiso   1.00
N2191  N     0.68525   0.62696   0.76439   0.00000  Uiso   1.00
H2192  H     0.67759   0.61634   0.73251   0.00000  Uiso   1.00
C2193  C     0.70719   0.67010   0.76531   0.00000  Uiso   1.00
H2194  H     0.74173   0.66450   0.76105   0.00000  Uiso   1.00
H2195  H     0.70188   0.68843   0.79764   0.00000  Uiso   1.00
H2196  H     0.69633   0.69172   0.73735   0.00000  Uiso   1.00
N2197  N     0.63800   0.57079   0.91206   0.00000  Uiso   1.00
H2198  H     0.63830   0.58683   0.94284   0.00000  Uiso   1.00
C2199  C     0.61310   0.52972   0.91194   0.00000  Uiso   1.00
H2200  H     0.61974   0.51012   0.94277   0.00000  Uiso   1.00
H2201  H     0.62177   0.50844   0.88252   0.00000  Uiso   1.00
H2202  H     0.57873   0.53767   0.91116   0.00000  Uiso   1.00
N2203  N     0.80621   0.86517   0.77170   0.00000  Uiso   1.00
H2204  H     0.81388   0.85090   0.74110   0.00000  Uiso   1.00
C2205  C     0.76827   0.84563   0.79118   0.00000  Uiso   1.00
H2206  H     0.74409   0.84044   0.76480   0.00000  Uiso   1.00
H2207  H     0.75475   0.86885   0.81683   0.00000  Uiso   1.00
H2208  H     0.77535   0.81239   0.80649   0.00000  Uiso   1.00
loop_
_geom_bond_atom_site_label_1
_geom_bond_atom_site_label_2
_geom_bond_distance
_geom_bond_site_symmetry_2
_ccdc_geom_bond_type
C1     O48     1.299   .     A
C1     O45     1.291   .     A
C1     C36     1.449   .     S
C2     C35     1.445   .     S
C2     O46     1.301   .     A
C2     O47     1.286   .     A
C3     O49     1.283   .     A
C3     C34     1.445   .     S
C3     O52     1.303   .     A
C4     O51     1.281   .     A
C4     O50     1.302   .     A
C4     C33     1.440   .     S
C5     O56     1.295   .     A
C5     O53     1.287   .     A
C5     C40     1.439   .     S
C6     O55     1.285   .     A
C6     O54     1.294   .     A
C6     C39     1.430   .     S
C7     O60     1.288   .     A
C7     C38     1.433   .     S
C7     O57     1.292   .     A
C8     O59     1.289   .     A
C8     O58     1.289   .     A
C8     C37     1.430   .     S
C9     N42     1.369   .     A
C9     C1484   1.435   1_554 S
C9     N249    1.431   1_455 S
C10    N68     1.430   .     S
C10    C747    1.437   .     S
C10    N225    1.364   .     S
C11    N71     1.430   .     S
C11    C1482   1.437   1_554 S
C11    N226    1.373   .     S
C12    N74     1.431   .     S
C12    N41     1.368   .     A
C12    C745    1.435   .     S
C13    N77     1.434   .     S
C13    N44     1.383   .     A
C13    C1488   1.430   1_554 S
C14    N80     1.432   .     S
C14    C751    1.427   .     S
C14    N411    1.382   .     S
C15    N83     1.426   .     S
C15    C1486   1.427   1_554 S
C15    N412    1.355   .     S
C16    N86     1.426   .     S
C16    N43     1.357   .     A
C16    C749    1.430   .     S
C17    C27     1.383   .     A
C17    N89     1.420   .     S
C17    C34     1.413   .     A
C18    N95     1.427   .     S
C18    C33     1.400   .     A
C18    C28     1.390   .     A
C19    C33     1.412   .     A
C19    N101    1.419   .     S
C19    C25     1.385   .     A
C20    N107    1.427   .     S
C20    C34     1.402   .     A
C20    C26     1.399   .     A
C21    C36     1.423   .     A
C21    C31     1.388   .     A
C21    N113    1.424   .     S
C22    C35     1.403   .     A
C22    N119    1.428   .     S
C22    C32     1.397   .     A
C23    C29     1.387   .     A
C23    N125    1.422   .     S
C23    C35     1.412   .     A
C24    C36     1.411   .     A
C24    C30     1.380   .     A
C24    N131    1.425   .     S
C25    N137    1.431   .     S
C25    C38     1.402   .     A
C26    N143    1.426   .     S
C26    C37     1.412   .     A
C27    N149    1.430   .     S
C27    C37     1.400   .     A
C28    C38     1.411   .     A
C28    N155    1.421   .     S
C29    N161    1.432   .     S
C29    C40     1.409   .     A
C30    N167    1.423   .     S
C30    C39     1.399   .     A
C31    N173    1.431   .     S
C31    C39     1.407   .     A
C32    N179    1.424   .     S
C32    C40     1.412   .     A
N41    Zn61    2.024   .     S
N41    C194    1.364   1_455 S
N42    Zn62    2.024   .     S
N42    C195    1.373   1_455 S
N43    Zn63    2.024   .     S
N43    C382    1.382   1_545 S
N44    Zn64    2.024   .     S
N44    C383    1.355   1_545 S
O45    Zn61    2.017   .     S
O46    Zn246   2.017   .     S
O47    Zn245   2.026   .     S
O48    Zn62    2.026   .     S
O49    Zn246   2.014   .     S
O50    Zn61    2.014   .     S
O51    Zn62    2.017   .     S
O52    Zn245   2.017   .     S
O53    Zn431   2.017   .     S
O54    Zn64    2.017   .     S
O55    Zn63    2.026   .     S
O56    Zn432   2.026   .     S
O57    Zn432   2.014   .     S
O58    Zn63    2.014   .     S
O59    Zn64    2.017   .     S
O60    Zn431   2.017   .     S
Zn61   O236    2.017   1_455 S
Zn61   O231    2.026   1_455 S
Zn62   O233    2.014   1_455 S
Zn62   O230    2.017   1_455 S
Zn63   O428    2.017   1_545 S
Zn63   O421    2.017   1_545 S
Zn64   O425    2.014   1_545 S
Zn64   O424    2.026   1_545 S
N65    H66     1.042   .     S
N65    C193    1.431   .     S
N65    H251    1.040   .     S
H67    N249    1.040   1_455 S
N68    H69     1.043   .     S
N68    H254    1.039   .     S
H70    N252    1.039   1_455 S
N71    H73     1.041   .     S
N71    H256    1.031   .     S
H72    N255    1.031   1_455 S
N74    H75     1.043   .     S
N74    H260    1.041   1_455 S
H76    N258    1.041   .     S
N77    H78     1.031   .     S
N77    H79     1.043   .     S
N80    H82     1.042   .     S
N80    H81     1.030   .     S
N83    H84     1.042   .     S
N83    H85     1.045   .     S
N86    H87     1.043   .     S
N86    H88     1.045   .     S
N89    C91     1.450   .     S
N89    H90     1.029   .     S
C91    H92     1.107   .     S
C91    H93     1.111   .     S
C91    H94     1.111   .     S
N95    H96     1.030   .     S
N95    C97     1.447   .     S
C97    H100    1.109   .     S
C97    H98     1.109   .     S
C97    H99     1.111   .     S
N101   H102    1.030   .     S
N101   C103    1.451   .     S
C103   H105    1.111   .     S
C103   H106    1.111   .     S
C103   H104    1.105   .     S
N107   H108    1.032   .     S
N107   C109    1.449   .     S
C109   H112    1.111   .     S
C109   H111    1.112   .     S
C109   H110    1.109   .     S
N113   H114    1.030   .     S
N113   C115    1.450   .     S
C115   H116    1.109   .     S
C115   H117    1.106   .     S
C115   H118    1.109   .     S
N119   C121    1.449   .     S
N119   H120    1.031   .     S
C121   H124    1.111   .     S
C121   H122    1.109   .     S
C121   H123    1.111   .     S
N125   C127    1.451   .     S
N125   H126    1.031   .     S
C127   H129    1.111   .     S
C127   H130    1.110   .     S
C127   H128    1.106   .     S
N131   C133    1.453   .     S
N131   H132    1.030   .     S
C133   H136    1.108   .     S
C133   H134    1.108   .     S
C133   H135    1.112   .     S
N137   C139    1.445   .     S
N137   H138    1.030   .     S
C139   H141    1.107   .     S
C139   H142    1.111   .     S
C139   H508    1.111   .     S
H140   C507    1.111   1_545 S
N143   C145    1.446   .     S
N143   H144    1.028   .     S
C145   H146    1.111   .     S
C145   H147    1.108   .     S
C145   H148    1.111   .     S
N149   C151    1.447   .     S
N149   H150    1.031   .     S
C151   H154    1.110   .     S
C151   H153    1.105   .     S
C151   H520    1.110   1_545 S
H152   C519    1.110   .     S
N155   C157    1.453   .     S
N155   H156    1.030   .     S
C157   H158    1.109   .     S
C157   H160    1.110   .     S
C157   H159    1.112   .     S
N161   H162    1.029   .     S
N161   C163    1.444   .     S
C163   H165    1.106   .     S
C163   H166    1.111   .     S
C163   H532    1.111   .     S
H164   C531    1.111   1_545 S
N167   C169    1.451   .     S
N167   H168    1.029   .     S
C169   H170    1.109   .     S
C169   H171    1.113   .     S
C169   H172    1.111   .     S
N173   C175    1.446   .     S
N173   H174    1.029   .     S
C175   H177    1.108   .     S
C175   H178    1.111   .     S
C175   H176    1.111   .     S
N179   H180    1.028   .     S
N179   C181    1.446   .     S
C181   H182    1.110   .     S
C181   H184    1.111   .     S
C181   H183    1.107   .     S
C185   O232    1.299   .     A
C185   O229    1.291   .     A
C185   C220    1.449   .     S
C186   C219    1.445   .     S
C186   O230    1.301   .     A
C186   O231    1.286   .     A
C187   O233    1.283   .     A
C187   C218    1.445   .     S
C187   O236    1.303   .     A
C188   O235    1.281   .     A
C188   O234    1.302   .     A
C188   C217    1.440   .     S
C189   O240    1.295   .     A
C189   O237    1.287   .     A
C189   C224    1.439   .     S
C190   O239    1.285   .     A
C190   O238    1.294   .     A
C190   C223    1.430   .     S
C191   O244    1.288   .     A
C191   C222    1.433   .     S
C191   O241    1.292   .     A
C192   O243    1.289   .     A
C192   O242    1.289   .     A
C192   C221    1.430   .     S
C193   N226    1.369   .     A
C193   C1668   1.435   1_554 S
C194   N252    1.430   .     S
C194   C931    1.437   .     S
C194   N41     1.364   1_655 S
C195   N255    1.430   .     S
C195   C1666   1.437   1_554 S
C195   N42     1.373   1_655 S
C196   N258    1.431   .     S
C196   N225    1.368   .     A
C196   C929    1.435   .     S
C197   N261    1.434   .     S
C197   N228    1.383   .     A
C197   C1672   1.430   1_554 S
C198   N264    1.432   .     S
C198   C935    1.427   .     S
C198   N595    1.382   .     S
C199   N267    1.426   .     S
C199   C1670   1.427   1_554 S
C199   N596    1.355   .     S
C200   N270    1.426   .     S
C200   N227    1.357   .     A
C200   C933    1.430   .     S
C201   C211    1.383   .     A
C201   N273    1.420   .     S
C201   C218    1.413   .     A
C202   N279    1.427   .     S
C202   C217    1.400   .     A
C202   C212    1.390   .     A
C203   C217    1.412   .     A
C203   N285    1.419   .     S
C203   C209    1.385   .     A
C204   N291    1.427   .     S
C204   C218    1.402   .     A
C204   C210    1.399   .     A
C205   C220    1.423   .     A
C205   C215    1.388   .     A
C205   N297    1.424   .     S
C206   C219    1.403   .     A
C206   N303    1.428   .     S
C206   C216    1.397   .     A
C207   C213    1.387   .     A
C207   N309    1.422   .     S
C207   C219    1.412   .     A
C208   C220    1.411   .     A
C208   C214    1.380   .     A
C208   N315    1.425   .     S
C209   N321    1.431   .     S
C209   C222    1.402   .     A
C210   N327    1.426   .     S
C210   C221    1.412   .     A
C211   N333    1.430   .     S
C211   C221    1.400   .     A
C212   C222    1.411   .     A
C212   N339    1.421   .     S
C213   N345    1.432   .     S
C213   C224    1.409   .     A
C214   N351    1.423   .     S
C214   C223    1.399   .     A
C215   N357    1.431   .     S
C215   C223    1.407   .     A
C216   N363    1.424   .     S
C216   C224    1.412   .     A
N225   Zn245   2.024   .     S
N226   Zn246   2.024   .     S
N227   Zn247   2.024   .     S
N227   C566    1.382   1_545 S
N228   Zn248   2.024   .     S
N228   C567    1.355   1_545 S
O229   Zn245   2.017   .     S
O230   Zn62    2.017   1_655 S
O231   Zn61    2.026   1_655 S
O232   Zn246   2.026   .     S
O233   Zn62    2.014   1_655 S
O234   Zn245   2.014   .     S
O235   Zn246   2.017   .     S
O236   Zn61    2.017   1_655 S
O237   Zn615   2.017   .     S
O238   Zn248   2.017   .     S
O239   Zn247   2.026   .     S
O240   Zn616   2.026   .     S
O241   Zn616   2.014   .     S
O242   Zn247   2.014   .     S
O243   Zn248   2.017   .     S
O244   Zn615   2.017   .     S
Zn247  O612    2.017   1_545 S
Zn247  O605    2.017   1_545 S
Zn248  O609    2.014   1_545 S
Zn248  O608    2.026   1_545 S
N249   H250    1.042   .     S
N249   C9      1.431   1_655 S
N249   H67     1.040   1_655 S
N252   H253    1.043   .     S
N252   H70     1.039   1_655 S
N255   H257    1.041   .     S
N255   H72     1.031   1_655 S
N258   H259    1.043   .     S
H260   N74     1.041   1_655 S
N261   H262    1.031   .     S
N261   H263    1.043   .     S
N264   H266    1.042   .     S
N264   H265    1.030   .     S
N267   H268    1.042   .     S
N267   H269    1.045   .     S
N270   H271    1.043   .     S
N270   H272    1.045   .     S
N273   C275    1.450   .     S
N273   H274    1.029   .     S
C275   H276    1.107   .     S
C275   H277    1.111   .     S
C275   H278    1.111   .     S
N279   H280    1.030   .     S
N279   C281    1.447   .     S
C281   H284    1.109   .     S
C281   H282    1.109   .     S
C281   H283    1.111   .     S
N285   H286    1.030   .     S
N285   C287    1.451   .     S
C287   H289    1.111   .     S
C287   H290    1.111   .     S
C287   H288    1.105   .     S
N291   H292    1.032   .     S
N291   C293    1.449   .     S
C293   H296    1.111   .     S
C293   H295    1.112   .     S
C293   H294    1.109   .     S
N297   H298    1.030   .     S
N297   C299    1.450   .     S
C299   H300    1.109   .     S
C299   H301    1.106   .     S
C299   H302    1.109   .     S
N303   C305    1.449   .     S
N303   H304    1.031   .     S
C305   H308    1.111   .     S
C305   H306    1.109   .     S
C305   H307    1.111   .     S
N309   C311    1.451   .     S
N309   H310    1.031   .     S
C311   H313    1.111   .     S
C311   H314    1.110   .     S
C311   H312    1.106   .     S
N315   C317    1.453   .     S
N315   H316    1.030   .     S
C317   H320    1.108   .     S
C317   H318    1.108   .     S
C317   H319    1.112   .     S
N321   C323    1.445   .     S
N321   H322    1.030   .     S
C323   H325    1.107   .     S
C323   H326    1.111   .     S
C323   H692    1.111   .     S
H324   C691    1.111   1_545 S
N327   C329    1.446   .     S
N327   H328    1.028   .     S
C329   H330    1.111   .     S
C329   H331    1.108   .     S
C329   H332    1.111   .     S
N333   C335    1.447   .     S
N333   H334    1.031   .     S
C335   H338    1.110   .     S
C335   H337    1.105   .     S
C335   H704    1.110   1_545 S
H336   C703    1.110   .     S
N339   C341    1.453   .     S
N339   H340    1.030   .     S
C341   H342    1.109   .     S
C341   H344    1.110   .     S
C341   H343    1.112   .     S
N345   H346    1.029   .     S
N345   C347    1.444   .     S
C347   H349    1.106   .     S
C347   H350    1.111   .     S
C347   H716    1.111   .     S
H348   C715    1.111   1_545 S
N351   C353    1.451   .     S
N351   H352    1.029   .     S
C353   H354    1.109   .     S
C353   H355    1.113   .     S
C353   H356    1.111   .     S
N357   C359    1.446   .     S
N357   H358    1.029   .     S
C359   H361    1.108   .     S
C359   H362    1.111   .     S
C359   H360    1.111   .     S
N363   H364    1.028   .     S
N363   C365    1.446   .     S
C365   H366    1.110   .     S
C365   H368    1.111   .     S
C365   H367    1.107   .     S
C369   O416    1.299   .     A
C369   O413    1.291   .     A
C369   C404    1.449   .     S
C370   C403    1.445   .     S
C370   O414    1.301   .     A
C370   O415    1.286   .     A
C371   O417    1.283   .     A
C371   C402    1.445   .     S
C371   O420    1.303   .     A
C372   O419    1.281   .     A
C372   O418    1.302   .     A
C372   C401    1.440   .     S
C373   O424    1.295   .     A
C373   O421    1.287   .     A
C373   C408    1.439   .     S
C374   O423    1.285   .     A
C374   O422    1.294   .     A
C374   C407    1.430   .     S
C375   O428    1.288   .     A
C375   C406    1.433   .     S
C375   O425    1.292   .     A
C376   O427    1.289   .     A
C376   O426    1.289   .     A
C376   C405    1.430   .     S
C377   N410    1.369   .     A
C377   C1852   1.435   1_554 S
C377   N617    1.431   1_455 S
C378   N436    1.430   .     S
C378   C1115   1.437   .     S
C378   N593    1.364   .     S
C379   N439    1.430   .     S
C379   C1850   1.437   1_554 S
C379   N594    1.373   .     S
C380   N442    1.431   .     S
C380   N409    1.368   .     A
C380   C1113   1.435   .     S
C381   N445    1.434   .     S
C381   N412    1.383   .     A
C381   C1856   1.430   1_554 S
C382   N448    1.432   .     S
C382   C1119   1.427   .     S
C382   N43     1.382   1_565 S
C383   N451    1.426   .     S
C383   C1854   1.427   1_554 S
C383   N44     1.355   1_565 S
C384   N454    1.426   .     S
C384   N411    1.357   .     A
C384   C1117   1.430   .     S
C385   C395    1.383   .     A
C385   N457    1.420   .     S
C385   C402    1.413   .     A
C386   N463    1.427   .     S
C386   C401    1.400   .     A
C386   C396    1.390   .     A
C387   C401    1.412   .     A
C387   N469    1.419   .     S
C387   C393    1.385   .     A
C388   N475    1.427   .     S
C388   C402    1.402   .     A
C388   C394    1.399   .     A
C389   C404    1.423   .     A
C389   C399    1.388   .     A
C389   N481    1.424   .     S
C390   C403    1.403   .     A
C390   N487    1.428   .     S
C390   C400    1.397   .     A
C391   C397    1.387   .     A
C391   N493    1.422   .     S
C391   C403    1.412   .     A
C392   C404    1.411   .     A
C392   C398    1.380   .     A
C392   N499    1.425   .     S
C393   N505    1.431   .     S
C393   C406    1.402   .     A
C394   N511    1.426   .     S
C394   C405    1.412   .     A
C395   N517    1.430   .     S
C395   C405    1.400   .     A
C396   C406    1.411   .     A
C396   N523    1.421   .     S
C397   N529    1.432   .     S
C397   C408    1.409   .     A
C398   N535    1.423   .     S
C398   C407    1.399   .     A
C399   N541    1.431   .     S
C399   C407    1.407   .     A
C400   N547    1.424   .     S
C400   C408    1.412   .     A
N409   Zn429   2.024   .     S
N409   C562    1.364   1_455 S
N410   Zn430   2.024   .     S
N410   C563    1.373   1_455 S
N411   Zn431   2.024   .     S
N412   Zn432   2.024   .     S
O413   Zn429   2.017   .     S
O414   Zn614   2.017   .     S
O415   Zn613   2.026   .     S
O416   Zn430   2.026   .     S
O417   Zn614   2.014   .     S
O418   Zn429   2.014   .     S
O419   Zn430   2.017   .     S
O420   Zn613   2.017   .     S
O421   Zn63    2.017   1_565 S
O422   Zn432   2.017   .     S
O423   Zn431   2.026   .     S
O424   Zn64    2.026   1_565 S
O425   Zn64    2.014   1_565 S
O426   Zn431   2.014   .     S
O427   Zn432   2.017   .     S
O428   Zn63    2.017   1_565 S
Zn429  O604    2.017   1_455 S
Zn429  O599    2.026   1_455 S
Zn430  O601    2.014   1_455 S
Zn430  O598    2.017   1_455 S
N433   H434    1.042   .     S
N433   C561    1.431   .     S
N433   H619    1.040   .     S
H435   N617    1.040   1_455 S
N436   H437    1.043   .     S
N436   H622    1.039   .     S
H438   N620    1.039   1_455 S
N439   H441    1.041   .     S
N439   H624    1.031   .     S
H440   N623    1.031   1_455 S
N442   H443    1.043   .     S
N442   H628    1.041   1_455 S
H444   N626    1.041   .     S
N445   H446    1.031   .     S
N445   H447    1.043   .     S
N448   H450    1.042   .     S
N448   H449    1.030   .     S
N451   H452    1.042   .     S
N451   H453    1.045   .     S
N454   H455    1.043   .     S
N454   H456    1.045   .     S
N457   C459    1.450   .     S
N457   H458    1.029   .     S
C459   H460    1.107   .     S
C459   H461    1.111   .     S
C459   H462    1.111   .     S
N463   H464    1.030   .     S
N463   C465    1.447   .     S
C465   H468    1.109   .     S
C465   H466    1.109   .     S
C465   H467    1.111   .     S
N469   H470    1.030   .     S
N469   C471    1.451   .     S
C471   H473    1.111   .     S
C471   H474    1.111   .     S
C471   H472    1.105   .     S
N475   H476    1.032   .     S
N475   C477    1.449   .     S
C477   H480    1.111   .     S
C477   H479    1.112   .     S
C477   H478    1.109   .     S
N481   H482    1.030   .     S
N481   C483    1.450   .     S
C483   H484    1.109   .     S
C483   H485    1.106   .     S
C483   H486    1.109   .     S
N487   C489    1.449   .     S
N487   H488    1.031   .     S
C489   H492    1.111   .     S
C489   H490    1.109   .     S
C489   H491    1.111   .     S
N493   C495    1.451   .     S
N493   H494    1.031   .     S
C495   H497    1.111   .     S
C495   H498    1.110   .     S
C495   H496    1.106   .     S
N499   C501    1.453   .     S
N499   H500    1.030   .     S
C501   H504    1.108   .     S
C501   H502    1.108   .     S
C501   H503    1.112   .     S
N505   C507    1.445   .     S
N505   H506    1.030   .     S
C507   H509    1.107   .     S
C507   H510    1.111   .     S
C507   H140    1.111   1_565 S
N511   C513    1.446   .     S
N511   H512    1.028   .     S
C513   H514    1.111   .     S
C513   H515    1.108   .     S
C513   H516    1.111   .     S
N517   C519    1.447   .     S
N517   H518    1.031   .     S
C519   H522    1.110   .     S
C519   H521    1.105   .     S
H520   C151    1.110   1_565 S
N523   C525    1.453   .     S
N523   H524    1.030   .     S
C525   H526    1.109   .     S
C525   H528    1.110   .     S
C525   H527    1.112   .     S
N529   H530    1.029   .     S
N529   C531    1.444   .     S
C531   H533    1.106   .     S
C531   H534    1.111   .     S
C531   H164    1.111   1_565 S
N535   C537    1.451   .     S
N535   H536    1.029   .     S
C537   H538    1.109   .     S
C537   H539    1.113   .     S
C537   H540    1.111   .     S
N541   C543    1.446   .     S
N541   H542    1.029   .     S
C543   H545    1.108   .     S
C543   H546    1.111   .     S
C543   H544    1.111   .     S
N547   H548    1.028   .     S
N547   C549    1.446   .     S
C549   H550    1.110   .     S
C549   H552    1.111   .     S
C549   H551    1.107   .     S
C553   O600    1.299   .     A
C553   O597    1.291   .     A
C553   C588    1.449   .     S
C554   C587    1.445   .     S
C554   O598    1.301   .     A
C554   O599    1.286   .     A
C555   O601    1.283   .     A
C555   C586    1.445   .     S
C555   O604    1.303   .     A
C556   O603    1.281   .     A
C556   O602    1.302   .     A
C556   C585    1.440   .     S
C557   O608    1.295   .     A
C557   O605    1.287   .     A
C557   C592    1.439   .     S
C558   O607    1.285   .     A
C558   O606    1.294   .     A
C558   C591    1.430   .     S
C559   O612    1.288   .     A
C559   C590    1.433   .     S
C559   O609    1.292   .     A
C560   O611    1.289   .     A
C560   O610    1.289   .     A
C560   C589    1.430   .     S
C561   N594    1.369   .     A
C561   C2036   1.435   1_554 S
C562   N620    1.430   .     S
C562   C1299   1.437   .     S
C562   N409    1.364   1_655 S
C563   N623    1.430   .     S
C563   C2034   1.437   1_554 S
C563   N410    1.373   1_655 S
C564   N626    1.431   .     S
C564   N593    1.368   .     A
C564   C1297   1.435   .     S
C565   N629    1.434   .     S
C565   N596    1.383   .     A
C565   C2040   1.430   1_554 S
C566   N632    1.432   .     S
C566   C1303   1.427   .     S
C566   N227    1.382   1_565 S
C567   N635    1.426   .     S
C567   C2038   1.427   1_554 S
C567   N228    1.355   1_565 S
C568   N638    1.426   .     S
C568   N595    1.357   .     A
C568   C1301   1.430   .     S
C569   C579    1.383   .     A
C569   N641    1.420   .     S
C569   C586    1.413   .     A
C570   N647    1.427   .     S
C570   C585    1.400   .     A
C570   C580    1.390   .     A
C571   C585    1.412   .     A
C571   N653    1.419   .     S
C571   C577    1.385   .     A
C572   N659    1.427   .     S
C572   C586    1.402   .     A
C572   C578    1.399   .     A
C573   C588    1.423   .     A
C573   C583    1.388   .     A
C573   N665    1.424   .     S
C574   C587    1.403   .     A
C574   N671    1.428   .     S
C574   C584    1.397   .     A
C575   C581    1.387   .     A
C575   N677    1.422   .     S
C575   C587    1.412   .     A
C576   C588    1.411   .     A
C576   C582    1.380   .     A
C576   N683    1.425   .     S
C577   N689    1.431   .     S
C577   C590    1.402   .     A
C578   N695    1.426   .     S
C578   C589    1.412   .     A
C579   N701    1.430   .     S
C579   C589    1.400   .     A
C580   C590    1.411   .     A
C580   N707    1.421   .     S
C581   N713    1.432   .     S
C581   C592    1.409   .     A
C582   N719    1.423   .     S
C582   C591    1.399   .     A
C583   N725    1.431   .     S
C583   C591    1.407   .     A
C584   N731    1.424   .     S
C584   C592    1.412   .     A
N593   Zn613   2.024   .     S
N594   Zn614   2.024   .     S
N595   Zn615   2.024   .     S
N596   Zn616   2.024   .     S
O597   Zn613   2.017   .     S
O598   Zn430   2.017   1_655 S
O599   Zn429   2.026   1_655 S
O600   Zn614   2.026   .     S
O601   Zn430   2.014   1_655 S
O602   Zn613   2.014   .     S
O603   Zn614   2.017   .     S
O604   Zn429   2.017   1_655 S
O605   Zn247   2.017   1_565 S
O606   Zn616   2.017   .     S
O607   Zn615   2.026   .     S
O608   Zn248   2.026   1_565 S
O609   Zn248   2.014   1_565 S
O610   Zn615   2.014   .     S
O611   Zn616   2.017   .     S
O612   Zn247   2.017   1_565 S
N617   H618    1.042   .     S
N617   C377    1.431   1_655 S
N617   H435    1.040   1_655 S
N620   H621    1.043   .     S
N620   H438    1.039   1_655 S
N623   H625    1.041   .     S
N623   H440    1.031   1_655 S
N626   H627    1.043   .     S
H628   N442    1.041   1_655 S
N629   H630    1.031   .     S
N629   H631    1.043   .     S
N632   H634    1.042   .     S
N632   H633    1.030   .     S
N635   H636    1.042   .     S
N635   H637    1.045   .     S
N638   H639    1.043   .     S
N638   H640    1.045   .     S
N641   C643    1.450   .     S
N641   H642    1.029   .     S
C643   H644    1.107   .     S
C643   H645    1.111   .     S
C643   H646    1.111   .     S
N647   H648    1.030   .     S
N647   C649    1.447   .     S
C649   H652    1.109   .     S
C649   H650    1.109   .     S
C649   H651    1.111   .     S
N653   H654    1.030   .     S
N653   C655    1.451   .     S
C655   H657    1.111   .     S
C655   H658    1.111   .     S
C655   H656    1.105   .     S
N659   H660    1.032   .     S
N659   C661    1.449   .     S
C661   H664    1.111   .     S
C661   H663    1.112   .     S
C661   H662    1.109   .     S
N665   H666    1.030   .     S
N665   C667    1.450   .     S
C667   H668    1.109   .     S
C667   H669    1.106   .     S
C667   H670    1.109   .     S
N671   C673    1.449   .     S
N671   H672    1.031   .     S
C673   H676    1.111   .     S
C673   H674    1.109   .     S
C673   H675    1.111   .     S
N677   C679    1.451   .     S
N677   H678    1.031   .     S
C679   H681    1.111   .     S
C679   H682    1.110   .     S
C679   H680    1.106   .     S
N683   C685    1.453   .     S
N683   H684    1.030   .     S
C685   H688    1.108   .     S
C685   H686    1.108   .     S
C685   H687    1.112   .     S
N689   C691    1.445   .     S
N689   H690    1.030   .     S
C691   H693    1.107   .     S
C691   H694    1.111   .     S
C691   H324    1.111   1_565 S
N695   C697    1.446   .     S
N695   H696    1.028   .     S
C697   H698    1.111   .     S
C697   H699    1.108   .     S
C697   H700    1.111   .     S
N701   C703    1.447   .     S
N701   H702    1.031   .     S
C703   H706    1.110   .     S
C703   H705    1.105   .     S
H704   C335    1.110   1_565 S
N707   C709    1.453   .     S
N707   H708    1.030   .     S
C709   H710    1.109   .     S
C709   H712    1.110   .     S
C709   H711    1.112   .     S
N713   H714    1.029   .     S
N713   C715    1.444   .     S
C715   H717    1.106   .     S
C715   H718    1.111   .     S
C715   H348    1.111   1_565 S
N719   C721    1.451   .     S
N719   H720    1.029   .     S
C721   H722    1.109   .     S
C721   H723    1.113   .     S
C721   H724    1.111   .     S
N725   C727    1.446   .     S
N725   H726    1.029   .     S
C727   H729    1.108   .     S
C727   H730    1.111   .     S
C727   H728    1.111   .     S
N731   H732    1.028   .     S
N731   C733    1.446   .     S
C733   H734    1.110   .     S
C733   H736    1.111   .     S
C733   H735    1.107   .     S
C737   O784    1.299   .     A
C737   O781    1.291   .     A
C737   C772    1.449   .     S
C738   C771    1.445   .     S
C738   O782    1.301   .     A
C738   O783    1.286   .     A
C739   O785    1.283   .     A
C739   C770    1.445   .     S
C739   O788    1.303   .     A
C740   O787    1.281   .     A
C740   O786    1.302   .     A
C740   C769    1.440   .     S
C741   O792    1.295   .     A
C741   O789    1.287   .     A
C741   C776    1.439   .     S
C742   O791    1.285   .     A
C742   O790    1.294   .     A
C742   C775    1.430   .     S
C743   O796    1.288   .     A
C743   C774    1.433   .     S
C743   O793    1.292   .     A
C744   O795    1.289   .     A
C744   O794    1.289   .     A
C744   C773    1.430   .     S
C745   N778    1.369   .     A
C745   N985    1.431   1_455 S
C746   N804    1.430   .     S
C746   C1483   1.437   .     S
C746   N961    1.364   .     S
C747   N807    1.430   .     S
C747   N962    1.373   .     S
C748   N810    1.431   .     S
C748   N777    1.368   .     A
C748   C1481   1.435   .     S
C749   N813    1.434   .     S
C749   N780    1.383   .     A
C750   N816    1.432   .     S
C750   C1487   1.427   .     S
C750   N1147   1.382   .     S
C751   N819    1.426   .     S
C751   N1148   1.355   .     S
C752   N822    1.426   .     S
C752   N779    1.357   .     A
C752   C1485   1.430   .     S
C753   C763    1.383   .     A
C753   N825    1.420   .     S
C753   C770    1.413   .     A
C754   N831    1.427   .     S
C754   C769    1.400   .     A
C754   C764    1.390   .     A
C755   C769    1.412   .     A
C755   N837    1.419   .     S
C755   C761    1.385   .     A
C756   N843    1.427   .     S
C756   C770    1.402   .     A
C756   C762    1.399   .     A
C757   C772    1.423   .     A
C757   C767    1.388   .     A
C757   N849    1.424   .     S
C758   C771    1.403   .     A
C758   N855    1.428   .     S
C758   C768    1.397   .     A
C759   C765    1.387   .     A
C759   N861    1.422   .     S
C759   C771    1.412   .     A
C760   C772    1.411   .     A
C760   C766    1.380   .     A
C760   N867    1.425   .     S
C761   N873    1.431   .     S
C761   C774    1.402   .     A
C762   N879    1.426   .     S
C762   C773    1.412   .     A
C763   N885    1.430   .     S
C763   C773    1.400   .     A
C764   C774    1.411   .     A
C764   N891    1.421   .     S
C765   N897    1.432   .     S
C765   C776    1.409   .     A
C766   N903    1.423   .     S
C766   C775    1.399   .     A
C767   N909    1.431   .     S
C767   C775    1.407   .     A
C768   N915    1.424   .     S
C768   C776    1.412   .     A
N777   Zn797   2.024   .     S
N777   C930    1.364   1_455 S
N778   Zn798   2.024   .     S
N778   C931    1.373   1_455 S
N779   Zn799   2.024   .     S
N779   C1118   1.382   1_545 S
N780   Zn800   2.024   .     S
N780   C1119   1.355   1_545 S
O781   Zn797   2.017   .     S
O782   Zn982   2.017   .     S
O783   Zn981   2.026   .     S
O784   Zn798   2.026   .     S
O785   Zn982   2.014   .     S
O786   Zn797   2.014   .     S
O787   Zn798   2.017   .     S
O788   Zn981   2.017   .     S
O789   Zn1167  2.017   .     S
O790   Zn800   2.017   .     S
O791   Zn799   2.026   .     S
O792   Zn1168  2.026   .     S
O793   Zn1168  2.014   .     S
O794   Zn799   2.014   .     S
O795   Zn800   2.017   .     S
O796   Zn1167  2.017   .     S
Zn797  O972    2.017   1_455 S
Zn797  O967    2.026   1_455 S
Zn798  O969    2.014   1_455 S
Zn798  O966    2.017   1_455 S
Zn799  O1164   2.017   1_545 S
Zn799  O1157   2.017   1_545 S
Zn800  O1161   2.014   1_545 S
Zn800  O1160   2.026   1_545 S
N801   H802    1.042   .     S
N801   C929    1.431   .     S
N801   H987    1.040   .     S
H803   N985    1.040   1_455 S
N804   H805    1.043   .     S
N804   H990    1.039   .     S
H806   N988    1.039   1_455 S
N807   H809    1.041   .     S
N807   H992    1.031   .     S
H808   N991    1.031   1_455 S
N810   H811    1.043   .     S
N810   H996    1.041   1_455 S
H812   N994    1.041   .     S
N813   H814    1.031   .     S
N813   H815    1.043   .     S
N816   H818    1.042   .     S
N816   H817    1.030   .     S
N819   H820    1.042   .     S
N819   H821    1.045   .     S
N822   H823    1.043   .     S
N822   H824    1.045   .     S
N825   C827    1.450   .     S
N825   H826    1.029   .     S
C827   H828    1.107   .     S
C827   H829    1.111   .     S
C827   H830    1.111   .     S
N831   H832    1.030   .     S
N831   C833    1.447   .     S
C833   H836    1.109   .     S
C833   H834    1.109   .     S
C833   H835    1.111   .     S
N837   H838    1.030   .     S
N837   C839    1.451   .     S
C839   H841    1.111   .     S
C839   H842    1.111   .     S
C839   H840    1.105   .     S
N843   H844    1.032   .     S
N843   C845    1.449   .     S
C845   H848    1.111   .     S
C845   H847    1.112   .     S
C845   H846    1.109   .     S
N849   H850    1.030   .     S
N849   C851    1.450   .     S
C851   H852    1.109   .     S
C851   H853    1.106   .     S
C851   H854    1.109   .     S
N855   C857    1.449   .     S
N855   H856    1.031   .     S
C857   H860    1.111   .     S
C857   H858    1.109   .     S
C857   H859    1.111   .     S
N861   C863    1.451   .     S
N861   H862    1.031   .     S
C863   H865    1.111   .     S
C863   H866    1.110   .     S
C863   H864    1.106   .     S
N867   C869    1.453   .     S
N867   H868    1.030   .     S
C869   H872    1.108   .     S
C869   H870    1.108   .     S
C869   H871    1.112   .     S
N873   C875    1.445   .     S
N873   H874    1.030   .     S
C875   H877    1.107   .     S
C875   H878    1.111   .     S
C875   H1244   1.111   .     S
H876   C1243   1.111   1_545 S
N879   C881    1.446   .     S
N879   H880    1.028   .     S
C881   H882    1.111   .     S
C881   H883    1.108   .     S
C881   H884    1.111   .     S
N885   C887    1.447   .     S
N885   H886    1.031   .     S
C887   H890    1.110   .     S
C887   H889    1.105   .     S
C887   H1256   1.110   1_545 S
H888   C1255   1.110   .     S
N891   C893    1.453   .     S
N891   H892    1.030   .     S
C893   H894    1.109   .     S
C893   H896    1.110   .     S
C893   H895    1.112   .     S
N897   H898    1.029   .     S
N897   C899    1.444   .     S
C899   H901    1.106   .     S
C899   H902    1.111   .     S
C899   H1268   1.111   .     S
H900   C1267   1.111   1_545 S
N903   C905    1.451   .     S
N903   H904    1.029   .     S
C905   H906    1.109   .     S
C905   H907    1.113   .     S
C905   H908    1.111   .     S
N909   C911    1.446   .     S
N909   H910    1.029   .     S
C911   H913    1.108   .     S
C911   H914    1.111   .     S
C911   H912    1.111   .     S
N915   H916    1.028   .     S
N915   C917    1.446   .     S
C917   H918    1.110   .     S
C917   H920    1.111   .     S
C917   H919    1.107   .     S
C921   O968    1.299   .     A
C921   O965    1.291   .     A
C921   C956    1.449   .     S
C922   C955    1.445   .     S
C922   O966    1.301   .     A
C922   O967    1.286   .     A
C923   O969    1.283   .     A
C923   C954    1.445   .     S
C923   O972    1.303   .     A
C924   O971    1.281   .     A
C924   O970    1.302   .     A
C924   C953    1.440   .     S
C925   O976    1.295   .     A
C925   O973    1.287   .     A
C925   C960    1.439   .     S
C926   O975    1.285   .     A
C926   O974    1.294   .     A
C926   C959    1.430   .     S
C927   O980    1.288   .     A
C927   C958    1.433   .     S
C927   O977    1.292   .     A
C928   O979    1.289   .     A
C928   O978    1.289   .     A
C928   C957    1.430   .     S
C929   N962    1.369   .     A
C930   N988    1.430   .     S
C930   C1667   1.437   .     S
C930   N777    1.364   1_655 S
C931   N991    1.430   .     S
C931   N778    1.373   1_655 S
C932   N994    1.431   .     S
C932   N961    1.368   .     A
C932   C1665   1.435   .     S
C933   N997    1.434   .     S
C933   N964    1.383   .     A
C934   N1000   1.432   .     S
C934   C1671   1.427   .     S
C934   N1331   1.382   .     S
C935   N1003   1.426   .     S
C935   N1332   1.355   .     S
C936   N1006   1.426   .     S
C936   N963    1.357   .     A
C936   C1669   1.430   .     S
C937   C947    1.383   .     A
C937   N1009   1.420   .     S
C937   C954    1.413   .     A
C938   N1015   1.427   .     S
C938   C953    1.400   .     A
C938   C948    1.390   .     A
C939   C953    1.412   .     A
C939   N1021   1.419   .     S
C939   C945    1.385   .     A
C940   N1027   1.427   .     S
C940   C954    1.402   .     A
C940   C946    1.399   .     A
C941   C956    1.423   .     A
C941   C951    1.388   .     A
C941   N1033   1.424   .     S
C942   C955    1.403   .     A
C942   N1039   1.428   .     S
C942   C952    1.397   .     A
C943   C949    1.387   .     A
C943   N1045   1.422   .     S
C943   C955    1.412   .     A
C944   C956    1.411   .     A
C944   C950    1.380   .     A
C944   N1051   1.425   .     S
C945   N1057   1.431   .     S
C945   C958    1.402   .     A
C946   N1063   1.426   .     S
C946   C957    1.412   .     A
C947   N1069   1.430   .     S
C947   C957    1.400   .     A
C948   C958    1.411   .     A
C948   N1075   1.421   .     S
C949   N1081   1.432   .     S
C949   C960    1.409   .     A
C950   N1087   1.423   .     S
C950   C959    1.399   .     A
C951   N1093   1.431   .     S
C951   C959    1.407   .     A
C952   N1099   1.424   .     S
C952   C960    1.412   .     A
N961   Zn981   2.024   .     S
N962   Zn982   2.024   .     S
N963   Zn983   2.024   .     S
N963   C1302   1.382   1_545 S
N964   Zn984   2.024   .     S
N964   C1303   1.355   1_545 S
O965   Zn981   2.017   .     S
O966   Zn798   2.017   1_655 S
O967   Zn797   2.026   1_655 S
O968   Zn982   2.026   .     S
O969   Zn798   2.014   1_655 S
O970   Zn981   2.014   .     S
O971   Zn982   2.017   .     S
O972   Zn797   2.017   1_655 S
O973   Zn1351  2.017   .     S
O974   Zn984   2.017   .     S
O975   Zn983   2.026   .     S
O976   Zn1352  2.026   .     S
O977   Zn1352  2.014   .     S
O978   Zn983   2.014   .     S
O979   Zn984   2.017   .     S
O980   Zn1351  2.017   .     S
Zn983  O1348   2.017   1_545 S
Zn983  O1341   2.017   1_545 S
Zn984  O1345   2.014   1_545 S
Zn984  O1344   2.026   1_545 S
N985   H986    1.042   .     S
N985   C745    1.431   1_655 S
N985   H803    1.040   1_655 S
N988   H989    1.043   .     S
N988   H806    1.039   1_655 S
N991   H993    1.041   .     S
N991   H808    1.031   1_655 S
N994   H995    1.043   .     S
H996   N810    1.041   1_655 S
N997   H998    1.031   .     S
N997   H999    1.043   .     S
N1000  H1002   1.042   .     S
N1000  H1001   1.030   .     S
N1003  H1004   1.042   .     S
N1003  H1005   1.045   .     S
N1006  H1007   1.043   .     S
N1006  H1008   1.045   .     S
N1009  C1011   1.450   .     S
N1009  H1010   1.029   .     S
C1011  H1012   1.107   .     S
C1011  H1013   1.111   .     S
C1011  H1014   1.111   .     S
N1015  H1016   1.030   .     S
N1015  C1017   1.447   .     S
C1017  H1020   1.109   .     S
C1017  H1018   1.109   .     S
C1017  H1019   1.111   .     S
N1021  H1022   1.030   .     S
N1021  C1023   1.451   .     S
C1023  H1025   1.111   .     S
C1023  H1026   1.111   .     S
C1023  H1024   1.105   .     S
N1027  H1028   1.032   .     S
N1027  C1029   1.449   .     S
C1029  H1032   1.111   .     S
C1029  H1031   1.112   .     S
C1029  H1030   1.109   .     S
N1033  H1034   1.030   .     S
N1033  C1035   1.450   .     S
C1035  H1036   1.109   .     S
C1035  H1037   1.106   .     S
C1035  H1038   1.109   .     S
N1039  C1041   1.449   .     S
N1039  H1040   1.031   .     S
C1041  H1044   1.111   .     S
C1041  H1042   1.109   .     S
C1041  H1043   1.111   .     S
N1045  C1047   1.451   .     S
N1045  H1046   1.031   .     S
C1047  H1049   1.111   .     S
C1047  H1050   1.110   .     S
C1047  H1048   1.106   .     S
N1051  C1053   1.453   .     S
N1051  H1052   1.030   .     S
C1053  H1056   1.108   .     S
C1053  H1054   1.108   .     S
C1053  H1055   1.112   .     S
N1057  C1059   1.445   .     S
N1057  H1058   1.030   .     S
C1059  H1061   1.107   .     S
C1059  H1062   1.111   .     S
C1059  H1428   1.111   .     S
H1060  C1427   1.111   1_545 S
N1063  C1065   1.446   .     S
N1063  H1064   1.028   .     S
C1065  H1066   1.111   .     S
C1065  H1067   1.108   .     S
C1065  H1068   1.111   .     S
N1069  C1071   1.447   .     S
N1069  H1070   1.031   .     S
C1071  H1074   1.110   .     S
C1071  H1073   1.105   .     S
C1071  H1440   1.110   1_545 S
H1072  C1439   1.110   .     S
N1075  C1077   1.453   .     S
N1075  H1076   1.030   .     S
C1077  H1078   1.109   .     S
C1077  H1080   1.110   .     S
C1077  H1079   1.112   .     S
N1081  H1082   1.029   .     S
N1081  C1083   1.444   .     S
C1083  H1085   1.106   .     S
C1083  H1086   1.111   .     S
C1083  H1452   1.111   .     S
H1084  C1451   1.111   1_545 S
N1087  C1089   1.451   .     S
N1087  H1088   1.029   .     S
C1089  H1090   1.109   .     S
C1089  H1091   1.113   .     S
C1089  H1092   1.111   .     S
N1093  C1095   1.446   .     S
N1093  H1094   1.029   .     S
C1095  H1097   1.108   .     S
C1095  H1098   1.111   .     S
C1095  H1096   1.111   .     S
N1099  H1100   1.028   .     S
N1099  C1101   1.446   .     S
C1101  H1102   1.110   .     S
C1101  H1104   1.111   .     S
C1101  H1103   1.107   .     S
C1105  O1152   1.299   .     A
C1105  O1149   1.291   .     A
C1105  C1140   1.449   .     S
C1106  C1139   1.445   .     S
C1106  O1150   1.301   .     A
C1106  O1151   1.286   .     A
C1107  O1153   1.283   .     A
C1107  C1138   1.445   .     S
C1107  O1156   1.303   .     A
C1108  O1155   1.281   .     A
C1108  O1154   1.302   .     A
C1108  C1137   1.440   .     S
C1109  O1160   1.295   .     A
C1109  O1157   1.287   .     A
C1109  C1144   1.439   .     S
C1110  O1159   1.285   .     A
C1110  O1158   1.294   .     A
C1110  C1143   1.430   .     S
C1111  O1164   1.288   .     A
C1111  C1142   1.433   .     S
C1111  O1161   1.292   .     A
C1112  O1163   1.289   .     A
C1112  O1162   1.289   .     A
C1112  C1141   1.430   .     S
C1113  N1146   1.369   .     A
C1113  N1353   1.431   1_455 S
C1114  N1172   1.430   .     S
C1114  C1851   1.437   .     S
C1114  N1329   1.364   .     S
C1115  N1175   1.430   .     S
C1115  N1330   1.373   .     S
C1116  N1178   1.431   .     S
C1116  N1145   1.368   .     A
C1116  C1849   1.435   .     S
C1117  N1181   1.434   .     S
C1117  N1148   1.383   .     A
C1118  N1184   1.432   .     S
C1118  C1855   1.427   .     S
C1118  N779    1.382   1_565 S
C1119  N1187   1.426   .     S
C1119  N780    1.355   1_565 S
C1120  N1190   1.426   .     S
C1120  N1147   1.357   .     A
C1120  C1853   1.430   .     S
C1121  C1131   1.383   .     A
C1121  N1193   1.420   .     S
C1121  C1138   1.413   .     A
C1122  N1199   1.427   .     S
C1122  C1137   1.400   .     A
C1122  C1132   1.390   .     A
C1123  C1137   1.412   .     A
C1123  N1205   1.419   .     S
C1123  C1129   1.385   .     A
C1124  N1211   1.427   .     S
C1124  C1138   1.402   .     A
C1124  C1130   1.399   .     A
C1125  C1140   1.423   .     A
C1125  C1135   1.388   .     A
C1125  N1217   1.424   .     S
C1126  C1139   1.403   .     A
C1126  N1223   1.428   .     S
C1126  C1136   1.397   .     A
C1127  C1133   1.387   .     A
C1127  N1229   1.422   .     S
C1127  C1139   1.412   .     A
C1128  C1140   1.411   .     A
C1128  C1134   1.380   .     A
C1128  N1235   1.425   .     S
C1129  N1241   1.431   .     S
C1129  C1142   1.402   .     A
C1130  N1247   1.426   .     S
C1130  C1141   1.412   .     A
C1131  N1253   1.430   .     S
C1131  C1141   1.400   .     A
C1132  C1142   1.411   .     A
C1132  N1259   1.421   .     S
C1133  N1265   1.432   .     S
C1133  C1144   1.409   .     A
C1134  N1271   1.423   .     S
C1134  C1143   1.399   .     A
C1135  N1277   1.431   .     S
C1135  C1143   1.407   .     A
C1136  N1283   1.424   .     S
C1136  C1144   1.412   .     A
N1145  Zn1165  2.024   .     S
N1145  C1298   1.364   1_455 S
N1146  Zn1166  2.024   .     S
N1146  C1299   1.373   1_455 S
N1147  Zn1167  2.024   .     S
N1148  Zn1168  2.024   .     S
O1149  Zn1165  2.017   .     S
O1150  Zn1350  2.017   .     S
O1151  Zn1349  2.026   .     S
O1152  Zn1166  2.026   .     S
O1153  Zn1350  2.014   .     S
O1154  Zn1165  2.014   .     S
O1155  Zn1166  2.017   .     S
O1156  Zn1349  2.017   .     S
O1157  Zn799   2.017   1_565 S
O1158  Zn1168  2.017   .     S
O1159  Zn1167  2.026   .     S
O1160  Zn800   2.026   1_565 S
O1161  Zn800   2.014   1_565 S
O1162  Zn1167  2.014   .     S
O1163  Zn1168  2.017   .     S
O1164  Zn799   2.017   1_565 S
Zn1165 O1340   2.017   1_455 S
Zn1165 O1335   2.026   1_455 S
Zn1166 O1337   2.014   1_455 S
Zn1166 O1334   2.017   1_455 S
N1169  H1170   1.042   .     S
N1169  C1297   1.431   .     S
N1169  H1355   1.040   .     S
H1171  N1353   1.040   1_455 S
N1172  H1173   1.043   .     S
N1172  H1358   1.039   .     S
H1174  N1356   1.039   1_455 S
N1175  H1177   1.041   .     S
N1175  H1360   1.031   .     S
H1176  N1359   1.031   1_455 S
N1178  H1179   1.043   .     S
N1178  H1364   1.041   1_455 S
H1180  N1362   1.041   .     S
N1181  H1182   1.031   .     S
N1181  H1183   1.043   .     S
N1184  H1186   1.042   .     S
N1184  H1185   1.030   .     S
N1187  H1188   1.042   .     S
N1187  H1189   1.045   .     S
N1190  H1191   1.043   .     S
N1190  H1192   1.045   .     S
N1193  C1195   1.450   .     S
N1193  H1194   1.029   .     S
C1195  H1196   1.107   .     S
C1195  H1197   1.111   .     S
C1195  H1198   1.111   .     S
N1199  H1200   1.030   .     S
N1199  C1201   1.447   .     S
C1201  H1204   1.109   .     S
C1201  H1202   1.109   .     S
C1201  H1203   1.111   .     S
N1205  H1206   1.030   .     S
N1205  C1207   1.451   .     S
C1207  H1209   1.111   .     S
C1207  H1210   1.111   .     S
C1207  H1208   1.105   .     S
N1211  H1212   1.032   .     S
N1211  C1213   1.449   .     S
C1213  H1216   1.111   .     S
C1213  H1215   1.112   .     S
C1213  H1214   1.109   .     S
N1217  H1218   1.030   .     S
N1217  C1219   1.450   .     S
C1219  H1220   1.109   .     S
C1219  H1221   1.106   .     S
C1219  H1222   1.109   .     S
N1223  C1225   1.449   .     S
N1223  H1224   1.031   .     S
C1225  H1228   1.111   .     S
C1225  H1226   1.109   .     S
C1225  H1227   1.111   .     S
N1229  C1231   1.451   .     S
N1229  H1230   1.031   .     S
C1231  H1233   1.111   .     S
C1231  H1234   1.110   .     S
C1231  H1232   1.106   .     S
N1235  C1237   1.453   .     S
N1235  H1236   1.030   .     S
C1237  H1240   1.108   .     S
C1237  H1238   1.108   .     S
C1237  H1239   1.112   .     S
N1241  C1243   1.445   .     S
N1241  H1242   1.030   .     S
C1243  H1245   1.107   .     S
C1243  H1246   1.111   .     S
C1243  H876    1.111   1_565 S
N1247  C1249   1.446   .     S
N1247  H1248   1.028   .     S
C1249  H1250   1.111   .     S
C1249  H1251   1.108   .     S
C1249  H1252   1.111   .     S
N1253  C1255   1.447   .     S
N1253  H1254   1.031   .     S
C1255  H1258   1.110   .     S
C1255  H1257   1.105   .     S
H1256  C887    1.110   1_565 S
N1259  C1261   1.453   .     S
N1259  H1260   1.030   .     S
C1261  H1262   1.109   .     S
C1261  H1264   1.110   .     S
C1261  H1263   1.112   .     S
N1265  H1266   1.029   .     S
N1265  C1267   1.444   .     S
C1267  H1269   1.106   .     S
C1267  H1270   1.111   .     S
C1267  H900    1.111   1_565 S
N1271  C1273   1.451   .     S
N1271  H1272   1.029   .     S
C1273  H1274   1.109   .     S
C1273  H1275   1.113   .     S
C1273  H1276   1.111   .     S
N1277  C1279   1.446   .     S
N1277  H1278   1.029   .     S
C1279  H1281   1.108   .     S
C1279  H1282   1.111   .     S
C1279  H1280   1.111   .     S
N1283  H1284   1.028   .     S
N1283  C1285   1.446   .     S
C1285  H1286   1.110   .     S
C1285  H1288   1.111   .     S
C1285  H1287   1.107   .     S
C1289  O1336   1.299   .     A
C1289  O1333   1.291   .     A
C1289  C1324   1.449   .     S
C1290  C1323   1.445   .     S
C1290  O1334   1.301   .     A
C1290  O1335   1.286   .     A
C1291  O1337   1.283   .     A
C1291  C1322   1.445   .     S
C1291  O1340   1.303   .     A
C1292  O1339   1.281   .     A
C1292  O1338   1.302   .     A
C1292  C1321   1.440   .     S
C1293  O1344   1.295   .     A
C1293  O1341   1.287   .     A
C1293  C1328   1.439   .     S
C1294  O1343   1.285   .     A
C1294  O1342   1.294   .     A
C1294  C1327   1.430   .     S
C1295  O1348   1.288   .     A
C1295  C1326   1.433   .     S
C1295  O1345   1.292   .     A
C1296  O1347   1.289   .     A
C1296  O1346   1.289   .     A
C1296  C1325   1.430   .     S
C1297  N1330   1.369   .     A
C1298  N1356   1.430   .     S
C1298  C2035   1.437   .     S
C1298  N1145   1.364   1_655 S
C1299  N1359   1.430   .     S
C1299  N1146   1.373   1_655 S
C1300  N1362   1.431   .     S
C1300  N1329   1.368   .     A
C1300  C2033   1.435   .     S
C1301  N1365   1.434   .     S
C1301  N1332   1.383   .     A
C1302  N1368   1.432   .     S
C1302  C2039   1.427   .     S
C1302  N963    1.382   1_565 S
C1303  N1371   1.426   .     S
C1303  N964    1.355   1_565 S
C1304  N1374   1.426   .     S
C1304  N1331   1.357   .     A
C1304  C2037   1.430   .     S
C1305  C1315   1.383   .     A
C1305  N1377   1.420   .     S
C1305  C1322   1.413   .     A
C1306  N1383   1.427   .     S
C1306  C1321   1.400   .     A
C1306  C1316   1.390   .     A
C1307  C1321   1.412   .     A
C1307  N1389   1.419   .     S
C1307  C1313   1.385   .     A
C1308  N1395   1.427   .     S
C1308  C1322   1.402   .     A
C1308  C1314   1.399   .     A
C1309  C1324   1.423   .     A
C1309  C1319   1.388   .     A
C1309  N1401   1.424   .     S
C1310  C1323   1.403   .     A
C1310  N1407   1.428   .     S
C1310  C1320   1.397   .     A
C1311  C1317   1.387   .     A
C1311  N1413   1.422   .     S
C1311  C1323   1.412   .     A
C1312  C1324   1.411   .     A
C1312  C1318   1.380   .     A
C1312  N1419   1.425   .     S
C1313  N1425   1.431   .     S
C1313  C1326   1.402   .     A
C1314  N1431   1.426   .     S
C1314  C1325   1.412   .     A
C1315  N1437   1.430   .     S
C1315  C1325   1.400   .     A
C1316  C1326   1.411   .     A
C1316  N1443   1.421   .     S
C1317  N1449   1.432   .     S
C1317  C1328   1.409   .     A
C1318  N1455   1.423   .     S
C1318  C1327   1.399   .     A
C1319  N1461   1.431   .     S
C1319  C1327   1.407   .     A
C1320  N1467   1.424   .     S
C1320  C1328   1.412   .     A
N1329  Zn1349  2.024   .     S
N1330  Zn1350  2.024   .     S
N1331  Zn1351  2.024   .     S
N1332  Zn1352  2.024   .     S
O1333  Zn1349  2.017   .     S
O1334  Zn1166  2.017   1_655 S
O1335  Zn1165  2.026   1_655 S
O1336  Zn1350  2.026   .     S
O1337  Zn1166  2.014   1_655 S
O1338  Zn1349  2.014   .     S
O1339  Zn1350  2.017   .     S
O1340  Zn1165  2.017   1_655 S
O1341  Zn983   2.017   1_565 S
O1342  Zn1352  2.017   .     S
O1343  Zn1351  2.026   .     S
O1344  Zn984   2.026   1_565 S
O1345  Zn984   2.014   1_565 S
O1346  Zn1351  2.014   .     S
O1347  Zn1352  2.017   .     S
O1348  Zn983   2.017   1_565 S
N1353  H1354   1.042   .     S
N1353  C1113   1.431   1_655 S
N1353  H1171   1.040   1_655 S
N1356  H1357   1.043   .     S
N1356  H1174   1.039   1_655 S
N1359  H1361   1.041   .     S
N1359  H1176   1.031   1_655 S
N1362  H1363   1.043   .     S
H1364  N1178   1.041   1_655 S
N1365  H1366   1.031   .     S
N1365  H1367   1.043   .     S
N1368  H1370   1.042   .     S
N1368  H1369   1.030   .     S
N1371  H1372   1.042   .     S
N1371  H1373   1.045   .     S
N1374  H1375   1.043   .     S
N1374  H1376   1.045   .     S
N1377  C1379   1.450   .     S
N1377  H1378   1.029   .     S
C1379  H1380   1.107   .     S
C1379  H1381   1.111   .     S
C1379  H1382   1.111   .     S
N1383  H1384   1.030   .     S
N1383  C1385   1.447   .     S
C1385  H1388   1.109   .     S
C1385  H1386   1.109   .     S
C1385  H1387   1.111   .     S
N1389  H1390   1.030   .     S
N1389  C1391   1.451   .     S
C1391  H1393   1.111   .     S
C1391  H1394   1.111   .     S
C1391  H1392   1.105   .     S
N1395  H1396   1.032   .     S
N1395  C1397   1.449   .     S
C1397  H1400   1.111   .     S
C1397  H1399   1.112   .     S
C1397  H1398   1.109   .     S
N1401  H1402   1.030   .     S
N1401  C1403   1.450   .     S
C1403  H1404   1.109   .     S
C1403  H1405   1.106   .     S
C1403  H1406   1.109   .     S
N1407  C1409   1.449   .     S
N1407  H1408   1.031   .     S
C1409  H1412   1.111   .     S
C1409  H1410   1.109   .     S
C1409  H1411   1.111   .     S
N1413  C1415   1.451   .     S
N1413  H1414   1.031   .     S
C1415  H1417   1.111   .     S
C1415  H1418   1.110   .     S
C1415  H1416   1.106   .     S
N1419  C1421   1.453   .     S
N1419  H1420   1.030   .     S
C1421  H1424   1.108   .     S
C1421  H1422   1.108   .     S
C1421  H1423   1.112   .     S
N1425  C1427   1.445   .     S
N1425  H1426   1.030   .     S
C1427  H1429   1.107   .     S
C1427  H1430   1.111   .     S
C1427  H1060   1.111   1_565 S
N1431  C1433   1.446   .     S
N1431  H1432   1.028   .     S
C1433  H1434   1.111   .     S
C1433  H1435   1.108   .     S
C1433  H1436   1.111   .     S
N1437  C1439   1.447   .     S
N1437  H1438   1.031   .     S
C1439  H1442   1.110   .     S
C1439  H1441   1.105   .     S
H1440  C1071   1.110   1_565 S
N1443  C1445   1.453   .     S
N1443  H1444   1.030   .     S
C1445  H1446   1.109   .     S
C1445  H1448   1.110   .     S
C1445  H1447   1.112   .     S
N1449  H1450   1.029   .     S
N1449  C1451   1.444   .     S
C1451  H1453   1.106   .     S
C1451  H1454   1.111   .     S
C1451  H1084   1.111   1_565 S
N1455  C1457   1.451   .     S
N1455  H1456   1.029   .     S
C1457  H1458   1.109   .     S
C1457  H1459   1.113   .     S
C1457  H1460   1.111   .     S
N1461  C1463   1.446   .     S
N1461  H1462   1.029   .     S
C1463  H1465   1.108   .     S
C1463  H1466   1.111   .     S
C1463  H1464   1.111   .     S
N1467  H1468   1.028   .     S
N1467  C1469   1.446   .     S
C1469  H1470   1.110   .     S
C1469  H1472   1.111   .     S
C1469  H1471   1.107   .     S
C1473  O1520   1.299   .     A
C1473  O1517   1.291   .     A
C1473  C1508   1.449   .     S
C1474  C1507   1.445   .     S
C1474  O1518   1.301   .     A
C1474  O1519   1.286   .     A
C1475  O1521   1.283   .     A
C1475  C1506   1.445   .     S
C1475  O1524   1.303   .     A
C1476  O1523   1.281   .     A
C1476  O1522   1.302   .     A
C1476  C1505   1.440   .     S
C1477  O1528   1.295   .     A
C1477  O1525   1.287   .     A
C1477  C1512   1.439   .     S
C1478  O1527   1.285   .     A
C1478  O1526   1.294   .     A
C1478  C1511   1.430   .     S
C1479  O1532   1.288   .     A
C1479  C1510   1.433   .     S
C1479  O1529   1.292   .     A
C1480  O1531   1.289   .     A
C1480  O1530   1.289   .     A
C1480  C1509   1.430   .     S
C1481  N1514   1.369   .     A
C1481  N1721   1.431   1_455 S
C1482  N1540   1.430   .     S
C1482  C11     1.437   1_556 S
C1482  N1697   1.364   .     S
C1483  N1543   1.430   .     S
C1483  N1698   1.373   .     S
C1484  N1546   1.431   .     S
C1484  N1513   1.368   .     A
C1484  C9      1.435   1_556 S
C1485  N1549   1.434   .     S
C1485  N1516   1.383   .     A
C1486  N1552   1.432   .     S
C1486  C15     1.427   1_556 S
C1486  N1883   1.382   .     S
C1487  N1555   1.426   .     S
C1487  N1884   1.355   .     S
C1488  N1558   1.426   .     S
C1488  N1515   1.357   .     A
C1488  C13     1.430   1_556 S
C1489  C1499   1.383   .     A
C1489  N1561   1.420   .     S
C1489  C1506   1.413   .     A
C1490  N1567   1.427   .     S
C1490  C1505   1.400   .     A
C1490  C1500   1.390   .     A
C1491  C1505   1.412   .     A
C1491  N1573   1.419   .     S
C1491  C1497   1.385   .     A
C1492  N1579   1.427   .     S
C1492  C1506   1.402   .     A
C1492  C1498   1.399   .     A
C1493  C1508   1.423   .     A
C1493  C1503   1.388   .     A
C1493  N1585   1.424   .     S
C1494  C1507   1.403   .     A
C1494  N1591   1.428   .     S
C1494  C1504   1.397   .     A
C1495  C1501   1.387   .     A
C1495  N1597   1.422   .     S
C1495  C1507   1.412   .     A
C1496  C1508   1.411   .     A
C1496  C1502   1.380   .     A
C1496  N1603   1.425   .     S
C1497  N1609   1.431   .     S
C1497  C1510   1.402   .     A
C1498  N1615   1.426   .     S
C1498  C1509   1.412   .     A
C1499  N1621   1.430   .     S
C1499  C1509   1.400   .     A
C1500  C1510   1.411   .     A
C1500  N1627   1.421   .     S
C1501  N1633   1.432   .     S
C1501  C1512   1.409   .     A
C1502  N1639   1.423   .     S
C1502  C1511   1.399   .     A
C1503  N1645   1.431   .     S
C1503  C1511   1.407   .     A
C1504  N1651   1.424   .     S
C1504  C1512   1.412   .     A
N1513  Zn1533  2.024   .     S
N1513  C1666   1.364   1_455 S
N1514  Zn1534  2.024   .     S
N1514  C1667   1.373   1_455 S
N1515  Zn1535  2.024   .     S
N1515  C1854   1.382   1_545 S
N1516  Zn1536  2.024   .     S
N1516  C1855   1.355   1_545 S
O1517  Zn1533  2.017   .     S
O1518  Zn1718  2.017   .     S
O1519  Zn1717  2.026   .     S
O1520  Zn1534  2.026   .     S
O1521  Zn1718  2.014   .     S
O1522  Zn1533  2.014   .     S
O1523  Zn1534  2.017   .     S
O1524  Zn1717  2.017   .     S
O1525  Zn1903  2.017   .     S
O1526  Zn1536  2.017   .     S
O1527  Zn1535  2.026   .     S
O1528  Zn1904  2.026   .     S
O1529  Zn1904  2.014   .     S
O1530  Zn1535  2.014   .     S
O1531  Zn1536  2.017   .     S
O1532  Zn1903  2.017   .     S
Zn1533 O1708   2.017   1_455 S
Zn1533 O1703   2.026   1_455 S
Zn1534 O1705   2.014   1_455 S
Zn1534 O1702   2.017   1_455 S
Zn1535 O1900   2.017   1_545 S
Zn1535 O1893   2.017   1_545 S
Zn1536 O1897   2.014   1_545 S
Zn1536 O1896   2.026   1_545 S
N1537  H1538   1.042   .     S
N1537  C1665   1.431   .     S
N1537  H1723   1.040   .     S
H1539  N1721   1.040   1_455 S
N1540  H1541   1.043   .     S
N1540  H1726   1.039   .     S
H1542  N1724   1.039   1_455 S
N1543  H1545   1.041   .     S
N1543  H1728   1.031   .     S
H1544  N1727   1.031   1_455 S
N1546  H1547   1.043   .     S
N1546  H1732   1.041   1_455 S
H1548  N1730   1.041   .     S
N1549  H1550   1.031   .     S
N1549  H1551   1.043   .     S
N1552  H1554   1.042   .     S
N1552  H1553   1.030   .     S
N1555  H1556   1.042   .     S
N1555  H1557   1.045   .     S
N1558  H1559   1.043   .     S
N1558  H1560   1.045   .     S
N1561  C1563   1.450   .     S
N1561  H1562   1.029   .     S
C1563  H1564   1.107   .     S
C1563  H1565   1.111   .     S
C1563  H1566   1.111   .     S
N1567  H1568   1.030   .     S
N1567  C1569   1.447   .     S
C1569  H1572   1.109   .     S
C1569  H1570   1.109   .     S
C1569  H1571   1.111   .     S
N1573  H1574   1.030   .     S
N1573  C1575   1.451   .     S
C1575  H1577   1.111   .     S
C1575  H1578   1.111   .     S
C1575  H1576   1.105   .     S
N1579  H1580   1.032   .     S
N1579  C1581   1.449   .     S
C1581  H1584   1.111   .     S
C1581  H1583   1.112   .     S
C1581  H1582   1.109   .     S
N1585  H1586   1.030   .     S
N1585  C1587   1.450   .     S
C1587  H1588   1.109   .     S
C1587  H1589   1.106   .     S
C1587  H1590   1.109   .     S
N1591  C1593   1.449   .     S
N1591  H1592   1.031   .     S
C1593  H1596   1.111   .     S
C1593  H1594   1.109   .     S
C1593  H1595   1.111   .     S
N1597  C1599   1.451   .     S
N1597  H1598   1.031   .     S
C1599  H1601   1.111   .     S
C1599  H1602   1.110   .     S
C1599  H1600   1.106   .     S
N1603  C1605   1.453   .     S
N1603  H1604   1.030   .     S
C1605  H1608   1.108   .     S
C1605  H1606   1.108   .     S
C1605  H1607   1.112   .     S
N1609  C1611   1.445   .     S
N1609  H1610   1.030   .     S
C1611  H1613   1.107   .     S
C1611  H1614   1.111   .     S
C1611  H1980   1.111   .     S
H1612  C1979   1.111   1_545 S
N1615  C1617   1.446   .     S
N1615  H1616   1.028   .     S
C1617  H1618   1.111   .     S
C1617  H1619   1.108   .     S
C1617  H1620   1.111   .     S
N1621  C1623   1.447   .     S
N1621  H1622   1.031   .     S
C1623  H1626   1.110   .     S
C1623  H1625   1.105   .     S
C1623  H1992   1.110   1_545 S
H1624  C1991   1.110   .     S
N1627  C1629   1.453   .     S
N1627  H1628   1.030   .     S
C1629  H1630   1.109   .     S
C1629  H1632   1.110   .     S
C1629  H1631   1.112   .     S
N1633  H1634   1.029   .     S
N1633  C1635   1.444   .     S
C1635  H1637   1.106   .     S
C1635  H1638   1.111   .     S
C1635  H2004   1.111   .     S
H1636  C2003   1.111   1_545 S
N1639  C1641   1.451   .     S
N1639  H1640   1.029   .     S
C1641  H1642   1.109   .     S
C1641  H1643   1.113   .     S
C1641  H1644   1.111   .     S
N1645  C1647   1.446   .     S
N1645  H1646   1.029   .     S
C1647  H1649   1.108   .     S
C1647  H1650   1.111   .     S
C1647  H1648   1.111   .     S
N1651  H1652   1.028   .     S
N1651  C1653   1.446   .     S
C1653  H1654   1.110   .     S
C1653  H1656   1.111   .     S
C1653  H1655   1.107   .     S
C1657  O1704   1.299   .     A
C1657  O1701   1.291   .     A
C1657  C1692   1.449   .     S
C1658  C1691   1.445   .     S
C1658  O1702   1.301   .     A
C1658  O1703   1.286   .     A
C1659  O1705   1.283   .     A
C1659  C1690   1.445   .     S
C1659  O1708   1.303   .     A
C1660  O1707   1.281   .     A
C1660  O1706   1.302   .     A
C1660  C1689   1.440   .     S
C1661  O1712   1.295   .     A
C1661  O1709   1.287   .     A
C1661  C1696   1.439   .     S
C1662  O1711   1.285   .     A
C1662  O1710   1.294   .     A
C1662  C1695   1.430   .     S
C1663  O1716   1.288   .     A
C1663  C1694   1.433   .     S
C1663  O1713   1.292   .     A
C1664  O1715   1.289   .     A
C1664  O1714   1.289   .     A
C1664  C1693   1.430   .     S
C1665  N1698   1.369   .     A
C1666  N1724   1.430   .     S
C1666  C195    1.437   1_556 S
C1666  N1513   1.364   1_655 S
C1667  N1727   1.430   .     S
C1667  N1514   1.373   1_655 S
C1668  N1730   1.431   .     S
C1668  N1697   1.368   .     A
C1668  C193    1.435   1_556 S
C1669  N1733   1.434   .     S
C1669  N1700   1.383   .     A
C1670  N1736   1.432   .     S
C1670  C199    1.427   1_556 S
C1670  N2067   1.382   .     S
C1671  N1739   1.426   .     S
C1671  N2068   1.355   .     S
C1672  N1742   1.426   .     S
C1672  N1699   1.357   .     A
C1672  C197    1.430   1_556 S
C1673  C1683   1.383   .     A
C1673  N1745   1.420   .     S
C1673  C1690   1.413   .     A
C1674  N1751   1.427   .     S
C1674  C1689   1.400   .     A
C1674  C1684   1.390   .     A
C1675  C1689   1.412   .     A
C1675  N1757   1.419   .     S
C1675  C1681   1.385   .     A
C1676  N1763   1.427   .     S
C1676  C1690   1.402   .     A
C1676  C1682   1.399   .     A
C1677  C1692   1.423   .     A
C1677  C1687   1.388   .     A
C1677  N1769   1.424   .     S
C1678  C1691   1.403   .     A
C1678  N1775   1.428   .     S
C1678  C1688   1.397   .     A
C1679  C1685   1.387   .     A
C1679  N1781   1.422   .     S
C1679  C1691   1.412   .     A
C1680  C1692   1.411   .     A
C1680  C1686   1.380   .     A
C1680  N1787   1.425   .     S
C1681  N1793   1.431   .     S
C1681  C1694   1.402   .     A
C1682  N1799   1.426   .     S
C1682  C1693   1.412   .     A
C1683  N1805   1.430   .     S
C1683  C1693   1.400   .     A
C1684  C1694   1.411   .     A
C1684  N1811   1.421   .     S
C1685  N1817   1.432   .     S
C1685  C1696   1.409   .     A
C1686  N1823   1.423   .     S
C1686  C1695   1.399   .     A
C1687  N1829   1.431   .     S
C1687  C1695   1.407   .     A
C1688  N1835   1.424   .     S
C1688  C1696   1.412   .     A
N1697  Zn1717  2.024   .     S
N1698  Zn1718  2.024   .     S
N1699  Zn1719  2.024   .     S
N1699  C2038   1.382   1_545 S
N1700  Zn1720  2.024   .     S
N1700  C2039   1.355   1_545 S
O1701  Zn1717  2.017   .     S
O1702  Zn1534  2.017   1_655 S
O1703  Zn1533  2.026   1_655 S
O1704  Zn1718  2.026   .     S
O1705  Zn1534  2.014   1_655 S
O1706  Zn1717  2.014   .     S
O1707  Zn1718  2.017   .     S
O1708  Zn1533  2.017   1_655 S
O1709  Zn2087  2.017   .     S
O1710  Zn1720  2.017   .     S
O1711  Zn1719  2.026   .     S
O1712  Zn2088  2.026   .     S
O1713  Zn2088  2.014   .     S
O1714  Zn1719  2.014   .     S
O1715  Zn1720  2.017   .     S
O1716  Zn2087  2.017   .     S
Zn1719 O2084   2.017   1_545 S
Zn1719 O2077   2.017   1_545 S
Zn1720 O2081   2.014   1_545 S
Zn1720 O2080   2.026   1_545 S
N1721  H1722   1.042   .     S
N1721  C1481   1.431   1_655 S
N1721  H1539   1.040   1_655 S
N1724  H1725   1.043   .     S
N1724  H1542   1.039   1_655 S
N1727  H1729   1.041   .     S
N1727  H1544   1.031   1_655 S
N1730  H1731   1.043   .     S
H1732  N1546   1.041   1_655 S
N1733  H1734   1.031   .     S
N1733  H1735   1.043   .     S
N1736  H1738   1.042   .     S
N1736  H1737   1.030   .     S
N1739  H1740   1.042   .     S
N1739  H1741   1.045   .     S
N1742  H1743   1.043   .     S
N1742  H1744   1.045   .     S
N1745  C1747   1.450   .     S
N1745  H1746   1.029   .     S
C1747  H1748   1.107   .     S
C1747  H1749   1.111   .     S
C1747  H1750   1.111   .     S
N1751  H1752   1.030   .     S
N1751  C1753   1.447   .     S
C1753  H1756   1.109   .     S
C1753  H1754   1.109   .     S
C1753  H1755   1.111   .     S
N1757  H1758   1.030   .     S
N1757  C1759   1.451   .     S
C1759  H1761   1.111   .     S
C1759  H1762   1.111   .     S
C1759  H1760   1.105   .     S
N1763  H1764   1.032   .     S
N1763  C1765   1.449   .     S
C1765  H1768   1.111   .     S
C1765  H1767   1.112   .     S
C1765  H1766   1.109   .     S
N1769  H1770   1.030   .     S
N1769  C1771   1.450   .     S
C1771  H1772   1.109   .     S
C1771  H1773   1.106   .     S
C1771  H1774   1.109   .     S
N1775  C1777   1.449   .     S
N1775  H1776   1.031   .     S
C1777  H1780   1.111   .     S
C1777  H1778   1.109   .     S
C1777  H1779   1.111   .     S
N1781  C1783   1.451   .     S
N1781  H1782   1.031   .     S
C1783  H1785   1.111   .     S
C1783  H1786   1.110   .     S
C1783  H1784   1.106   .     S
N1787  C1789   1.453   .     S
N1787  H1788   1.030   .     S
C1789  H1792   1.108   .     S
C1789  H1790   1.108   .     S
C1789  H1791   1.112   .     S
N1793  C1795   1.445   .     S
N1793  H1794   1.030   .     S
C1795  H1797   1.107   .     S
C1795  H1798   1.111   .     S
C1795  H2164   1.111   .     S
H1796  C2163   1.111   1_545 S
N1799  C1801   1.446   .     S
N1799  H1800   1.028   .     S
C1801  H1802   1.111   .     S
C1801  H1803   1.108   .     S
C1801  H1804   1.111   .     S
N1805  C1807   1.447   .     S
N1805  H1806   1.031   .     S
C1807  H1810   1.110   .     S
C1807  H1809   1.105   .     S
C1807  H2176   1.110   1_545 S
H1808  C2175   1.110   .     S
N1811  C1813   1.453   .     S
N1811  H1812   1.030   .     S
C1813  H1814   1.109   .     S
C1813  H1816   1.110   .     S
C1813  H1815   1.112   .     S
N1817  H1818   1.029   .     S
N1817  C1819   1.444   .     S
C1819  H1821   1.106   .     S
C1819  H1822   1.111   .     S
C1819  H2188   1.111   .     S
H1820  C2187   1.111   1_545 S
N1823  C1825   1.451   .     S
N1823  H1824   1.029   .     S
C1825  H1826   1.109   .     S
C1825  H1827   1.113   .     S
C1825  H1828   1.111   .     S
N1829  C1831   1.446   .     S
N1829  H1830   1.029   .     S
C1831  H1833   1.108   .     S
C1831  H1834   1.111   .     S
C1831  H1832   1.111   .     S
N1835  H1836   1.028   .     S
N1835  C1837   1.446   .     S
C1837  H1838   1.110   .     S
C1837  H1840   1.111   .     S
C1837  H1839   1.107   .     S
C1841  O1888   1.299   .     A
C1841  O1885   1.291   .     A
C1841  C1876   1.449   .     S
C1842  C1875   1.445   .     S
C1842  O1886   1.301   .     A
C1842  O1887   1.286   .     A
C1843  O1889   1.283   .     A
C1843  C1874   1.445   .     S
C1843  O1892   1.303   .     A
C1844  O1891   1.281   .     A
C1844  O1890   1.302   .     A
C1844  C1873   1.440   .     S
C1845  O1896   1.295   .     A
C1845  O1893   1.287   .     A
C1845  C1880   1.439   .     S
C1846  O1895   1.285   .     A
C1846  O1894   1.294   .     A
C1846  C1879   1.430   .     S
C1847  O1900   1.288   .     A
C1847  C1878   1.433   .     S
C1847  O1897   1.292   .     A
C1848  O1899   1.289   .     A
C1848  O1898   1.289   .     A
C1848  C1877   1.430   .     S
C1849  N1882   1.369   .     A
C1849  N2089   1.431   1_455 S
C1850  N1908   1.430   .     S
C1850  C379    1.437   1_556 S
C1850  N2065   1.364   .     S
C1851  N1911   1.430   .     S
C1851  N2066   1.373   .     S
C1852  N1914   1.431   .     S
C1852  N1881   1.368   .     A
C1852  C377    1.435   1_556 S
C1853  N1917   1.434   .     S
C1853  N1884   1.383   .     A
C1854  N1920   1.432   .     S
C1854  C383    1.427   1_556 S
C1854  N1515   1.382   1_565 S
C1855  N1923   1.426   .     S
C1855  N1516   1.355   1_565 S
C1856  N1926   1.426   .     S
C1856  N1883   1.357   .     A
C1856  C381    1.430   1_556 S
C1857  C1867   1.383   .     A
C1857  N1929   1.420   .     S
C1857  C1874   1.413   .     A
C1858  N1935   1.427   .     S
C1858  C1873   1.400   .     A
C1858  C1868   1.390   .     A
C1859  C1873   1.412   .     A
C1859  N1941   1.419   .     S
C1859  C1865   1.385   .     A
C1860  N1947   1.427   .     S
C1860  C1874   1.402   .     A
C1860  C1866   1.399   .     A
C1861  C1876   1.423   .     A
C1861  C1871   1.388   .     A
C1861  N1953   1.424   .     S
C1862  C1875   1.403   .     A
C1862  N1959   1.428   .     S
C1862  C1872   1.397   .     A
C1863  C1869   1.387   .     A
C1863  N1965   1.422   .     S
C1863  C1875   1.412   .     A
C1864  C1876   1.411   .     A
C1864  C1870   1.380   .     A
C1864  N1971   1.425   .     S
C1865  N1977   1.431   .     S
C1865  C1878   1.402   .     A
C1866  N1983   1.426   .     S
C1866  C1877   1.412   .     A
C1867  N1989   1.430   .     S
C1867  C1877   1.400   .     A
C1868  C1878   1.411   .     A
C1868  N1995   1.421   .     S
C1869  N2001   1.432   .     S
C1869  C1880   1.409   .     A
C1870  N2007   1.423   .     S
C1870  C1879   1.399   .     A
C1871  N2013   1.431   .     S
C1871  C1879   1.407   .     A
C1872  N2019   1.424   .     S
C1872  C1880   1.412   .     A
N1881  Zn1901  2.024   .     S
N1881  C2034   1.364   1_455 S
N1882  Zn1902  2.024   .     S
N1882  C2035   1.373   1_455 S
N1883  Zn1903  2.024   .     S
N1884  Zn1904  2.024   .     S
O1885  Zn1901  2.017   .     S
O1886  Zn2086  2.017   .     S
O1887  Zn2085  2.026   .     S
O1888  Zn1902  2.026   .     S
O1889  Zn2086  2.014   .     S
O1890  Zn1901  2.014   .     S
O1891  Zn1902  2.017   .     S
O1892  Zn2085  2.017   .     S
O1893  Zn1535  2.017   1_565 S
O1894  Zn1904  2.017   .     S
O1895  Zn1903  2.026   .     S
O1896  Zn1536  2.026   1_565 S
O1897  Zn1536  2.014   1_565 S
O1898  Zn1903  2.014   .     S
O1899  Zn1904  2.017   .     S
O1900  Zn1535  2.017   1_565 S
Zn1901 O2076   2.017   1_455 S
Zn1901 O2071   2.026   1_455 S
Zn1902 O2073   2.014   1_455 S
Zn1902 O2070   2.017   1_455 S
N1905  H1906   1.042   .     S
N1905  C2033   1.431   .     S
N1905  H2091   1.040   .     S
H1907  N2089   1.040   1_455 S
N1908  H1909   1.043   .     S
N1908  H2094   1.039   .     S
H1910  N2092   1.039   1_455 S
N1911  H1913   1.041   .     S
N1911  H2096   1.031   .     S
H1912  N2095   1.031   1_455 S
N1914  H1915   1.043   .     S
N1914  H2100   1.041   1_455 S
H1916  N2098   1.041   .     S
N1917  H1918   1.031   .     S
N1917  H1919   1.043   .     S
N1920  H1922   1.042   .     S
N1920  H1921   1.030   .     S
N1923  H1924   1.042   .     S
N1923  H1925   1.045   .     S
N1926  H1927   1.043   .     S
N1926  H1928   1.045   .     S
N1929  C1931   1.450   .     S
N1929  H1930   1.029   .     S
C1931  H1932   1.107   .     S
C1931  H1933   1.111   .     S
C1931  H1934   1.111   .     S
N1935  H1936   1.030   .     S
N1935  C1937   1.447   .     S
C1937  H1940   1.109   .     S
C1937  H1938   1.109   .     S
C1937  H1939   1.111   .     S
N1941  H1942   1.030   .     S
N1941  C1943   1.451   .     S
C1943  H1945   1.111   .     S
C1943  H1946   1.111   .     S
C1943  H1944   1.105   .     S
N1947  H1948   1.032   .     S
N1947  C1949   1.449   .     S
C1949  H1952   1.111   .     S
C1949  H1951   1.112   .     S
C1949  H1950   1.109   .     S
N1953  H1954   1.030   .     S
N1953  C1955   1.450   .     S
C1955  H1956   1.109   .     S
C1955  H1957   1.106   .     S
C1955  H1958   1.109   .     S
N1959  C1961   1.449   .     S
N1959  H1960   1.031   .     S
C1961  H1964   1.111   .     S
C1961  H1962   1.109   .     S
C1961  H1963   1.111   .     S
N1965  C1967   1.451   .     S
N1965  H1966   1.031   .     S
C1967  H1969   1.111   .     S
C1967  H1970   1.110   .     S
C1967  H1968   1.106   .     S
N1971  C1973   1.453   .     S
N1971  H1972   1.030   .     S
C1973  H1976   1.108   .     S
C1973  H1974   1.108   .     S
C1973  H1975   1.112   .     S
N1977  C1979   1.445   .     S
N1977  H1978   1.030   .     S
C1979  H1981   1.107   .     S
C1979  H1982   1.111   .     S
C1979  H1612   1.111   1_565 S
N1983  C1985   1.446   .     S
N1983  H1984   1.028   .     S
C1985  H1986   1.111   .     S
C1985  H1987   1.108   .     S
C1985  H1988   1.111   .     S
N1989  C1991   1.447   .     S
N1989  H1990   1.031   .     S
C1991  H1994   1.110   .     S
C1991  H1993   1.105   .     S
H1992  C1623   1.110   1_565 S
N1995  C1997   1.453   .     S
N1995  H1996   1.030   .     S
C1997  H1998   1.109   .     S
C1997  H2000   1.110   .     S
C1997  H1999   1.112   .     S
N2001  H2002   1.029   .     S
N2001  C2003   1.444   .     S
C2003  H2005   1.106   .     S
C2003  H2006   1.111   .     S
C2003  H1636   1.111   1_565 S
N2007  C2009   1.451   .     S
N2007  H2008   1.029   .     S
C2009  H2010   1.109   .     S
C2009  H2011   1.113   .     S
C2009  H2012   1.111   .     S
N2013  C2015   1.446   .     S
N2013  H2014   1.029   .     S
C2015  H2017   1.108   .     S
C2015  H2018   1.111   .     S
C2015  H2016   1.111   .     S
N2019  H2020   1.028   .     S
N2019  C2021   1.446   .     S
C2021  H2022   1.110   .     S
C2021  H2024   1.111   .     S
C2021  H2023   1.107   .     S
C2025  O2072   1.299   .     A
C2025  O2069   1.291   .     A
C2025  C2060   1.449   .     S
C2026  C2059   1.445   .     S
C2026  O2070   1.301   .     A
C2026  O2071   1.286   .     A
C2027  O2073   1.283   .     A
C2027  C2058   1.445   .     S
C2027  O2076   1.303   .     A
C2028  O2075   1.281   .     A
C2028  O2074   1.302   .     A
C2028  C2057   1.440   .     S
C2029  O2080   1.295   .     A
C2029  O2077   1.287   .     A
C2029  C2064   1.439   .     S
C2030  O2079   1.285   .     A
C2030  O2078   1.294   .     A
C2030  C2063   1.430   .     S
C2031  O2084   1.288   .     A
C2031  C2062   1.433   .     S
C2031  O2081   1.292   .     A
C2032  O2083   1.289   .     A
C2032  O2082   1.289   .     A
C2032  C2061   1.430   .     S
C2033  N2066   1.369   .     A
C2034  N2092   1.430   .     S
C2034  C563    1.437   1_556 S
C2034  N1881   1.364   1_655 S
C2035  N2095   1.430   .     S
C2035  N1882   1.373   1_655 S
C2036  N2098   1.431   .     S
C2036  N2065   1.368   .     A
C2036  C561    1.435   1_556 S
C2037  N2101   1.434   .     S
C2037  N2068   1.383   .     A
C2038  N2104   1.432   .     S
C2038  C567    1.427   1_556 S
C2038  N1699   1.382   1_565 S
C2039  N2107   1.426   .     S
C2039  N1700   1.355   1_565 S
C2040  N2110   1.426   .     S
C2040  N2067   1.357   .     A
C2040  C565    1.430   1_556 S
C2041  C2051   1.383   .     A
C2041  N2113   1.420   .     S
C2041  C2058   1.413   .     A
C2042  N2119   1.427   .     S
C2042  C2057   1.400   .     A
C2042  C2052   1.390   .     A
C2043  C2057   1.412   .     A
C2043  N2125   1.419   .     S
C2043  C2049   1.385   .     A
C2044  N2131   1.427   .     S
C2044  C2058   1.402   .     A
C2044  C2050   1.399   .     A
C2045  C2060   1.423   .     A
C2045  C2055   1.388   .     A
C2045  N2137   1.424   .     S
C2046  C2059   1.403   .     A
C2046  N2143   1.428   .     S
C2046  C2056   1.397   .     A
C2047  C2053   1.387   .     A
C2047  N2149   1.422   .     S
C2047  C2059   1.412   .     A
C2048  C2060   1.411   .     A
C2048  C2054   1.380   .     A
C2048  N2155   1.425   .     S
C2049  N2161   1.431   .     S
C2049  C2062   1.402   .     A
C2050  N2167   1.426   .     S
C2050  C2061   1.412   .     A
C2051  N2173   1.430   .     S
C2051  C2061   1.400   .     A
C2052  C2062   1.411   .     A
C2052  N2179   1.421   .     S
C2053  N2185   1.432   .     S
C2053  C2064   1.409   .     A
C2054  N2191   1.423   .     S
C2054  C2063   1.399   .     A
C2055  N2197   1.431   .     S
C2055  C2063   1.407   .     A
C2056  N2203   1.424   .     S
C2056  C2064   1.412   .     A
N2065  Zn2085  2.024   .     S
N2066  Zn2086  2.024   .     S
N2067  Zn2087  2.024   .     S
N2068  Zn2088  2.024   .     S
O2069  Zn2085  2.017   .     S
O2070  Zn1902  2.017   1_655 S
O2071  Zn1901  2.026   1_655 S
O2072  Zn2086  2.026   .     S
O2073  Zn1902  2.014   1_655 S
O2074  Zn2085  2.014   .     S
O2075  Zn2086  2.017   .     S
O2076  Zn1901  2.017   1_655 S
O2077  Zn1719  2.017   1_565 S
O2078  Zn2088  2.017   .     S
O2079  Zn2087  2.026   .     S
O2080  Zn1720  2.026   1_565 S
O2081  Zn1720  2.014   1_565 S
O2082  Zn2087  2.014   .     S
O2083  Zn2088  2.017   .     S
O2084  Zn1719  2.017   1_565 S
N2089  H2090   1.042   .     S
N2089  C1849   1.431   1_655 S
N2089  H1907   1.040   1_655 S
N2092  H2093   1.043   .     S
N2092  H1910   1.039   1_655 S
N2095  H2097   1.041   .     S
N2095  H1912   1.031   1_655 S
N2098  H2099   1.043   .     S
H2100  N1914   1.041   1_655 S
N2101  H2102   1.031   .     S
N2101  H2103   1.043   .     S
N2104  H2106   1.042   .     S
N2104  H2105   1.030   .     S
N2107  H2108   1.042   .     S
N2107  H2109   1.045   .     S
N2110  H2111   1.043   .     S
N2110  H2112   1.045   .     S
N2113  C2115   1.450   .     S
N2113  H2114   1.029   .     S
C2115  H2116   1.107   .     S
C2115  H2117   1.111   .     S
C2115  H2118   1.111   .     S
N2119  H2120   1.030   .     S
N2119  C2121   1.447   .     S
C2121  H2124   1.109   .     S
C2121  H2122   1.109   .     S
C2121  H2123   1.111   .     S
N2125  H2126   1.030   .     S
N2125  C2127   1.451   .     S
C2127  H2129   1.111   .     S
C2127  H2130   1.111   .     S
C2127  H2128   1.105   .     S
N2131  H2132   1.032   .     S
N2131  C2133   1.449   .     S
C2133  H2136   1.111   .     S
C2133  H2135   1.112   .     S
C2133  H2134   1.109   .     S
N2137  H2138   1.030   .     S
N2137  C2139   1.450   .     S
C2139  H2140   1.109   .     S
C2139  H2141   1.106   .     S
C2139  H2142   1.109   .     S
N2143  C2145   1.449   .     S
N2143  H2144   1.031   .     S
C2145  H2148   1.111   .     S
C2145  H2146   1.109   .     S
C2145  H2147   1.111   .     S
N2149  C2151   1.451   .     S
N2149  H2150   1.031   .     S
C2151  H2153   1.111   .     S
C2151  H2154   1.110   .     S
C2151  H2152   1.106   .     S
N2155  C2157   1.453   .     S
N2155  H2156   1.030   .     S
C2157  H2160   1.108   .     S
C2157  H2158   1.108   .     S
C2157  H2159   1.112   .     S
N2161  C2163   1.445   .     S
N2161  H2162   1.030   .     S
C2163  H2165   1.107   .     S
C2163  H2166   1.111   .     S
C2163  H1796   1.111   1_565 S
N2167  C2169   1.446   .     S
N2167  H2168   1.028   .     S
C2169  H2170   1.111   .     S
C2169  H2171   1.108   .     S
C2169  H2172   1.111   .     S
N2173  C2175   1.447   .     S
N2173  H2174   1.031   .     S
C2175  H2178   1.110   .     S
C2175  H2177   1.105   .     S
H2176  C1807   1.110   1_565 S
N2179  C2181   1.453   .     S
N2179  H2180   1.030   .     S
C2181  H2182   1.109   .     S
C2181  H2184   1.110   .     S
C2181  H2183   1.112   .     S
N2185  H2186   1.029   .     S
N2185  C2187   1.444   .     S
C2187  H2189   1.106   .     S
C2187  H2190   1.111   .     S
C2187  H1820   1.111   1_565 S
N2191  C2193   1.451   .     S
N2191  H2192   1.029   .     S
C2193  H2194   1.109   .     S
C2193  H2195   1.113   .     S
C2193  H2196   1.111   .     S
N2197  C2199   1.446   .     S
N2197  H2198   1.029   .     S
C2199  H2201   1.108   .     S
C2199  H2202   1.111   .     S
C2199  H2200   1.111   .     S
N2203  H2204   1.028   .     S
N2203  C2205   1.446   .     S
C2205  H2206   1.110   .     S
C2205  H2208   1.111   .     S
C2205  H2207   1.107   .     S
