data_str_m3_o10_o17_pcu_sym.62
_audit_creation_date              2020-01-03
_audit_creation_method            'Materials Studio'
_symmetry_space_group_name_H-M    'P1'
_symmetry_Int_Tables_number       1
_symmetry_cell_setting            triclinic
loop_
_symmetry_equiv_pos_as_xyz
  x,y,z
_cell_length_a                    23.3877
_cell_length_b                    25.6836
_cell_length_c                    29.8944
_cell_angle_alpha                 91.8209
_cell_angle_beta                  85.0033
_cell_angle_gamma                 93.5867
loop_
_atom_site_label
_atom_site_type_symbol
_atom_site_fract_x
_atom_site_fract_y
_atom_site_fract_z
_atom_site_U_iso_or_equiv
_atom_site_adp_type
_atom_site_occupancy
C1     C     0.18187   0.26487   0.24886   0.00000  Uiso   1.00
C2     C     0.21771   0.18130   0.40421   0.00000  Uiso   1.00
C3     C     0.16607   0.16748   0.11561   0.00000  Uiso   1.00
C4     C     0.16727   0.16586   0.38439   0.00000  Uiso   1.00
C5     C     0.21658   0.18306   0.08982   0.00000  Uiso   1.00
C6     C     0.11676   0.15027   0.41018   0.00000  Uiso   1.00
C7     C     0.21712   0.18314   0.04356   0.00000  Uiso   1.00
C8     C     0.11621   0.15019   0.45644   0.00000  Uiso   1.00
C9     C     0.16650   0.16696   0.02327   0.00000  Uiso   1.00
C10    C     0.16684   0.16637   0.47673   0.00000  Uiso   1.00
C11    C     0.11554   0.15133   0.04952   0.00000  Uiso   1.00
C12    C     0.15146   0.06846   0.25114   0.00000  Uiso   1.00
C13    C     0.21779   0.18200   0.45048   0.00000  Uiso   1.00
C14    C     0.26736   0.19899   0.01738   0.00000  Uiso   1.00
C15    C     0.06598   0.13434   0.48262   0.00000  Uiso   1.00
C16    C     0.26772   0.19836   0.47088   0.00000  Uiso   1.00
C17    C     0.06562   0.13497   0.02912   0.00000  Uiso   1.00
C18    C     0.18990   0.31936   0.24816   0.00000  Uiso   1.00
C19    C     0.14343   0.01397   0.25184   0.00000  Uiso   1.00
C20    C     0.16693   0.16651   0.33656   0.00000  Uiso   1.00
C21    C     0.16640   0.16683   0.16344   0.00000  Uiso   1.00
C22    C     0.11562   0.15204   0.09579   0.00000  Uiso   1.00
H23    H     0.07686   0.13973   0.11631   0.00000  Uiso   1.00
H24    H     0.09951   0.33038   0.25539   0.00000  Uiso   1.00
H25    H     0.31229   0.10045   0.19375   0.00000  Uiso   1.00
H26    H     0.02104   0.23288   0.30625   0.00000  Uiso   1.00
H27    H     0.25647   0.19360   0.38369   0.00000  Uiso   1.00
H28    H     0.25529   0.19543   0.10577   0.00000  Uiso   1.00
H29    H     0.07805   0.13790   0.39423   0.00000  Uiso   1.00
H30    H     0.30623   0.21178   0.03285   0.00000  Uiso   1.00
H31    H     0.02711   0.12156   0.46715   0.00000  Uiso   1.00
H32    H     0.30689   0.21059   0.45091   0.00000  Uiso   1.00
H33    H     0.02644   0.12274   0.04909   0.00000  Uiso   1.00
H34    H     0.23382   0.00296   0.24461   0.00000  Uiso   1.00
N35    N     0.31678   0.15265   0.23783   0.00000  Uiso   1.00
N36    N     0.01656   0.18068   0.26217   0.00000  Uiso   1.00
O37    O     0.12975   0.24619   0.25299   0.00000  Uiso   1.00
O38    O     0.32318   0.21452   0.29046   0.00000  Uiso   1.00
O39    O     0.20358   0.08714   0.24702   0.00000  Uiso   1.00
O40    O     0.22613   0.23721   0.24519   0.00000  Uiso   1.00
O41    O     0.10720   0.09613   0.25482   0.00000  Uiso   1.00
O42    O     0.11847   0.17117   0.31998   0.00000  Uiso   1.00
O43    O     0.21486   0.16216   0.18003   0.00000  Uiso   1.00
O44    O     0.21485   0.16219   0.31218   0.00000  Uiso   1.00
O45    O     0.11848   0.17115   0.18783   0.00000  Uiso   1.00
O46    O     0.01016   0.11881   0.20954   0.00000  Uiso   1.00
Zn47   Zn    0.10231   0.17266   0.25521   0.00000  Uiso   1.00
Zn48   Zn    0.23102   0.16067   0.24479   0.00000  Uiso   1.00
C49    C     0.51521   0.26487   0.24886   0.00000  Uiso   1.00
C50    C     0.55104   0.18130   0.40421   0.00000  Uiso   1.00
C51    C     0.49940   0.16748   0.11561   0.00000  Uiso   1.00
C52    C     0.50060   0.16586   0.38439   0.00000  Uiso   1.00
C53    C     0.54991   0.18306   0.08982   0.00000  Uiso   1.00
C54    C     0.45009   0.15027   0.41018   0.00000  Uiso   1.00
C55    C     0.55046   0.18314   0.04356   0.00000  Uiso   1.00
C56    C     0.44954   0.15019   0.45644   0.00000  Uiso   1.00
C57    C     0.49983   0.16696   0.02327   0.00000  Uiso   1.00
C58    C     0.50017   0.16637   0.47673   0.00000  Uiso   1.00
C59    C     0.44888   0.15133   0.04952   0.00000  Uiso   1.00
C60    C     0.48479   0.06846   0.25114   0.00000  Uiso   1.00
C61    C     0.55112   0.18200   0.45048   0.00000  Uiso   1.00
C62    C     0.60069   0.19899   0.01738   0.00000  Uiso   1.00
C63    C     0.39931   0.13434   0.48262   0.00000  Uiso   1.00
C64    C     0.60105   0.19836   0.47088   0.00000  Uiso   1.00
C65    C     0.39895   0.13497   0.02912   0.00000  Uiso   1.00
C66    C     0.52323   0.31936   0.24816   0.00000  Uiso   1.00
C67    C     0.47677   0.01397   0.25184   0.00000  Uiso   1.00
C68    C     0.50026   0.16651   0.33656   0.00000  Uiso   1.00
C69    C     0.49974   0.16683   0.16344   0.00000  Uiso   1.00
C70    C     0.44896   0.15204   0.09579   0.00000  Uiso   1.00
H71    H     0.41020   0.13973   0.11631   0.00000  Uiso   1.00
H72    H     0.43284   0.33038   0.25539   0.00000  Uiso   1.00
H73    H     0.64563   0.10045   0.19375   0.00000  Uiso   1.00
H74    H     0.35437   0.23288   0.30625   0.00000  Uiso   1.00
H75    H     0.58980   0.19360   0.38369   0.00000  Uiso   1.00
H76    H     0.58862   0.19543   0.10577   0.00000  Uiso   1.00
H77    H     0.41138   0.13790   0.39423   0.00000  Uiso   1.00
H78    H     0.63956   0.21178   0.03285   0.00000  Uiso   1.00
H79    H     0.36044   0.12156   0.46715   0.00000  Uiso   1.00
H80    H     0.64022   0.21059   0.45091   0.00000  Uiso   1.00
H81    H     0.35978   0.12274   0.04909   0.00000  Uiso   1.00
H82    H     0.56716   0.00296   0.24461   0.00000  Uiso   1.00
N83    N     0.65011   0.15265   0.23783   0.00000  Uiso   1.00
N84    N     0.34989   0.18068   0.26217   0.00000  Uiso   1.00
O85    O     0.46308   0.24619   0.25299   0.00000  Uiso   1.00
O86    O     0.65651   0.21452   0.29046   0.00000  Uiso   1.00
O87    O     0.53692   0.08714   0.24702   0.00000  Uiso   1.00
O88    O     0.55946   0.23721   0.24519   0.00000  Uiso   1.00
O89    O     0.44054   0.09613   0.25482   0.00000  Uiso   1.00
O90    O     0.45181   0.17117   0.31998   0.00000  Uiso   1.00
O91    O     0.54819   0.16216   0.18003   0.00000  Uiso   1.00
O92    O     0.54819   0.16219   0.31218   0.00000  Uiso   1.00
O93    O     0.45181   0.17115   0.18783   0.00000  Uiso   1.00
O94    O     0.34349   0.11881   0.20954   0.00000  Uiso   1.00
Zn95   Zn    0.43565   0.17266   0.25521   0.00000  Uiso   1.00
Zn96   Zn    0.56435   0.16067   0.24479   0.00000  Uiso   1.00
C97    C     0.84854   0.26487   0.24886   0.00000  Uiso   1.00
C98    C     0.88438   0.18130   0.40421   0.00000  Uiso   1.00
C99    C     0.83273   0.16748   0.11561   0.00000  Uiso   1.00
C100   C     0.83393   0.16586   0.38439   0.00000  Uiso   1.00
C101   C     0.88324   0.18306   0.08982   0.00000  Uiso   1.00
C102   C     0.78342   0.15027   0.41018   0.00000  Uiso   1.00
C103   C     0.88379   0.18314   0.04356   0.00000  Uiso   1.00
C104   C     0.78288   0.15019   0.45644   0.00000  Uiso   1.00
C105   C     0.83316   0.16696   0.02327   0.00000  Uiso   1.00
C106   C     0.83350   0.16637   0.47673   0.00000  Uiso   1.00
C107   C     0.78221   0.15133   0.04952   0.00000  Uiso   1.00
C108   C     0.81813   0.06846   0.25114   0.00000  Uiso   1.00
C109   C     0.88446   0.18200   0.45048   0.00000  Uiso   1.00
C110   C     0.93402   0.19899   0.01738   0.00000  Uiso   1.00
C111   C     0.73264   0.13434   0.48262   0.00000  Uiso   1.00
C112   C     0.93438   0.19836   0.47088   0.00000  Uiso   1.00
C113   C     0.73228   0.13497   0.02912   0.00000  Uiso   1.00
C114   C     0.85657   0.31936   0.24816   0.00000  Uiso   1.00
C115   C     0.81010   0.01397   0.25184   0.00000  Uiso   1.00
C116   C     0.83360   0.16651   0.33656   0.00000  Uiso   1.00
C117   C     0.83307   0.16683   0.16344   0.00000  Uiso   1.00
C118   C     0.78229   0.15204   0.09579   0.00000  Uiso   1.00
H119   H     0.74353   0.13973   0.11631   0.00000  Uiso   1.00
H120   H     0.76618   0.33038   0.25539   0.00000  Uiso   1.00
H121   H     0.97896   0.10045   0.19375   0.00000  Uiso   1.00
H122   H     0.68771   0.23288   0.30625   0.00000  Uiso   1.00
H123   H     0.92314   0.19360   0.38369   0.00000  Uiso   1.00
H124   H     0.92195   0.19543   0.10577   0.00000  Uiso   1.00
H125   H     0.74471   0.13790   0.39423   0.00000  Uiso   1.00
H126   H     0.97290   0.21178   0.03285   0.00000  Uiso   1.00
H127   H     0.69377   0.12156   0.46715   0.00000  Uiso   1.00
H128   H     0.97356   0.21059   0.45091   0.00000  Uiso   1.00
H129   H     0.69311   0.12274   0.04909   0.00000  Uiso   1.00
H130   H     0.90049   0.00296   0.24461   0.00000  Uiso   1.00
N131   N     0.98344   0.15265   0.23783   0.00000  Uiso   1.00
N132   N     0.68322   0.18068   0.26217   0.00000  Uiso   1.00
O133   O     0.79642   0.24619   0.25299   0.00000  Uiso   1.00
O134   O     0.98984   0.21452   0.29046   0.00000  Uiso   1.00
O135   O     0.87025   0.08714   0.24702   0.00000  Uiso   1.00
O136   O     0.89280   0.23721   0.24519   0.00000  Uiso   1.00
O137   O     0.77387   0.09613   0.25482   0.00000  Uiso   1.00
O138   O     0.78514   0.17117   0.31998   0.00000  Uiso   1.00
O139   O     0.88153   0.16216   0.18003   0.00000  Uiso   1.00
O140   O     0.88152   0.16219   0.31218   0.00000  Uiso   1.00
O141   O     0.78515   0.17115   0.18783   0.00000  Uiso   1.00
O142   O     0.67683   0.11881   0.20954   0.00000  Uiso   1.00
Zn143  Zn    0.76898   0.17266   0.25521   0.00000  Uiso   1.00
Zn144  Zn    0.89769   0.16067   0.24479   0.00000  Uiso   1.00
C145   C     0.18187   0.59821   0.24886   0.00000  Uiso   1.00
C146   C     0.21771   0.51463   0.40421   0.00000  Uiso   1.00
C147   C     0.16607   0.50081   0.11561   0.00000  Uiso   1.00
C148   C     0.16727   0.49919   0.38439   0.00000  Uiso   1.00
C149   C     0.21658   0.51640   0.08982   0.00000  Uiso   1.00
C150   C     0.11676   0.48360   0.41018   0.00000  Uiso   1.00
C151   C     0.21712   0.51647   0.04356   0.00000  Uiso   1.00
C152   C     0.11621   0.48353   0.45644   0.00000  Uiso   1.00
C153   C     0.16650   0.50029   0.02327   0.00000  Uiso   1.00
C154   C     0.16684   0.49971   0.47673   0.00000  Uiso   1.00
C155   C     0.11554   0.48466   0.04952   0.00000  Uiso   1.00
C156   C     0.15146   0.40179   0.25114   0.00000  Uiso   1.00
C157   C     0.21779   0.51534   0.45048   0.00000  Uiso   1.00
C158   C     0.26736   0.53233   0.01738   0.00000  Uiso   1.00
C159   C     0.06598   0.46767   0.48262   0.00000  Uiso   1.00
C160   C     0.26772   0.53170   0.47088   0.00000  Uiso   1.00
C161   C     0.06562   0.46830   0.02912   0.00000  Uiso   1.00
C162   C     0.18990   0.65269   0.24816   0.00000  Uiso   1.00
C163   C     0.14343   0.34731   0.25184   0.00000  Uiso   1.00
C164   C     0.16693   0.49984   0.33656   0.00000  Uiso   1.00
C165   C     0.16640   0.50016   0.16344   0.00000  Uiso   1.00
C166   C     0.11562   0.48537   0.09579   0.00000  Uiso   1.00
H167   H     0.07686   0.47307   0.11631   0.00000  Uiso   1.00
H168   H     0.09951   0.66371   0.25539   0.00000  Uiso   1.00
H169   H     0.31229   0.43379   0.19375   0.00000  Uiso   1.00
H170   H     0.02104   0.56621   0.30625   0.00000  Uiso   1.00
H171   H     0.25647   0.52693   0.38369   0.00000  Uiso   1.00
H172   H     0.25529   0.52877   0.10577   0.00000  Uiso   1.00
H173   H     0.07805   0.47123   0.39423   0.00000  Uiso   1.00
H174   H     0.30623   0.54511   0.03285   0.00000  Uiso   1.00
H175   H     0.02711   0.45489   0.46715   0.00000  Uiso   1.00
H176   H     0.30689   0.54392   0.45091   0.00000  Uiso   1.00
H177   H     0.02644   0.45608   0.04909   0.00000  Uiso   1.00
H178   H     0.23382   0.33629   0.24461   0.00000  Uiso   1.00
N179   N     0.31678   0.48598   0.23783   0.00000  Uiso   1.00
N180   N     0.01656   0.51402   0.26217   0.00000  Uiso   1.00
O181   O     0.12975   0.57952   0.25299   0.00000  Uiso   1.00
O182   O     0.32318   0.54786   0.29046   0.00000  Uiso   1.00
O183   O     0.20358   0.42048   0.24702   0.00000  Uiso   1.00
O184   O     0.22613   0.57054   0.24519   0.00000  Uiso   1.00
O185   O     0.10720   0.42946   0.25482   0.00000  Uiso   1.00
O186   O     0.11847   0.50450   0.31998   0.00000  Uiso   1.00
O187   O     0.21486   0.49550   0.18003   0.00000  Uiso   1.00
O188   O     0.21485   0.49552   0.31218   0.00000  Uiso   1.00
O189   O     0.11848   0.50448   0.18783   0.00000  Uiso   1.00
O190   O     0.01016   0.45214   0.20954   0.00000  Uiso   1.00
Zn191  Zn    0.10231   0.50600   0.25521   0.00000  Uiso   1.00
Zn192  Zn    0.23102   0.49400   0.24479   0.00000  Uiso   1.00
C193   C     0.51521   0.59821   0.24886   0.00000  Uiso   1.00
C194   C     0.55104   0.51463   0.40421   0.00000  Uiso   1.00
C195   C     0.49940   0.50081   0.11561   0.00000  Uiso   1.00
C196   C     0.50060   0.49919   0.38439   0.00000  Uiso   1.00
C197   C     0.54991   0.51640   0.08982   0.00000  Uiso   1.00
C198   C     0.45009   0.48360   0.41018   0.00000  Uiso   1.00
C199   C     0.55046   0.51647   0.04356   0.00000  Uiso   1.00
C200   C     0.44954   0.48353   0.45644   0.00000  Uiso   1.00
C201   C     0.49983   0.50029   0.02327   0.00000  Uiso   1.00
C202   C     0.50017   0.49971   0.47673   0.00000  Uiso   1.00
C203   C     0.44888   0.48466   0.04952   0.00000  Uiso   1.00
C204   C     0.48479   0.40179   0.25114   0.00000  Uiso   1.00
C205   C     0.55112   0.51534   0.45048   0.00000  Uiso   1.00
C206   C     0.60069   0.53233   0.01738   0.00000  Uiso   1.00
C207   C     0.39931   0.46767   0.48262   0.00000  Uiso   1.00
C208   C     0.60105   0.53170   0.47088   0.00000  Uiso   1.00
C209   C     0.39895   0.46830   0.02912   0.00000  Uiso   1.00
C210   C     0.52323   0.65269   0.24816   0.00000  Uiso   1.00
C211   C     0.47677   0.34731   0.25184   0.00000  Uiso   1.00
C212   C     0.50026   0.49984   0.33656   0.00000  Uiso   1.00
C213   C     0.49974   0.50016   0.16344   0.00000  Uiso   1.00
C214   C     0.44896   0.48537   0.09579   0.00000  Uiso   1.00
H215   H     0.41020   0.47307   0.11631   0.00000  Uiso   1.00
H216   H     0.43284   0.66371   0.25539   0.00000  Uiso   1.00
H217   H     0.64563   0.43379   0.19375   0.00000  Uiso   1.00
H218   H     0.35437   0.56621   0.30625   0.00000  Uiso   1.00
H219   H     0.58980   0.52693   0.38369   0.00000  Uiso   1.00
H220   H     0.58862   0.52877   0.10577   0.00000  Uiso   1.00
H221   H     0.41138   0.47123   0.39423   0.00000  Uiso   1.00
H222   H     0.63956   0.54511   0.03285   0.00000  Uiso   1.00
H223   H     0.36044   0.45489   0.46715   0.00000  Uiso   1.00
H224   H     0.64022   0.54392   0.45091   0.00000  Uiso   1.00
H225   H     0.35978   0.45608   0.04909   0.00000  Uiso   1.00
H226   H     0.56716   0.33629   0.24461   0.00000  Uiso   1.00
N227   N     0.65011   0.48598   0.23783   0.00000  Uiso   1.00
N228   N     0.34989   0.51402   0.26217   0.00000  Uiso   1.00
O229   O     0.46308   0.57952   0.25299   0.00000  Uiso   1.00
O230   O     0.65651   0.54786   0.29046   0.00000  Uiso   1.00
O231   O     0.53692   0.42048   0.24702   0.00000  Uiso   1.00
O232   O     0.55946   0.57054   0.24519   0.00000  Uiso   1.00
O233   O     0.44054   0.42946   0.25482   0.00000  Uiso   1.00
O234   O     0.45181   0.50450   0.31998   0.00000  Uiso   1.00
O235   O     0.54819   0.49550   0.18003   0.00000  Uiso   1.00
O236   O     0.54819   0.49552   0.31218   0.00000  Uiso   1.00
O237   O     0.45181   0.50448   0.18783   0.00000  Uiso   1.00
O238   O     0.34349   0.45214   0.20954   0.00000  Uiso   1.00
Zn239  Zn    0.43565   0.50600   0.25521   0.00000  Uiso   1.00
Zn240  Zn    0.56435   0.49400   0.24479   0.00000  Uiso   1.00
C241   C     0.84854   0.59821   0.24886   0.00000  Uiso   1.00
C242   C     0.88438   0.51463   0.40421   0.00000  Uiso   1.00
C243   C     0.83273   0.50081   0.11561   0.00000  Uiso   1.00
C244   C     0.83393   0.49919   0.38439   0.00000  Uiso   1.00
C245   C     0.88324   0.51640   0.08982   0.00000  Uiso   1.00
C246   C     0.78342   0.48360   0.41018   0.00000  Uiso   1.00
C247   C     0.88379   0.51647   0.04356   0.00000  Uiso   1.00
C248   C     0.78288   0.48353   0.45644   0.00000  Uiso   1.00
C249   C     0.83316   0.50029   0.02327   0.00000  Uiso   1.00
C250   C     0.83350   0.49971   0.47673   0.00000  Uiso   1.00
C251   C     0.78221   0.48466   0.04952   0.00000  Uiso   1.00
C252   C     0.81813   0.40179   0.25114   0.00000  Uiso   1.00
C253   C     0.88446   0.51534   0.45048   0.00000  Uiso   1.00
C254   C     0.93402   0.53233   0.01738   0.00000  Uiso   1.00
C255   C     0.73264   0.46767   0.48262   0.00000  Uiso   1.00
C256   C     0.93438   0.53170   0.47088   0.00000  Uiso   1.00
C257   C     0.73228   0.46830   0.02912   0.00000  Uiso   1.00
C258   C     0.85657   0.65269   0.24816   0.00000  Uiso   1.00
C259   C     0.81010   0.34731   0.25184   0.00000  Uiso   1.00
C260   C     0.83360   0.49984   0.33656   0.00000  Uiso   1.00
C261   C     0.83307   0.50016   0.16344   0.00000  Uiso   1.00
C262   C     0.78229   0.48537   0.09579   0.00000  Uiso   1.00
H263   H     0.74353   0.47307   0.11631   0.00000  Uiso   1.00
H264   H     0.76618   0.66371   0.25539   0.00000  Uiso   1.00
H265   H     0.97896   0.43379   0.19375   0.00000  Uiso   1.00
H266   H     0.68771   0.56621   0.30625   0.00000  Uiso   1.00
H267   H     0.92314   0.52693   0.38369   0.00000  Uiso   1.00
H268   H     0.92195   0.52877   0.10577   0.00000  Uiso   1.00
H269   H     0.74471   0.47123   0.39423   0.00000  Uiso   1.00
H270   H     0.97290   0.54511   0.03285   0.00000  Uiso   1.00
H271   H     0.69377   0.45489   0.46715   0.00000  Uiso   1.00
H272   H     0.97356   0.54392   0.45091   0.00000  Uiso   1.00
H273   H     0.69311   0.45608   0.04909   0.00000  Uiso   1.00
H274   H     0.90049   0.33629   0.24461   0.00000  Uiso   1.00
N275   N     0.98344   0.48598   0.23783   0.00000  Uiso   1.00
N276   N     0.68322   0.51402   0.26217   0.00000  Uiso   1.00
O277   O     0.79642   0.57952   0.25299   0.00000  Uiso   1.00
O278   O     0.98984   0.54786   0.29046   0.00000  Uiso   1.00
O279   O     0.87025   0.42048   0.24702   0.00000  Uiso   1.00
O280   O     0.89280   0.57054   0.24519   0.00000  Uiso   1.00
O281   O     0.77387   0.42946   0.25482   0.00000  Uiso   1.00
O282   O     0.78514   0.50450   0.31998   0.00000  Uiso   1.00
O283   O     0.88153   0.49550   0.18003   0.00000  Uiso   1.00
O284   O     0.88152   0.49552   0.31218   0.00000  Uiso   1.00
O285   O     0.78515   0.50448   0.18783   0.00000  Uiso   1.00
O286   O     0.67683   0.45214   0.20954   0.00000  Uiso   1.00
Zn287  Zn    0.76898   0.50600   0.25521   0.00000  Uiso   1.00
Zn288  Zn    0.89769   0.49400   0.24479   0.00000  Uiso   1.00
C289   C     0.18187   0.93154   0.24886   0.00000  Uiso   1.00
C290   C     0.21771   0.84796   0.40421   0.00000  Uiso   1.00
C291   C     0.16607   0.83414   0.11561   0.00000  Uiso   1.00
C292   C     0.16727   0.83252   0.38439   0.00000  Uiso   1.00
C293   C     0.21658   0.84973   0.08982   0.00000  Uiso   1.00
C294   C     0.11676   0.81694   0.41018   0.00000  Uiso   1.00
C295   C     0.21712   0.84981   0.04356   0.00000  Uiso   1.00
C296   C     0.11621   0.81686   0.45644   0.00000  Uiso   1.00
C297   C     0.16650   0.83363   0.02327   0.00000  Uiso   1.00
C298   C     0.16684   0.83304   0.47673   0.00000  Uiso   1.00
C299   C     0.11554   0.81800   0.04952   0.00000  Uiso   1.00
C300   C     0.15146   0.73513   0.25114   0.00000  Uiso   1.00
C301   C     0.21779   0.84867   0.45048   0.00000  Uiso   1.00
C302   C     0.26736   0.86566   0.01738   0.00000  Uiso   1.00
C303   C     0.06598   0.80101   0.48262   0.00000  Uiso   1.00
C304   C     0.26772   0.86503   0.47088   0.00000  Uiso   1.00
C305   C     0.06562   0.80164   0.02912   0.00000  Uiso   1.00
C306   C     0.18990   0.98603   0.24816   0.00000  Uiso   1.00
C307   C     0.14343   0.68064   0.25184   0.00000  Uiso   1.00
C308   C     0.16693   0.83317   0.33656   0.00000  Uiso   1.00
C309   C     0.16640   0.83349   0.16344   0.00000  Uiso   1.00
C310   C     0.11562   0.81870   0.09579   0.00000  Uiso   1.00
H311   H     0.07686   0.80640   0.11631   0.00000  Uiso   1.00
H312   H     0.09951   0.99704   0.25539   0.00000  Uiso   1.00
H313   H     0.31229   0.76712   0.19375   0.00000  Uiso   1.00
H314   H     0.02104   0.89955   0.30625   0.00000  Uiso   1.00
H315   H     0.25647   0.86027   0.38369   0.00000  Uiso   1.00
H316   H     0.25529   0.86210   0.10577   0.00000  Uiso   1.00
H317   H     0.07805   0.80457   0.39423   0.00000  Uiso   1.00
H318   H     0.30623   0.87844   0.03285   0.00000  Uiso   1.00
H319   H     0.02711   0.78822   0.46715   0.00000  Uiso   1.00
H320   H     0.30689   0.87726   0.45091   0.00000  Uiso   1.00
H321   H     0.02644   0.78941   0.04909   0.00000  Uiso   1.00
H322   H     0.23382   0.66962   0.24461   0.00000  Uiso   1.00
N323   N     0.31678   0.81932   0.23783   0.00000  Uiso   1.00
N324   N     0.01656   0.84735   0.26217   0.00000  Uiso   1.00
O325   O     0.12975   0.91286   0.25299   0.00000  Uiso   1.00
O326   O     0.32318   0.88119   0.29046   0.00000  Uiso   1.00
O327   O     0.20358   0.75381   0.24702   0.00000  Uiso   1.00
O328   O     0.22613   0.90387   0.24519   0.00000  Uiso   1.00
O329   O     0.10720   0.76279   0.25482   0.00000  Uiso   1.00
O330   O     0.11847   0.83784   0.31998   0.00000  Uiso   1.00
O331   O     0.21486   0.82883   0.18003   0.00000  Uiso   1.00
O332   O     0.21485   0.82885   0.31218   0.00000  Uiso   1.00
O333   O     0.11848   0.83781   0.18783   0.00000  Uiso   1.00
O334   O     0.01016   0.78548   0.20954   0.00000  Uiso   1.00
Zn335  Zn    0.10231   0.83933   0.25521   0.00000  Uiso   1.00
Zn336  Zn    0.23102   0.82734   0.24479   0.00000  Uiso   1.00
C337   C     0.51521   0.93154   0.24886   0.00000  Uiso   1.00
C338   C     0.55104   0.84796   0.40421   0.00000  Uiso   1.00
C339   C     0.49940   0.83414   0.11561   0.00000  Uiso   1.00
C340   C     0.50060   0.83252   0.38439   0.00000  Uiso   1.00
C341   C     0.54991   0.84973   0.08982   0.00000  Uiso   1.00
C342   C     0.45009   0.81694   0.41018   0.00000  Uiso   1.00
C343   C     0.55046   0.84981   0.04356   0.00000  Uiso   1.00
C344   C     0.44954   0.81686   0.45644   0.00000  Uiso   1.00
C345   C     0.49983   0.83363   0.02327   0.00000  Uiso   1.00
C346   C     0.50017   0.83304   0.47673   0.00000  Uiso   1.00
C347   C     0.44888   0.81800   0.04952   0.00000  Uiso   1.00
C348   C     0.48479   0.73513   0.25114   0.00000  Uiso   1.00
C349   C     0.55112   0.84867   0.45048   0.00000  Uiso   1.00
C350   C     0.60069   0.86566   0.01738   0.00000  Uiso   1.00
C351   C     0.39931   0.80101   0.48262   0.00000  Uiso   1.00
C352   C     0.60105   0.86503   0.47088   0.00000  Uiso   1.00
C353   C     0.39895   0.80164   0.02912   0.00000  Uiso   1.00
C354   C     0.52323   0.98603   0.24816   0.00000  Uiso   1.00
C355   C     0.47677   0.68064   0.25184   0.00000  Uiso   1.00
C356   C     0.50026   0.83317   0.33656   0.00000  Uiso   1.00
C357   C     0.49974   0.83349   0.16344   0.00000  Uiso   1.00
C358   C     0.44896   0.81870   0.09579   0.00000  Uiso   1.00
H359   H     0.41020   0.80640   0.11631   0.00000  Uiso   1.00
H360   H     0.43284   0.99704   0.25539   0.00000  Uiso   1.00
H361   H     0.64563   0.76712   0.19375   0.00000  Uiso   1.00
H362   H     0.35437   0.89955   0.30625   0.00000  Uiso   1.00
H363   H     0.58980   0.86027   0.38369   0.00000  Uiso   1.00
H364   H     0.58862   0.86210   0.10577   0.00000  Uiso   1.00
H365   H     0.41138   0.80457   0.39423   0.00000  Uiso   1.00
H366   H     0.63956   0.87844   0.03285   0.00000  Uiso   1.00
H367   H     0.36044   0.78822   0.46715   0.00000  Uiso   1.00
H368   H     0.64022   0.87726   0.45091   0.00000  Uiso   1.00
H369   H     0.35978   0.78941   0.04909   0.00000  Uiso   1.00
H370   H     0.56716   0.66962   0.24461   0.00000  Uiso   1.00
N371   N     0.65011   0.81932   0.23783   0.00000  Uiso   1.00
N372   N     0.34989   0.84735   0.26217   0.00000  Uiso   1.00
O373   O     0.46308   0.91286   0.25299   0.00000  Uiso   1.00
O374   O     0.65651   0.88119   0.29046   0.00000  Uiso   1.00
O375   O     0.53692   0.75381   0.24702   0.00000  Uiso   1.00
O376   O     0.55946   0.90387   0.24519   0.00000  Uiso   1.00
O377   O     0.44054   0.76279   0.25482   0.00000  Uiso   1.00
O378   O     0.45181   0.83784   0.31998   0.00000  Uiso   1.00
O379   O     0.54819   0.82883   0.18003   0.00000  Uiso   1.00
O380   O     0.54819   0.82885   0.31218   0.00000  Uiso   1.00
O381   O     0.45181   0.83781   0.18783   0.00000  Uiso   1.00
O382   O     0.34349   0.78548   0.20954   0.00000  Uiso   1.00
Zn383  Zn    0.43565   0.83933   0.25521   0.00000  Uiso   1.00
Zn384  Zn    0.56435   0.82734   0.24479   0.00000  Uiso   1.00
C385   C     0.84854   0.93154   0.24886   0.00000  Uiso   1.00
C386   C     0.88438   0.84796   0.40421   0.00000  Uiso   1.00
C387   C     0.83273   0.83414   0.11561   0.00000  Uiso   1.00
C388   C     0.83393   0.83252   0.38439   0.00000  Uiso   1.00
C389   C     0.88324   0.84973   0.08982   0.00000  Uiso   1.00
C390   C     0.78342   0.81694   0.41018   0.00000  Uiso   1.00
C391   C     0.88379   0.84981   0.04356   0.00000  Uiso   1.00
C392   C     0.78288   0.81686   0.45644   0.00000  Uiso   1.00
C393   C     0.83316   0.83363   0.02327   0.00000  Uiso   1.00
C394   C     0.83350   0.83304   0.47673   0.00000  Uiso   1.00
C395   C     0.78221   0.81800   0.04952   0.00000  Uiso   1.00
C396   C     0.81813   0.73513   0.25114   0.00000  Uiso   1.00
C397   C     0.88446   0.84867   0.45048   0.00000  Uiso   1.00
C398   C     0.93402   0.86566   0.01738   0.00000  Uiso   1.00
C399   C     0.73264   0.80101   0.48262   0.00000  Uiso   1.00
C400   C     0.93438   0.86503   0.47088   0.00000  Uiso   1.00
C401   C     0.73228   0.80164   0.02912   0.00000  Uiso   1.00
C402   C     0.85657   0.98603   0.24816   0.00000  Uiso   1.00
C403   C     0.81010   0.68064   0.25184   0.00000  Uiso   1.00
C404   C     0.83360   0.83317   0.33656   0.00000  Uiso   1.00
C405   C     0.83307   0.83349   0.16344   0.00000  Uiso   1.00
C406   C     0.78229   0.81870   0.09579   0.00000  Uiso   1.00
H407   H     0.74353   0.80640   0.11631   0.00000  Uiso   1.00
H408   H     0.76618   0.99704   0.25539   0.00000  Uiso   1.00
H409   H     0.97896   0.76712   0.19375   0.00000  Uiso   1.00
H410   H     0.68771   0.89955   0.30625   0.00000  Uiso   1.00
H411   H     0.92314   0.86027   0.38369   0.00000  Uiso   1.00
H412   H     0.92195   0.86210   0.10577   0.00000  Uiso   1.00
H413   H     0.74471   0.80457   0.39423   0.00000  Uiso   1.00
H414   H     0.97290   0.87844   0.03285   0.00000  Uiso   1.00
H415   H     0.69377   0.78822   0.46715   0.00000  Uiso   1.00
H416   H     0.97356   0.87726   0.45091   0.00000  Uiso   1.00
H417   H     0.69311   0.78941   0.04909   0.00000  Uiso   1.00
H418   H     0.90049   0.66962   0.24461   0.00000  Uiso   1.00
N419   N     0.98344   0.81932   0.23783   0.00000  Uiso   1.00
N420   N     0.68322   0.84735   0.26217   0.00000  Uiso   1.00
O421   O     0.79642   0.91286   0.25299   0.00000  Uiso   1.00
O422   O     0.98984   0.88119   0.29046   0.00000  Uiso   1.00
O423   O     0.87025   0.75381   0.24702   0.00000  Uiso   1.00
O424   O     0.89280   0.90387   0.24519   0.00000  Uiso   1.00
O425   O     0.77387   0.76279   0.25482   0.00000  Uiso   1.00
O426   O     0.78514   0.83784   0.31998   0.00000  Uiso   1.00
O427   O     0.88153   0.82883   0.18003   0.00000  Uiso   1.00
O428   O     0.88152   0.82885   0.31218   0.00000  Uiso   1.00
O429   O     0.78515   0.83781   0.18783   0.00000  Uiso   1.00
O430   O     0.67683   0.78548   0.20954   0.00000  Uiso   1.00
Zn431  Zn    0.76898   0.83933   0.25521   0.00000  Uiso   1.00
Zn432  Zn    0.89769   0.82734   0.24479   0.00000  Uiso   1.00
C433   C     0.18187   0.26487   0.74886   0.00000  Uiso   1.00
C434   C     0.21771   0.18130   0.90421   0.00000  Uiso   1.00
C435   C     0.16607   0.16748   0.61561   0.00000  Uiso   1.00
C436   C     0.16727   0.16586   0.88439   0.00000  Uiso   1.00
C437   C     0.21658   0.18306   0.58982   0.00000  Uiso   1.00
C438   C     0.11676   0.15027   0.91018   0.00000  Uiso   1.00
C439   C     0.21712   0.18314   0.54356   0.00000  Uiso   1.00
C440   C     0.11621   0.15019   0.95644   0.00000  Uiso   1.00
C441   C     0.16650   0.16696   0.52327   0.00000  Uiso   1.00
C442   C     0.16684   0.16637   0.97673   0.00000  Uiso   1.00
C443   C     0.11554   0.15133   0.54952   0.00000  Uiso   1.00
C444   C     0.15146   0.06846   0.75114   0.00000  Uiso   1.00
C445   C     0.21779   0.18200   0.95048   0.00000  Uiso   1.00
C446   C     0.26736   0.19899   0.51738   0.00000  Uiso   1.00
C447   C     0.06598   0.13434   0.98262   0.00000  Uiso   1.00
C448   C     0.26772   0.19836   0.97088   0.00000  Uiso   1.00
C449   C     0.06562   0.13497   0.52912   0.00000  Uiso   1.00
C450   C     0.18990   0.31936   0.74816   0.00000  Uiso   1.00
C451   C     0.14343   0.01397   0.75184   0.00000  Uiso   1.00
C452   C     0.16693   0.16651   0.83656   0.00000  Uiso   1.00
C453   C     0.16640   0.16683   0.66344   0.00000  Uiso   1.00
C454   C     0.11562   0.15204   0.59579   0.00000  Uiso   1.00
H455   H     0.07686   0.13973   0.61631   0.00000  Uiso   1.00
H456   H     0.09951   0.33038   0.75539   0.00000  Uiso   1.00
H457   H     0.31229   0.10045   0.69375   0.00000  Uiso   1.00
H458   H     0.02104   0.23288   0.80625   0.00000  Uiso   1.00
H459   H     0.25647   0.19360   0.88369   0.00000  Uiso   1.00
H460   H     0.25529   0.19543   0.60577   0.00000  Uiso   1.00
H461   H     0.07805   0.13790   0.89423   0.00000  Uiso   1.00
H462   H     0.30623   0.21178   0.53285   0.00000  Uiso   1.00
H463   H     0.02711   0.12156   0.96715   0.00000  Uiso   1.00
H464   H     0.30689   0.21059   0.95091   0.00000  Uiso   1.00
H465   H     0.02644   0.12274   0.54909   0.00000  Uiso   1.00
H466   H     0.23382   0.00296   0.74461   0.00000  Uiso   1.00
N467   N     0.31678   0.15265   0.73783   0.00000  Uiso   1.00
N468   N     0.01656   0.18068   0.76217   0.00000  Uiso   1.00
O469   O     0.12975   0.24619   0.75299   0.00000  Uiso   1.00
O470   O     0.32318   0.21452   0.79046   0.00000  Uiso   1.00
O471   O     0.20358   0.08714   0.74702   0.00000  Uiso   1.00
O472   O     0.22613   0.23721   0.74519   0.00000  Uiso   1.00
O473   O     0.10720   0.09613   0.75482   0.00000  Uiso   1.00
O474   O     0.11847   0.17117   0.81998   0.00000  Uiso   1.00
O475   O     0.21486   0.16216   0.68003   0.00000  Uiso   1.00
O476   O     0.21485   0.16219   0.81218   0.00000  Uiso   1.00
O477   O     0.11848   0.17115   0.68783   0.00000  Uiso   1.00
O478   O     0.01016   0.11881   0.70954   0.00000  Uiso   1.00
Zn479  Zn    0.10231   0.17266   0.75521   0.00000  Uiso   1.00
Zn480  Zn    0.23102   0.16067   0.74479   0.00000  Uiso   1.00
C481   C     0.51521   0.26487   0.74886   0.00000  Uiso   1.00
C482   C     0.55104   0.18130   0.90421   0.00000  Uiso   1.00
C483   C     0.49940   0.16748   0.61561   0.00000  Uiso   1.00
C484   C     0.50060   0.16586   0.88439   0.00000  Uiso   1.00
C485   C     0.54991   0.18306   0.58982   0.00000  Uiso   1.00
C486   C     0.45009   0.15027   0.91018   0.00000  Uiso   1.00
C487   C     0.55046   0.18314   0.54356   0.00000  Uiso   1.00
C488   C     0.44954   0.15019   0.95644   0.00000  Uiso   1.00
C489   C     0.49983   0.16696   0.52327   0.00000  Uiso   1.00
C490   C     0.50017   0.16637   0.97673   0.00000  Uiso   1.00
C491   C     0.44888   0.15133   0.54952   0.00000  Uiso   1.00
C492   C     0.48479   0.06846   0.75114   0.00000  Uiso   1.00
C493   C     0.55112   0.18200   0.95048   0.00000  Uiso   1.00
C494   C     0.60069   0.19899   0.51738   0.00000  Uiso   1.00
C495   C     0.39931   0.13434   0.98262   0.00000  Uiso   1.00
C496   C     0.60105   0.19836   0.97088   0.00000  Uiso   1.00
C497   C     0.39895   0.13497   0.52912   0.00000  Uiso   1.00
C498   C     0.52323   0.31936   0.74816   0.00000  Uiso   1.00
C499   C     0.47677   0.01397   0.75184   0.00000  Uiso   1.00
C500   C     0.50026   0.16651   0.83656   0.00000  Uiso   1.00
C501   C     0.49974   0.16683   0.66344   0.00000  Uiso   1.00
C502   C     0.44896   0.15204   0.59579   0.00000  Uiso   1.00
H503   H     0.41020   0.13973   0.61631   0.00000  Uiso   1.00
H504   H     0.43284   0.33038   0.75539   0.00000  Uiso   1.00
H505   H     0.64563   0.10045   0.69375   0.00000  Uiso   1.00
H506   H     0.35437   0.23288   0.80625   0.00000  Uiso   1.00
H507   H     0.58980   0.19360   0.88369   0.00000  Uiso   1.00
H508   H     0.58862   0.19543   0.60577   0.00000  Uiso   1.00
H509   H     0.41138   0.13790   0.89423   0.00000  Uiso   1.00
H510   H     0.63956   0.21178   0.53285   0.00000  Uiso   1.00
H511   H     0.36044   0.12156   0.96715   0.00000  Uiso   1.00
H512   H     0.64022   0.21059   0.95091   0.00000  Uiso   1.00
H513   H     0.35978   0.12274   0.54909   0.00000  Uiso   1.00
H514   H     0.56716   0.00296   0.74461   0.00000  Uiso   1.00
N515   N     0.65011   0.15265   0.73783   0.00000  Uiso   1.00
N516   N     0.34989   0.18068   0.76217   0.00000  Uiso   1.00
O517   O     0.46308   0.24619   0.75299   0.00000  Uiso   1.00
O518   O     0.65651   0.21452   0.79046   0.00000  Uiso   1.00
O519   O     0.53692   0.08714   0.74702   0.00000  Uiso   1.00
O520   O     0.55946   0.23721   0.74519   0.00000  Uiso   1.00
O521   O     0.44054   0.09613   0.75482   0.00000  Uiso   1.00
O522   O     0.45181   0.17117   0.81998   0.00000  Uiso   1.00
O523   O     0.54819   0.16216   0.68003   0.00000  Uiso   1.00
O524   O     0.54819   0.16219   0.81218   0.00000  Uiso   1.00
O525   O     0.45181   0.17115   0.68783   0.00000  Uiso   1.00
O526   O     0.34349   0.11881   0.70954   0.00000  Uiso   1.00
Zn527  Zn    0.43565   0.17266   0.75521   0.00000  Uiso   1.00
Zn528  Zn    0.56435   0.16067   0.74479   0.00000  Uiso   1.00
C529   C     0.84854   0.26487   0.74886   0.00000  Uiso   1.00
C530   C     0.88438   0.18130   0.90421   0.00000  Uiso   1.00
C531   C     0.83273   0.16748   0.61561   0.00000  Uiso   1.00
C532   C     0.83393   0.16586   0.88439   0.00000  Uiso   1.00
C533   C     0.88324   0.18306   0.58982   0.00000  Uiso   1.00
C534   C     0.78342   0.15027   0.91018   0.00000  Uiso   1.00
C535   C     0.88379   0.18314   0.54356   0.00000  Uiso   1.00
C536   C     0.78288   0.15019   0.95644   0.00000  Uiso   1.00
C537   C     0.83316   0.16696   0.52327   0.00000  Uiso   1.00
C538   C     0.83350   0.16637   0.97673   0.00000  Uiso   1.00
C539   C     0.78221   0.15133   0.54952   0.00000  Uiso   1.00
C540   C     0.81813   0.06846   0.75114   0.00000  Uiso   1.00
C541   C     0.88446   0.18200   0.95048   0.00000  Uiso   1.00
C542   C     0.93402   0.19899   0.51738   0.00000  Uiso   1.00
C543   C     0.73264   0.13434   0.98262   0.00000  Uiso   1.00
C544   C     0.93438   0.19836   0.97088   0.00000  Uiso   1.00
C545   C     0.73228   0.13497   0.52912   0.00000  Uiso   1.00
C546   C     0.85657   0.31936   0.74816   0.00000  Uiso   1.00
C547   C     0.81010   0.01397   0.75184   0.00000  Uiso   1.00
C548   C     0.83360   0.16651   0.83656   0.00000  Uiso   1.00
C549   C     0.83307   0.16683   0.66344   0.00000  Uiso   1.00
C550   C     0.78229   0.15204   0.59579   0.00000  Uiso   1.00
H551   H     0.74353   0.13973   0.61631   0.00000  Uiso   1.00
H552   H     0.76618   0.33038   0.75539   0.00000  Uiso   1.00
H553   H     0.97896   0.10045   0.69375   0.00000  Uiso   1.00
H554   H     0.68771   0.23288   0.80625   0.00000  Uiso   1.00
H555   H     0.92314   0.19360   0.88369   0.00000  Uiso   1.00
H556   H     0.92195   0.19543   0.60577   0.00000  Uiso   1.00
H557   H     0.74471   0.13790   0.89423   0.00000  Uiso   1.00
H558   H     0.97290   0.21178   0.53285   0.00000  Uiso   1.00
H559   H     0.69377   0.12156   0.96715   0.00000  Uiso   1.00
H560   H     0.97356   0.21059   0.95091   0.00000  Uiso   1.00
H561   H     0.69311   0.12274   0.54909   0.00000  Uiso   1.00
H562   H     0.90049   0.00296   0.74461   0.00000  Uiso   1.00
N563   N     0.98344   0.15265   0.73783   0.00000  Uiso   1.00
N564   N     0.68322   0.18068   0.76217   0.00000  Uiso   1.00
O565   O     0.79642   0.24619   0.75299   0.00000  Uiso   1.00
O566   O     0.98984   0.21452   0.79046   0.00000  Uiso   1.00
O567   O     0.87025   0.08714   0.74702   0.00000  Uiso   1.00
O568   O     0.89280   0.23721   0.74519   0.00000  Uiso   1.00
O569   O     0.77387   0.09613   0.75482   0.00000  Uiso   1.00
O570   O     0.78514   0.17117   0.81998   0.00000  Uiso   1.00
O571   O     0.88153   0.16216   0.68003   0.00000  Uiso   1.00
O572   O     0.88152   0.16219   0.81218   0.00000  Uiso   1.00
O573   O     0.78515   0.17115   0.68783   0.00000  Uiso   1.00
O574   O     0.67683   0.11881   0.70954   0.00000  Uiso   1.00
Zn575  Zn    0.76898   0.17266   0.75521   0.00000  Uiso   1.00
Zn576  Zn    0.89769   0.16067   0.74479   0.00000  Uiso   1.00
C577   C     0.18187   0.59821   0.74886   0.00000  Uiso   1.00
C578   C     0.21771   0.51463   0.90421   0.00000  Uiso   1.00
C579   C     0.16607   0.50081   0.61561   0.00000  Uiso   1.00
C580   C     0.16727   0.49919   0.88439   0.00000  Uiso   1.00
C581   C     0.21658   0.51640   0.58982   0.00000  Uiso   1.00
C582   C     0.11676   0.48360   0.91018   0.00000  Uiso   1.00
C583   C     0.21712   0.51647   0.54356   0.00000  Uiso   1.00
C584   C     0.11621   0.48353   0.95644   0.00000  Uiso   1.00
C585   C     0.16650   0.50029   0.52327   0.00000  Uiso   1.00
C586   C     0.16684   0.49971   0.97673   0.00000  Uiso   1.00
C587   C     0.11554   0.48466   0.54952   0.00000  Uiso   1.00
C588   C     0.15146   0.40179   0.75114   0.00000  Uiso   1.00
C589   C     0.21779   0.51534   0.95048   0.00000  Uiso   1.00
C590   C     0.26736   0.53233   0.51738   0.00000  Uiso   1.00
C591   C     0.06598   0.46767   0.98262   0.00000  Uiso   1.00
C592   C     0.26772   0.53170   0.97088   0.00000  Uiso   1.00
C593   C     0.06562   0.46830   0.52912   0.00000  Uiso   1.00
C594   C     0.18990   0.65269   0.74816   0.00000  Uiso   1.00
C595   C     0.14343   0.34731   0.75184   0.00000  Uiso   1.00
C596   C     0.16693   0.49984   0.83656   0.00000  Uiso   1.00
C597   C     0.16640   0.50016   0.66344   0.00000  Uiso   1.00
C598   C     0.11562   0.48537   0.59579   0.00000  Uiso   1.00
H599   H     0.07686   0.47307   0.61631   0.00000  Uiso   1.00
H600   H     0.09951   0.66371   0.75539   0.00000  Uiso   1.00
H601   H     0.31229   0.43379   0.69375   0.00000  Uiso   1.00
H602   H     0.02104   0.56621   0.80625   0.00000  Uiso   1.00
H603   H     0.25647   0.52693   0.88369   0.00000  Uiso   1.00
H604   H     0.25529   0.52877   0.60577   0.00000  Uiso   1.00
H605   H     0.07805   0.47123   0.89423   0.00000  Uiso   1.00
H606   H     0.30623   0.54511   0.53285   0.00000  Uiso   1.00
H607   H     0.02711   0.45489   0.96715   0.00000  Uiso   1.00
H608   H     0.30689   0.54392   0.95091   0.00000  Uiso   1.00
H609   H     0.02644   0.45608   0.54909   0.00000  Uiso   1.00
H610   H     0.23382   0.33629   0.74461   0.00000  Uiso   1.00
N611   N     0.31678   0.48598   0.73783   0.00000  Uiso   1.00
N612   N     0.01656   0.51402   0.76217   0.00000  Uiso   1.00
O613   O     0.12975   0.57952   0.75299   0.00000  Uiso   1.00
O614   O     0.32318   0.54786   0.79046   0.00000  Uiso   1.00
O615   O     0.20358   0.42048   0.74702   0.00000  Uiso   1.00
O616   O     0.22613   0.57054   0.74519   0.00000  Uiso   1.00
O617   O     0.10720   0.42946   0.75482   0.00000  Uiso   1.00
O618   O     0.11847   0.50450   0.81998   0.00000  Uiso   1.00
O619   O     0.21486   0.49550   0.68003   0.00000  Uiso   1.00
O620   O     0.21485   0.49552   0.81218   0.00000  Uiso   1.00
O621   O     0.11848   0.50448   0.68783   0.00000  Uiso   1.00
O622   O     0.01016   0.45214   0.70954   0.00000  Uiso   1.00
Zn623  Zn    0.10231   0.50600   0.75521   0.00000  Uiso   1.00
Zn624  Zn    0.23102   0.49400   0.74479   0.00000  Uiso   1.00
C625   C     0.51521   0.59821   0.74886   0.00000  Uiso   1.00
C626   C     0.55104   0.51463   0.90421   0.00000  Uiso   1.00
C627   C     0.49940   0.50081   0.61561   0.00000  Uiso   1.00
C628   C     0.50060   0.49919   0.88439   0.00000  Uiso   1.00
C629   C     0.54991   0.51640   0.58982   0.00000  Uiso   1.00
C630   C     0.45009   0.48360   0.91018   0.00000  Uiso   1.00
C631   C     0.55046   0.51647   0.54356   0.00000  Uiso   1.00
C632   C     0.44954   0.48353   0.95644   0.00000  Uiso   1.00
C633   C     0.49983   0.50029   0.52327   0.00000  Uiso   1.00
C634   C     0.50017   0.49971   0.97673   0.00000  Uiso   1.00
C635   C     0.44888   0.48466   0.54952   0.00000  Uiso   1.00
C636   C     0.48479   0.40179   0.75114   0.00000  Uiso   1.00
C637   C     0.55112   0.51534   0.95048   0.00000  Uiso   1.00
C638   C     0.60069   0.53233   0.51738   0.00000  Uiso   1.00
C639   C     0.39931   0.46767   0.98262   0.00000  Uiso   1.00
C640   C     0.60105   0.53170   0.97088   0.00000  Uiso   1.00
C641   C     0.39895   0.46830   0.52912   0.00000  Uiso   1.00
C642   C     0.52323   0.65269   0.74816   0.00000  Uiso   1.00
C643   C     0.47677   0.34731   0.75184   0.00000  Uiso   1.00
C644   C     0.50026   0.49984   0.83656   0.00000  Uiso   1.00
C645   C     0.49974   0.50016   0.66344   0.00000  Uiso   1.00
C646   C     0.44896   0.48537   0.59579   0.00000  Uiso   1.00
H647   H     0.41020   0.47307   0.61631   0.00000  Uiso   1.00
H648   H     0.43284   0.66371   0.75539   0.00000  Uiso   1.00
H649   H     0.64563   0.43379   0.69375   0.00000  Uiso   1.00
H650   H     0.35437   0.56621   0.80625   0.00000  Uiso   1.00
H651   H     0.58980   0.52693   0.88369   0.00000  Uiso   1.00
H652   H     0.58862   0.52877   0.60577   0.00000  Uiso   1.00
H653   H     0.41138   0.47123   0.89423   0.00000  Uiso   1.00
H654   H     0.63956   0.54511   0.53285   0.00000  Uiso   1.00
H655   H     0.36044   0.45489   0.96715   0.00000  Uiso   1.00
H656   H     0.64022   0.54392   0.95091   0.00000  Uiso   1.00
H657   H     0.35978   0.45608   0.54909   0.00000  Uiso   1.00
H658   H     0.56716   0.33629   0.74461   0.00000  Uiso   1.00
N659   N     0.65011   0.48598   0.73783   0.00000  Uiso   1.00
N660   N     0.34989   0.51402   0.76217   0.00000  Uiso   1.00
O661   O     0.46308   0.57952   0.75299   0.00000  Uiso   1.00
O662   O     0.65651   0.54786   0.79046   0.00000  Uiso   1.00
O663   O     0.53692   0.42048   0.74702   0.00000  Uiso   1.00
O664   O     0.55946   0.57054   0.74519   0.00000  Uiso   1.00
O665   O     0.44054   0.42946   0.75482   0.00000  Uiso   1.00
O666   O     0.45181   0.50450   0.81998   0.00000  Uiso   1.00
O667   O     0.54819   0.49550   0.68003   0.00000  Uiso   1.00
O668   O     0.54819   0.49552   0.81218   0.00000  Uiso   1.00
O669   O     0.45181   0.50448   0.68783   0.00000  Uiso   1.00
O670   O     0.34349   0.45214   0.70954   0.00000  Uiso   1.00
Zn671  Zn    0.43565   0.50600   0.75521   0.00000  Uiso   1.00
Zn672  Zn    0.56435   0.49400   0.74479   0.00000  Uiso   1.00
C673   C     0.84854   0.59821   0.74886   0.00000  Uiso   1.00
C674   C     0.88438   0.51463   0.90421   0.00000  Uiso   1.00
C675   C     0.83273   0.50081   0.61561   0.00000  Uiso   1.00
C676   C     0.83393   0.49919   0.88439   0.00000  Uiso   1.00
C677   C     0.88324   0.51640   0.58982   0.00000  Uiso   1.00
C678   C     0.78342   0.48360   0.91018   0.00000  Uiso   1.00
C679   C     0.88379   0.51647   0.54356   0.00000  Uiso   1.00
C680   C     0.78288   0.48353   0.95644   0.00000  Uiso   1.00
C681   C     0.83316   0.50029   0.52327   0.00000  Uiso   1.00
C682   C     0.83350   0.49971   0.97673   0.00000  Uiso   1.00
C683   C     0.78221   0.48466   0.54952   0.00000  Uiso   1.00
C684   C     0.81813   0.40179   0.75114   0.00000  Uiso   1.00
C685   C     0.88446   0.51534   0.95048   0.00000  Uiso   1.00
C686   C     0.93402   0.53233   0.51738   0.00000  Uiso   1.00
C687   C     0.73264   0.46767   0.98262   0.00000  Uiso   1.00
C688   C     0.93438   0.53170   0.97088   0.00000  Uiso   1.00
C689   C     0.73228   0.46830   0.52912   0.00000  Uiso   1.00
C690   C     0.85657   0.65269   0.74816   0.00000  Uiso   1.00
C691   C     0.81010   0.34731   0.75184   0.00000  Uiso   1.00
C692   C     0.83360   0.49984   0.83656   0.00000  Uiso   1.00
C693   C     0.83307   0.50016   0.66344   0.00000  Uiso   1.00
C694   C     0.78229   0.48537   0.59579   0.00000  Uiso   1.00
H695   H     0.74353   0.47307   0.61631   0.00000  Uiso   1.00
H696   H     0.76618   0.66371   0.75539   0.00000  Uiso   1.00
H697   H     0.97896   0.43379   0.69375   0.00000  Uiso   1.00
H698   H     0.68771   0.56621   0.80625   0.00000  Uiso   1.00
H699   H     0.92314   0.52693   0.88369   0.00000  Uiso   1.00
H700   H     0.92195   0.52877   0.60577   0.00000  Uiso   1.00
H701   H     0.74471   0.47123   0.89423   0.00000  Uiso   1.00
H702   H     0.97290   0.54511   0.53285   0.00000  Uiso   1.00
H703   H     0.69377   0.45489   0.96715   0.00000  Uiso   1.00
H704   H     0.97356   0.54392   0.95091   0.00000  Uiso   1.00
H705   H     0.69311   0.45608   0.54909   0.00000  Uiso   1.00
H706   H     0.90049   0.33629   0.74461   0.00000  Uiso   1.00
N707   N     0.98344   0.48598   0.73783   0.00000  Uiso   1.00
N708   N     0.68322   0.51402   0.76217   0.00000  Uiso   1.00
O709   O     0.79642   0.57952   0.75299   0.00000  Uiso   1.00
O710   O     0.98984   0.54786   0.79046   0.00000  Uiso   1.00
O711   O     0.87025   0.42048   0.74702   0.00000  Uiso   1.00
O712   O     0.89280   0.57054   0.74519   0.00000  Uiso   1.00
O713   O     0.77387   0.42946   0.75482   0.00000  Uiso   1.00
O714   O     0.78514   0.50450   0.81998   0.00000  Uiso   1.00
O715   O     0.88153   0.49550   0.68003   0.00000  Uiso   1.00
O716   O     0.88152   0.49552   0.81218   0.00000  Uiso   1.00
O717   O     0.78515   0.50448   0.68783   0.00000  Uiso   1.00
O718   O     0.67683   0.45214   0.70954   0.00000  Uiso   1.00
Zn719  Zn    0.76898   0.50600   0.75521   0.00000  Uiso   1.00
Zn720  Zn    0.89769   0.49400   0.74479   0.00000  Uiso   1.00
C721   C     0.18187   0.93154   0.74886   0.00000  Uiso   1.00
C722   C     0.21771   0.84796   0.90421   0.00000  Uiso   1.00
C723   C     0.16607   0.83414   0.61561   0.00000  Uiso   1.00
C724   C     0.16727   0.83252   0.88439   0.00000  Uiso   1.00
C725   C     0.21658   0.84973   0.58982   0.00000  Uiso   1.00
C726   C     0.11676   0.81694   0.91018   0.00000  Uiso   1.00
C727   C     0.21712   0.84981   0.54356   0.00000  Uiso   1.00
C728   C     0.11621   0.81686   0.95644   0.00000  Uiso   1.00
C729   C     0.16650   0.83363   0.52327   0.00000  Uiso   1.00
C730   C     0.16684   0.83304   0.97673   0.00000  Uiso   1.00
C731   C     0.11554   0.81800   0.54952   0.00000  Uiso   1.00
C732   C     0.15146   0.73513   0.75114   0.00000  Uiso   1.00
C733   C     0.21779   0.84867   0.95048   0.00000  Uiso   1.00
C734   C     0.26736   0.86566   0.51738   0.00000  Uiso   1.00
C735   C     0.06598   0.80101   0.98262   0.00000  Uiso   1.00
C736   C     0.26772   0.86503   0.97088   0.00000  Uiso   1.00
C737   C     0.06562   0.80164   0.52912   0.00000  Uiso   1.00
C738   C     0.18990   0.98603   0.74816   0.00000  Uiso   1.00
C739   C     0.14343   0.68064   0.75184   0.00000  Uiso   1.00
C740   C     0.16693   0.83317   0.83656   0.00000  Uiso   1.00
C741   C     0.16640   0.83349   0.66344   0.00000  Uiso   1.00
C742   C     0.11562   0.81870   0.59579   0.00000  Uiso   1.00
H743   H     0.07686   0.80640   0.61631   0.00000  Uiso   1.00
H744   H     0.09951   0.99704   0.75539   0.00000  Uiso   1.00
H745   H     0.31229   0.76712   0.69375   0.00000  Uiso   1.00
H746   H     0.02104   0.89955   0.80625   0.00000  Uiso   1.00
H747   H     0.25647   0.86027   0.88369   0.00000  Uiso   1.00
H748   H     0.25529   0.86210   0.60577   0.00000  Uiso   1.00
H749   H     0.07805   0.80457   0.89423   0.00000  Uiso   1.00
H750   H     0.30623   0.87844   0.53285   0.00000  Uiso   1.00
H751   H     0.02711   0.78822   0.96715   0.00000  Uiso   1.00
H752   H     0.30689   0.87726   0.95091   0.00000  Uiso   1.00
H753   H     0.02644   0.78941   0.54909   0.00000  Uiso   1.00
H754   H     0.23382   0.66962   0.74461   0.00000  Uiso   1.00
N755   N     0.31678   0.81932   0.73783   0.00000  Uiso   1.00
N756   N     0.01656   0.84735   0.76217   0.00000  Uiso   1.00
O757   O     0.12975   0.91286   0.75299   0.00000  Uiso   1.00
O758   O     0.32318   0.88119   0.79046   0.00000  Uiso   1.00
O759   O     0.20358   0.75381   0.74702   0.00000  Uiso   1.00
O760   O     0.22613   0.90387   0.74519   0.00000  Uiso   1.00
O761   O     0.10720   0.76279   0.75482   0.00000  Uiso   1.00
O762   O     0.11847   0.83784   0.81998   0.00000  Uiso   1.00
O763   O     0.21486   0.82883   0.68003   0.00000  Uiso   1.00
O764   O     0.21485   0.82885   0.81218   0.00000  Uiso   1.00
O765   O     0.11848   0.83781   0.68783   0.00000  Uiso   1.00
O766   O     0.01016   0.78548   0.70954   0.00000  Uiso   1.00
Zn767  Zn    0.10231   0.83933   0.75521   0.00000  Uiso   1.00
Zn768  Zn    0.23102   0.82734   0.74479   0.00000  Uiso   1.00
C769   C     0.51521   0.93154   0.74886   0.00000  Uiso   1.00
C770   C     0.55104   0.84796   0.90421   0.00000  Uiso   1.00
C771   C     0.49940   0.83414   0.61561   0.00000  Uiso   1.00
C772   C     0.50060   0.83252   0.88439   0.00000  Uiso   1.00
C773   C     0.54991   0.84973   0.58982   0.00000  Uiso   1.00
C774   C     0.45009   0.81694   0.91018   0.00000  Uiso   1.00
C775   C     0.55046   0.84981   0.54356   0.00000  Uiso   1.00
C776   C     0.44954   0.81686   0.95644   0.00000  Uiso   1.00
C777   C     0.49983   0.83363   0.52327   0.00000  Uiso   1.00
C778   C     0.50017   0.83304   0.97673   0.00000  Uiso   1.00
C779   C     0.44888   0.81800   0.54952   0.00000  Uiso   1.00
C780   C     0.48479   0.73513   0.75114   0.00000  Uiso   1.00
C781   C     0.55112   0.84867   0.95048   0.00000  Uiso   1.00
C782   C     0.60069   0.86566   0.51738   0.00000  Uiso   1.00
C783   C     0.39931   0.80101   0.98262   0.00000  Uiso   1.00
C784   C     0.60105   0.86503   0.97088   0.00000  Uiso   1.00
C785   C     0.39895   0.80164   0.52912   0.00000  Uiso   1.00
C786   C     0.52323   0.98603   0.74816   0.00000  Uiso   1.00
C787   C     0.47677   0.68064   0.75184   0.00000  Uiso   1.00
C788   C     0.50026   0.83317   0.83656   0.00000  Uiso   1.00
C789   C     0.49974   0.83349   0.66344   0.00000  Uiso   1.00
C790   C     0.44896   0.81870   0.59579   0.00000  Uiso   1.00
H791   H     0.41020   0.80640   0.61631   0.00000  Uiso   1.00
H792   H     0.43284   0.99704   0.75539   0.00000  Uiso   1.00
H793   H     0.64563   0.76712   0.69375   0.00000  Uiso   1.00
H794   H     0.35437   0.89955   0.80625   0.00000  Uiso   1.00
H795   H     0.58980   0.86027   0.88369   0.00000  Uiso   1.00
H796   H     0.58862   0.86210   0.60577   0.00000  Uiso   1.00
H797   H     0.41138   0.80457   0.89423   0.00000  Uiso   1.00
H798   H     0.63956   0.87844   0.53285   0.00000  Uiso   1.00
H799   H     0.36044   0.78822   0.96715   0.00000  Uiso   1.00
H800   H     0.64022   0.87726   0.95091   0.00000  Uiso   1.00
H801   H     0.35978   0.78941   0.54909   0.00000  Uiso   1.00
H802   H     0.56716   0.66962   0.74461   0.00000  Uiso   1.00
N803   N     0.65011   0.81932   0.73783   0.00000  Uiso   1.00
N804   N     0.34989   0.84735   0.76217   0.00000  Uiso   1.00
O805   O     0.46308   0.91286   0.75299   0.00000  Uiso   1.00
O806   O     0.65651   0.88119   0.79046   0.00000  Uiso   1.00
O807   O     0.53692   0.75381   0.74702   0.00000  Uiso   1.00
O808   O     0.55946   0.90387   0.74519   0.00000  Uiso   1.00
O809   O     0.44054   0.76279   0.75482   0.00000  Uiso   1.00
O810   O     0.45181   0.83784   0.81998   0.00000  Uiso   1.00
O811   O     0.54819   0.82883   0.68003   0.00000  Uiso   1.00
O812   O     0.54819   0.82885   0.81218   0.00000  Uiso   1.00
O813   O     0.45181   0.83781   0.68783   0.00000  Uiso   1.00
O814   O     0.34349   0.78548   0.70954   0.00000  Uiso   1.00
Zn815  Zn    0.43565   0.83933   0.75521   0.00000  Uiso   1.00
Zn816  Zn    0.56435   0.82734   0.74479   0.00000  Uiso   1.00
C817   C     0.84854   0.93154   0.74886   0.00000  Uiso   1.00
C818   C     0.88438   0.84796   0.90421   0.00000  Uiso   1.00
C819   C     0.83273   0.83414   0.61561   0.00000  Uiso   1.00
C820   C     0.83393   0.83252   0.88439   0.00000  Uiso   1.00
C821   C     0.88324   0.84973   0.58982   0.00000  Uiso   1.00
C822   C     0.78342   0.81694   0.91018   0.00000  Uiso   1.00
C823   C     0.88379   0.84981   0.54356   0.00000  Uiso   1.00
C824   C     0.78288   0.81686   0.95644   0.00000  Uiso   1.00
C825   C     0.83316   0.83363   0.52327   0.00000  Uiso   1.00
C826   C     0.83350   0.83304   0.97673   0.00000  Uiso   1.00
C827   C     0.78221   0.81800   0.54952   0.00000  Uiso   1.00
C828   C     0.81813   0.73513   0.75114   0.00000  Uiso   1.00
C829   C     0.88446   0.84867   0.95048   0.00000  Uiso   1.00
C830   C     0.93402   0.86566   0.51738   0.00000  Uiso   1.00
C831   C     0.73264   0.80101   0.98262   0.00000  Uiso   1.00
C832   C     0.93438   0.86503   0.97088   0.00000  Uiso   1.00
C833   C     0.73228   0.80164   0.52912   0.00000  Uiso   1.00
C834   C     0.85657   0.98603   0.74816   0.00000  Uiso   1.00
C835   C     0.81010   0.68064   0.75184   0.00000  Uiso   1.00
C836   C     0.83360   0.83317   0.83656   0.00000  Uiso   1.00
C837   C     0.83307   0.83349   0.66344   0.00000  Uiso   1.00
C838   C     0.78229   0.81870   0.59579   0.00000  Uiso   1.00
H839   H     0.74353   0.80640   0.61631   0.00000  Uiso   1.00
H840   H     0.76618   0.99704   0.75539   0.00000  Uiso   1.00
H841   H     0.97896   0.76712   0.69375   0.00000  Uiso   1.00
H842   H     0.68771   0.89955   0.80625   0.00000  Uiso   1.00
H843   H     0.92314   0.86027   0.88369   0.00000  Uiso   1.00
H844   H     0.92195   0.86210   0.60577   0.00000  Uiso   1.00
H845   H     0.74471   0.80457   0.89423   0.00000  Uiso   1.00
H846   H     0.97290   0.87844   0.53285   0.00000  Uiso   1.00
H847   H     0.69377   0.78822   0.96715   0.00000  Uiso   1.00
H848   H     0.97356   0.87726   0.95091   0.00000  Uiso   1.00
H849   H     0.69311   0.78941   0.54909   0.00000  Uiso   1.00
H850   H     0.90049   0.66962   0.74461   0.00000  Uiso   1.00
N851   N     0.98344   0.81932   0.73783   0.00000  Uiso   1.00
N852   N     0.68322   0.84735   0.76217   0.00000  Uiso   1.00
O853   O     0.79642   0.91286   0.75299   0.00000  Uiso   1.00
O854   O     0.98984   0.88119   0.79046   0.00000  Uiso   1.00
O855   O     0.87025   0.75381   0.74702   0.00000  Uiso   1.00
O856   O     0.89280   0.90387   0.74519   0.00000  Uiso   1.00
O857   O     0.77387   0.76279   0.75482   0.00000  Uiso   1.00
O858   O     0.78514   0.83784   0.81998   0.00000  Uiso   1.00
O859   O     0.88153   0.82883   0.68003   0.00000  Uiso   1.00
O860   O     0.88152   0.82885   0.81218   0.00000  Uiso   1.00
O861   O     0.78515   0.83781   0.68783   0.00000  Uiso   1.00
O862   O     0.67683   0.78548   0.70954   0.00000  Uiso   1.00
Zn863  Zn    0.76898   0.83933   0.75521   0.00000  Uiso   1.00
Zn864  Zn    0.89769   0.82734   0.74479   0.00000  Uiso   1.00
loop_
_geom_bond_atom_site_label_1
_geom_bond_atom_site_label_2
_geom_bond_distance
_geom_bond_site_symmetry_2
_ccdc_geom_bond_type
C1     O37     1.279   .     A
C1     C18     1.401   .     S
C1     O40     1.287   .     A
C2     C4      1.396   .     A
C2     H27     1.085   .     S
C2     C13     1.383   .     A
C3     C21     1.431   .     S
C3     C22     1.396   .     A
C3     C5      1.397   .     A
C4     C6      1.397   .     A
C4     C20     1.431   .     S
C5     H28     1.085   .     S
C5     C7      1.382   .     A
C6     H29     1.085   .     S
C6     C8      1.382   .     A
C7     C9      1.411   .     A
C7     C14     1.400   .     A
C8     C15     1.400   .     A
C8     C10     1.411   .     A
C9     C11     1.412   .     A
C9     C442    1.390   1_554 S
C10    C13     1.412   .     A
C10    C441    1.390   .     S
C11    C22     1.383   .     A
C11    C17     1.399   .     A
C12    O39     1.279   .     A
C12    O41     1.287   .     A
C12    C19     1.401   .     S
C13    C16     1.399   .     A
C14    H30     1.084   .     S
C14    C448    1.389   1_554 S
C15    H31     1.084   .     S
C15    C449    1.389   .     S
C16    H32     1.084   .     S
C16    C446    1.389   .     S
C17    H33     1.084   .     S
C17    C447    1.389   1_554 S
C18    C163    1.334   .     S
C18    H178    1.088   .     S
C19    C306    1.334   1_545 S
C19    H312    1.088   1_545 S
C20    O42     1.290   .     A
C20    O44     1.291   .     A
C21    O43     1.290   .     A
C21    O45     1.291   .     A
C22    H23     1.085   .     S
H24    C163    1.088   .     S
H25    O94     0.990   .     S
H26    O134    0.990   1_455 S
H34    C306    1.088   1_545 S
N35    Zn48    2.021   .     S
N35    N84     1.282   .     S
N35    O94     1.338   .     S
N36    Zn47    2.021   .     S
N36    N131    1.282   1_455 S
N36    O134    1.338   1_455 S
O37    Zn47    1.957   .     S
O38    H74     0.990   .     S
O38    N84     1.338   .     S
O39    Zn48    1.957   .     S
O40    Zn48    1.976   .     S
O41    Zn47    1.976   .     S
O42    Zn47    2.007   .     S
O43    Zn48    2.007   .     S
O44    Zn48    2.017   .     S
O45    Zn47    2.017   .     S
O46    N131    1.338   1_455 S
O46    H121    0.990   1_455 S
C49    O85     1.279   .     A
C49    C66     1.401   .     S
C49    O88     1.287   .     A
C50    C52     1.396   .     A
C50    H75     1.085   .     S
C50    C61     1.383   .     A
C51    C69     1.431   .     S
C51    C70     1.396   .     A
C51    C53     1.397   .     A
C52    C54     1.397   .     A
C52    C68     1.431   .     S
C53    H76     1.085   .     S
C53    C55     1.382   .     A
C54    H77     1.085   .     S
C54    C56     1.382   .     A
C55    C57     1.411   .     A
C55    C62     1.400   .     A
C56    C63     1.400   .     A
C56    C58     1.411   .     A
C57    C59     1.412   .     A
C57    C490    1.390   1_554 S
C58    C61     1.412   .     A
C58    C489    1.390   .     S
C59    C70     1.383   .     A
C59    C65     1.399   .     A
C60    O87     1.279   .     A
C60    O89     1.287   .     A
C60    C67     1.401   .     S
C61    C64     1.399   .     A
C62    H78     1.084   .     S
C62    C496    1.389   1_554 S
C63    H79     1.084   .     S
C63    C497    1.389   .     S
C64    H80     1.084   .     S
C64    C494    1.389   .     S
C65    H81     1.084   .     S
C65    C495    1.389   1_554 S
C66    C211    1.334   .     S
C66    H226    1.088   .     S
C67    C354    1.334   1_545 S
C67    H360    1.088   1_545 S
C68    O90     1.290   .     A
C68    O92     1.291   .     A
C69    O91     1.290   .     A
C69    O93     1.291   .     A
C70    H71     1.085   .     S
H72    C211    1.088   .     S
H73    O142    0.990   .     S
H82    C354    1.088   1_545 S
N83    Zn96    2.021   .     S
N83    N132    1.282   .     S
N83    O142    1.338   .     S
N84    Zn95    2.021   .     S
O85    Zn95    1.957   .     S
O86    H122    0.990   .     S
O86    N132    1.338   .     S
O87    Zn96    1.957   .     S
O88    Zn96    1.976   .     S
O89    Zn95    1.976   .     S
O90    Zn95    2.007   .     S
O91    Zn96    2.007   .     S
O92    Zn96    2.017   .     S
O93    Zn95    2.017   .     S
C97    O133    1.279   .     A
C97    C114    1.401   .     S
C97    O136    1.287   .     A
C98    C100    1.396   .     A
C98    H123    1.085   .     S
C98    C109    1.383   .     A
C99    C117    1.431   .     S
C99    C118    1.396   .     A
C99    C101    1.397   .     A
C100   C102    1.397   .     A
C100   C116    1.431   .     S
C101   H124    1.085   .     S
C101   C103    1.382   .     A
C102   H125    1.085   .     S
C102   C104    1.382   .     A
C103   C105    1.411   .     A
C103   C110    1.400   .     A
C104   C111    1.400   .     A
C104   C106    1.411   .     A
C105   C107    1.412   .     A
C105   C538    1.390   1_554 S
C106   C109    1.412   .     A
C106   C537    1.390   .     S
C107   C118    1.383   .     A
C107   C113    1.399   .     A
C108   O135    1.279   .     A
C108   O137    1.287   .     A
C108   C115    1.401   .     S
C109   C112    1.399   .     A
C110   H126    1.084   .     S
C110   C544    1.389   1_554 S
C111   H127    1.084   .     S
C111   C545    1.389   .     S
C112   H128    1.084   .     S
C112   C542    1.389   .     S
C113   H129    1.084   .     S
C113   C543    1.389   1_554 S
C114   C259    1.334   .     S
C114   H274    1.088   .     S
C115   C402    1.334   1_545 S
C115   H408    1.088   1_545 S
C116   O138    1.290   .     A
C116   O140    1.291   .     A
C117   O139    1.290   .     A
C117   O141    1.291   .     A
C118   H119    1.085   .     S
H120   C259    1.088   .     S
H121   O46     0.990   1_655 S
H130   C402    1.088   1_545 S
N131   Zn144   2.021   .     S
N131   N36     1.282   1_655 S
N131   O46     1.338   1_655 S
N132   Zn143   2.021   .     S
O133   Zn143   1.957   .     S
O134   H26     0.990   1_655 S
O134   N36     1.338   1_655 S
O135   Zn144   1.957   .     S
O136   Zn144   1.976   .     S
O137   Zn143   1.976   .     S
O138   Zn143   2.007   .     S
O139   Zn144   2.007   .     S
O140   Zn144   2.017   .     S
O141   Zn143   2.017   .     S
C145   O181    1.279   .     A
C145   C162    1.401   .     S
C145   O184    1.287   .     A
C146   C148    1.396   .     A
C146   H171    1.085   .     S
C146   C157    1.383   .     A
C147   C165    1.431   .     S
C147   C166    1.396   .     A
C147   C149    1.397   .     A
C148   C150    1.397   .     A
C148   C164    1.431   .     S
C149   H172    1.085   .     S
C149   C151    1.382   .     A
C150   H173    1.085   .     S
C150   C152    1.382   .     A
C151   C153    1.411   .     A
C151   C158    1.400   .     A
C152   C159    1.400   .     A
C152   C154    1.411   .     A
C153   C155    1.412   .     A
C153   C586    1.390   1_554 S
C154   C157    1.412   .     A
C154   C585    1.390   .     S
C155   C166    1.383   .     A
C155   C161    1.399   .     A
C156   O183    1.279   .     A
C156   O185    1.287   .     A
C156   C163    1.401   .     S
C157   C160    1.399   .     A
C158   H174    1.084   .     S
C158   C592    1.389   1_554 S
C159   H175    1.084   .     S
C159   C593    1.389   .     S
C160   H176    1.084   .     S
C160   C590    1.389   .     S
C161   H177    1.084   .     S
C161   C591    1.389   1_554 S
C162   C307    1.334   .     S
C162   H322    1.088   .     S
C164   O186    1.290   .     A
C164   O188    1.291   .     A
C165   O187    1.290   .     A
C165   O189    1.291   .     A
C166   H167    1.085   .     S
H168   C307    1.088   .     S
H169   O238    0.990   .     S
H170   O278    0.990   1_455 S
N179   Zn192   2.021   .     S
N179   N228    1.282   .     S
N179   O238    1.338   .     S
N180   Zn191   2.021   .     S
N180   N275    1.282   1_455 S
N180   O278    1.338   1_455 S
O181   Zn191   1.957   .     S
O182   H218    0.990   .     S
O182   N228    1.338   .     S
O183   Zn192   1.957   .     S
O184   Zn192   1.976   .     S
O185   Zn191   1.976   .     S
O186   Zn191   2.007   .     S
O187   Zn192   2.007   .     S
O188   Zn192   2.017   .     S
O189   Zn191   2.017   .     S
O190   N275    1.338   1_455 S
O190   H265    0.990   1_455 S
C193   O229    1.279   .     A
C193   C210    1.401   .     S
C193   O232    1.287   .     A
C194   C196    1.396   .     A
C194   H219    1.085   .     S
C194   C205    1.383   .     A
C195   C213    1.431   .     S
C195   C214    1.396   .     A
C195   C197    1.397   .     A
C196   C198    1.397   .     A
C196   C212    1.431   .     S
C197   H220    1.085   .     S
C197   C199    1.382   .     A
C198   H221    1.085   .     S
C198   C200    1.382   .     A
C199   C201    1.411   .     A
C199   C206    1.400   .     A
C200   C207    1.400   .     A
C200   C202    1.411   .     A
C201   C203    1.412   .     A
C201   C634    1.390   1_554 S
C202   C205    1.412   .     A
C202   C633    1.390   .     S
C203   C214    1.383   .     A
C203   C209    1.399   .     A
C204   O231    1.279   .     A
C204   O233    1.287   .     A
C204   C211    1.401   .     S
C205   C208    1.399   .     A
C206   H222    1.084   .     S
C206   C640    1.389   1_554 S
C207   H223    1.084   .     S
C207   C641    1.389   .     S
C208   H224    1.084   .     S
C208   C638    1.389   .     S
C209   H225    1.084   .     S
C209   C639    1.389   1_554 S
C210   C355    1.334   .     S
C210   H370    1.088   .     S
C212   O234    1.290   .     A
C212   O236    1.291   .     A
C213   O235    1.290   .     A
C213   O237    1.291   .     A
C214   H215    1.085   .     S
H216   C355    1.088   .     S
H217   O286    0.990   .     S
N227   Zn240   2.021   .     S
N227   N276    1.282   .     S
N227   O286    1.338   .     S
N228   Zn239   2.021   .     S
O229   Zn239   1.957   .     S
O230   H266    0.990   .     S
O230   N276    1.338   .     S
O231   Zn240   1.957   .     S
O232   Zn240   1.976   .     S
O233   Zn239   1.976   .     S
O234   Zn239   2.007   .     S
O235   Zn240   2.007   .     S
O236   Zn240   2.017   .     S
O237   Zn239   2.017   .     S
C241   O277    1.279   .     A
C241   C258    1.401   .     S
C241   O280    1.287   .     A
C242   C244    1.396   .     A
C242   H267    1.085   .     S
C242   C253    1.383   .     A
C243   C261    1.431   .     S
C243   C262    1.396   .     A
C243   C245    1.397   .     A
C244   C246    1.397   .     A
C244   C260    1.431   .     S
C245   H268    1.085   .     S
C245   C247    1.382   .     A
C246   H269    1.085   .     S
C246   C248    1.382   .     A
C247   C249    1.411   .     A
C247   C254    1.400   .     A
C248   C255    1.400   .     A
C248   C250    1.411   .     A
C249   C251    1.412   .     A
C249   C682    1.390   1_554 S
C250   C253    1.412   .     A
C250   C681    1.390   .     S
C251   C262    1.383   .     A
C251   C257    1.399   .     A
C252   O279    1.279   .     A
C252   O281    1.287   .     A
C252   C259    1.401   .     S
C253   C256    1.399   .     A
C254   H270    1.084   .     S
C254   C688    1.389   1_554 S
C255   H271    1.084   .     S
C255   C689    1.389   .     S
C256   H272    1.084   .     S
C256   C686    1.389   .     S
C257   H273    1.084   .     S
C257   C687    1.389   1_554 S
C258   C403    1.334   .     S
C258   H418    1.088   .     S
C260   O282    1.290   .     A
C260   O284    1.291   .     A
C261   O283    1.290   .     A
C261   O285    1.291   .     A
C262   H263    1.085   .     S
H264   C403    1.088   .     S
H265   O190    0.990   1_655 S
N275   Zn288   2.021   .     S
N275   N180    1.282   1_655 S
N275   O190    1.338   1_655 S
N276   Zn287   2.021   .     S
O277   Zn287   1.957   .     S
O278   H170    0.990   1_655 S
O278   N180    1.338   1_655 S
O279   Zn288   1.957   .     S
O280   Zn288   1.976   .     S
O281   Zn287   1.976   .     S
O282   Zn287   2.007   .     S
O283   Zn288   2.007   .     S
O284   Zn288   2.017   .     S
O285   Zn287   2.017   .     S
C289   O325    1.279   .     A
C289   C306    1.401   .     S
C289   O328    1.287   .     A
C290   C292    1.396   .     A
C290   H315    1.085   .     S
C290   C301    1.383   .     A
C291   C309    1.431   .     S
C291   C310    1.396   .     A
C291   C293    1.397   .     A
C292   C294    1.397   .     A
C292   C308    1.431   .     S
C293   H316    1.085   .     S
C293   C295    1.382   .     A
C294   H317    1.085   .     S
C294   C296    1.382   .     A
C295   C297    1.411   .     A
C295   C302    1.400   .     A
C296   C303    1.400   .     A
C296   C298    1.411   .     A
C297   C299    1.412   .     A
C297   C730    1.390   1_554 S
C298   C301    1.412   .     A
C298   C729    1.390   .     S
C299   C310    1.383   .     A
C299   C305    1.399   .     A
C300   O327    1.279   .     A
C300   O329    1.287   .     A
C300   C307    1.401   .     S
C301   C304    1.399   .     A
C302   H318    1.084   .     S
C302   C736    1.389   1_554 S
C303   H319    1.084   .     S
C303   C737    1.389   .     S
C304   H320    1.084   .     S
C304   C734    1.389   .     S
C305   H321    1.084   .     S
C305   C735    1.389   1_554 S
C306   C19     1.334   1_565 S
C306   H34     1.088   1_565 S
C308   O330    1.290   .     A
C308   O332    1.291   .     A
C309   O331    1.290   .     A
C309   O333    1.291   .     A
C310   H311    1.085   .     S
H312   C19     1.088   1_565 S
H313   O382    0.990   .     S
H314   O422    0.990   1_455 S
N323   Zn336   2.021   .     S
N323   N372    1.282   .     S
N323   O382    1.338   .     S
N324   Zn335   2.021   .     S
N324   N419    1.282   1_455 S
N324   O422    1.338   1_455 S
O325   Zn335   1.957   .     S
O326   H362    0.990   .     S
O326   N372    1.338   .     S
O327   Zn336   1.957   .     S
O328   Zn336   1.976   .     S
O329   Zn335   1.976   .     S
O330   Zn335   2.007   .     S
O331   Zn336   2.007   .     S
O332   Zn336   2.017   .     S
O333   Zn335   2.017   .     S
O334   N419    1.338   1_455 S
O334   H409    0.990   1_455 S
C337   O373    1.279   .     A
C337   C354    1.401   .     S
C337   O376    1.287   .     A
C338   C340    1.396   .     A
C338   H363    1.085   .     S
C338   C349    1.383   .     A
C339   C357    1.431   .     S
C339   C358    1.396   .     A
C339   C341    1.397   .     A
C340   C342    1.397   .     A
C340   C356    1.431   .     S
C341   H364    1.085   .     S
C341   C343    1.382   .     A
C342   H365    1.085   .     S
C342   C344    1.382   .     A
C343   C345    1.411   .     A
C343   C350    1.400   .     A
C344   C351    1.400   .     A
C344   C346    1.411   .     A
C345   C347    1.412   .     A
C345   C778    1.390   1_554 S
C346   C349    1.412   .     A
C346   C777    1.390   .     S
C347   C358    1.383   .     A
C347   C353    1.399   .     A
C348   O375    1.279   .     A
C348   O377    1.287   .     A
C348   C355    1.401   .     S
C349   C352    1.399   .     A
C350   H366    1.084   .     S
C350   C784    1.389   1_554 S
C351   H367    1.084   .     S
C351   C785    1.389   .     S
C352   H368    1.084   .     S
C352   C782    1.389   .     S
C353   H369    1.084   .     S
C353   C783    1.389   1_554 S
C354   C67     1.334   1_565 S
C354   H82     1.088   1_565 S
C356   O378    1.290   .     A
C356   O380    1.291   .     A
C357   O379    1.290   .     A
C357   O381    1.291   .     A
C358   H359    1.085   .     S
H360   C67     1.088   1_565 S
H361   O430    0.990   .     S
N371   Zn384   2.021   .     S
N371   N420    1.282   .     S
N371   O430    1.338   .     S
N372   Zn383   2.021   .     S
O373   Zn383   1.957   .     S
O374   H410    0.990   .     S
O374   N420    1.338   .     S
O375   Zn384   1.957   .     S
O376   Zn384   1.976   .     S
O377   Zn383   1.976   .     S
O378   Zn383   2.007   .     S
O379   Zn384   2.007   .     S
O380   Zn384   2.017   .     S
O381   Zn383   2.017   .     S
C385   O421    1.279   .     A
C385   C402    1.401   .     S
C385   O424    1.287   .     A
C386   C388    1.396   .     A
C386   H411    1.085   .     S
C386   C397    1.383   .     A
C387   C405    1.431   .     S
C387   C406    1.396   .     A
C387   C389    1.397   .     A
C388   C390    1.397   .     A
C388   C404    1.431   .     S
C389   H412    1.085   .     S
C389   C391    1.382   .     A
C390   H413    1.085   .     S
C390   C392    1.382   .     A
C391   C393    1.411   .     A
C391   C398    1.400   .     A
C392   C399    1.400   .     A
C392   C394    1.411   .     A
C393   C395    1.412   .     A
C393   C826    1.390   1_554 S
C394   C397    1.412   .     A
C394   C825    1.390   .     S
C395   C406    1.383   .     A
C395   C401    1.399   .     A
C396   O423    1.279   .     A
C396   O425    1.287   .     A
C396   C403    1.401   .     S
C397   C400    1.399   .     A
C398   H414    1.084   .     S
C398   C832    1.389   1_554 S
C399   H415    1.084   .     S
C399   C833    1.389   .     S
C400   H416    1.084   .     S
C400   C830    1.389   .     S
C401   H417    1.084   .     S
C401   C831    1.389   1_554 S
C402   C115    1.334   1_565 S
C402   H130    1.088   1_565 S
C404   O426    1.290   .     A
C404   O428    1.291   .     A
C405   O427    1.290   .     A
C405   O429    1.291   .     A
C406   H407    1.085   .     S
H408   C115    1.088   1_565 S
H409   O334    0.990   1_655 S
N419   Zn432   2.021   .     S
N419   N324    1.282   1_655 S
N419   O334    1.338   1_655 S
N420   Zn431   2.021   .     S
O421   Zn431   1.957   .     S
O422   H314    0.990   1_655 S
O422   N324    1.338   1_655 S
O423   Zn432   1.957   .     S
O424   Zn432   1.976   .     S
O425   Zn431   1.976   .     S
O426   Zn431   2.007   .     S
O427   Zn432   2.007   .     S
O428   Zn432   2.017   .     S
O429   Zn431   2.017   .     S
C433   O469    1.279   .     A
C433   C450    1.401   .     S
C433   O472    1.287   .     A
C434   C436    1.396   .     A
C434   H459    1.085   .     S
C434   C445    1.383   .     A
C435   C453    1.431   .     S
C435   C454    1.396   .     A
C435   C437    1.397   .     A
C436   C438    1.397   .     A
C436   C452    1.431   .     S
C437   H460    1.085   .     S
C437   C439    1.382   .     A
C438   H461    1.085   .     S
C438   C440    1.382   .     A
C439   C441    1.411   .     A
C439   C446    1.400   .     A
C440   C447    1.400   .     A
C440   C442    1.411   .     A
C441   C443    1.412   .     A
C442   C445    1.412   .     A
C442   C9      1.390   1_556 S
C443   C454    1.383   .     A
C443   C449    1.399   .     A
C444   O471    1.279   .     A
C444   O473    1.287   .     A
C444   C451    1.401   .     S
C445   C448    1.399   .     A
C446   H462    1.084   .     S
C447   H463    1.084   .     S
C447   C17     1.389   1_556 S
C448   H464    1.084   .     S
C448   C14     1.389   1_556 S
C449   H465    1.084   .     S
C450   C595    1.334   .     S
C450   H610    1.088   .     S
C451   C738    1.334   1_545 S
C451   H744    1.088   1_545 S
C452   O474    1.290   .     A
C452   O476    1.291   .     A
C453   O475    1.290   .     A
C453   O477    1.291   .     A
C454   H455    1.085   .     S
H456   C595    1.088   .     S
H457   O526    0.990   .     S
H458   O566    0.990   1_455 S
H466   C738    1.088   1_545 S
N467   Zn480   2.021   .     S
N467   N516    1.282   .     S
N467   O526    1.338   .     S
N468   Zn479   2.021   .     S
N468   N563    1.282   1_455 S
N468   O566    1.338   1_455 S
O469   Zn479   1.957   .     S
O470   H506    0.990   .     S
O470   N516    1.338   .     S
O471   Zn480   1.957   .     S
O472   Zn480   1.976   .     S
O473   Zn479   1.976   .     S
O474   Zn479   2.007   .     S
O475   Zn480   2.007   .     S
O476   Zn480   2.017   .     S
O477   Zn479   2.017   .     S
O478   N563    1.338   1_455 S
O478   H553    0.990   1_455 S
C481   O517    1.279   .     A
C481   C498    1.401   .     S
C481   O520    1.287   .     A
C482   C484    1.396   .     A
C482   H507    1.085   .     S
C482   C493    1.383   .     A
C483   C501    1.431   .     S
C483   C502    1.396   .     A
C483   C485    1.397   .     A
C484   C486    1.397   .     A
C484   C500    1.431   .     S
C485   H508    1.085   .     S
C485   C487    1.382   .     A
C486   H509    1.085   .     S
C486   C488    1.382   .     A
C487   C489    1.411   .     A
C487   C494    1.400   .     A
C488   C495    1.400   .     A
C488   C490    1.411   .     A
C489   C491    1.412   .     A
C490   C493    1.412   .     A
C490   C57     1.390   1_556 S
C491   C502    1.383   .     A
C491   C497    1.399   .     A
C492   O519    1.279   .     A
C492   O521    1.287   .     A
C492   C499    1.401   .     S
C493   C496    1.399   .     A
C494   H510    1.084   .     S
C495   H511    1.084   .     S
C495   C65     1.389   1_556 S
C496   H512    1.084   .     S
C496   C62     1.389   1_556 S
C497   H513    1.084   .     S
C498   C643    1.334   .     S
C498   H658    1.088   .     S
C499   C786    1.334   1_545 S
C499   H792    1.088   1_545 S
C500   O522    1.290   .     A
C500   O524    1.291   .     A
C501   O523    1.290   .     A
C501   O525    1.291   .     A
C502   H503    1.085   .     S
H504   C643    1.088   .     S
H505   O574    0.990   .     S
H514   C786    1.088   1_545 S
N515   Zn528   2.021   .     S
N515   N564    1.282   .     S
N515   O574    1.338   .     S
N516   Zn527   2.021   .     S
O517   Zn527   1.957   .     S
O518   H554    0.990   .     S
O518   N564    1.338   .     S
O519   Zn528   1.957   .     S
O520   Zn528   1.976   .     S
O521   Zn527   1.976   .     S
O522   Zn527   2.007   .     S
O523   Zn528   2.007   .     S
O524   Zn528   2.017   .     S
O525   Zn527   2.017   .     S
C529   O565    1.279   .     A
C529   C546    1.401   .     S
C529   O568    1.287   .     A
C530   C532    1.396   .     A
C530   H555    1.085   .     S
C530   C541    1.383   .     A
C531   C549    1.431   .     S
C531   C550    1.396   .     A
C531   C533    1.397   .     A
C532   C534    1.397   .     A
C532   C548    1.431   .     S
C533   H556    1.085   .     S
C533   C535    1.382   .     A
C534   H557    1.085   .     S
C534   C536    1.382   .     A
C535   C537    1.411   .     A
C535   C542    1.400   .     A
C536   C543    1.400   .     A
C536   C538    1.411   .     A
C537   C539    1.412   .     A
C538   C541    1.412   .     A
C538   C105    1.390   1_556 S
C539   C550    1.383   .     A
C539   C545    1.399   .     A
C540   O567    1.279   .     A
C540   O569    1.287   .     A
C540   C547    1.401   .     S
C541   C544    1.399   .     A
C542   H558    1.084   .     S
C543   H559    1.084   .     S
C543   C113    1.389   1_556 S
C544   H560    1.084   .     S
C544   C110    1.389   1_556 S
C545   H561    1.084   .     S
C546   C691    1.334   .     S
C546   H706    1.088   .     S
C547   C834    1.334   1_545 S
C547   H840    1.088   1_545 S
C548   O570    1.290   .     A
C548   O572    1.291   .     A
C549   O571    1.290   .     A
C549   O573    1.291   .     A
C550   H551    1.085   .     S
H552   C691    1.088   .     S
H553   O478    0.990   1_655 S
H562   C834    1.088   1_545 S
N563   Zn576   2.021   .     S
N563   N468    1.282   1_655 S
N563   O478    1.338   1_655 S
N564   Zn575   2.021   .     S
O565   Zn575   1.957   .     S
O566   H458    0.990   1_655 S
O566   N468    1.338   1_655 S
O567   Zn576   1.957   .     S
O568   Zn576   1.976   .     S
O569   Zn575   1.976   .     S
O570   Zn575   2.007   .     S
O571   Zn576   2.007   .     S
O572   Zn576   2.017   .     S
O573   Zn575   2.017   .     S
C577   O613    1.279   .     A
C577   C594    1.401   .     S
C577   O616    1.287   .     A
C578   C580    1.396   .     A
C578   H603    1.085   .     S
C578   C589    1.383   .     A
C579   C597    1.431   .     S
C579   C598    1.396   .     A
C579   C581    1.397   .     A
C580   C582    1.397   .     A
C580   C596    1.431   .     S
C581   H604    1.085   .     S
C581   C583    1.382   .     A
C582   H605    1.085   .     S
C582   C584    1.382   .     A
C583   C585    1.411   .     A
C583   C590    1.400   .     A
C584   C591    1.400   .     A
C584   C586    1.411   .     A
C585   C587    1.412   .     A
C586   C589    1.412   .     A
C586   C153    1.390   1_556 S
C587   C598    1.383   .     A
C587   C593    1.399   .     A
C588   O615    1.279   .     A
C588   O617    1.287   .     A
C588   C595    1.401   .     S
C589   C592    1.399   .     A
C590   H606    1.084   .     S
C591   H607    1.084   .     S
C591   C161    1.389   1_556 S
C592   H608    1.084   .     S
C592   C158    1.389   1_556 S
C593   H609    1.084   .     S
C594   C739    1.334   .     S
C594   H754    1.088   .     S
C596   O618    1.290   .     A
C596   O620    1.291   .     A
C597   O619    1.290   .     A
C597   O621    1.291   .     A
C598   H599    1.085   .     S
H600   C739    1.088   .     S
H601   O670    0.990   .     S
H602   O710    0.990   1_455 S
N611   Zn624   2.021   .     S
N611   N660    1.282   .     S
N611   O670    1.338   .     S
N612   Zn623   2.021   .     S
N612   N707    1.282   1_455 S
N612   O710    1.338   1_455 S
O613   Zn623   1.957   .     S
O614   H650    0.990   .     S
O614   N660    1.338   .     S
O615   Zn624   1.957   .     S
O616   Zn624   1.976   .     S
O617   Zn623   1.976   .     S
O618   Zn623   2.007   .     S
O619   Zn624   2.007   .     S
O620   Zn624   2.017   .     S
O621   Zn623   2.017   .     S
O622   N707    1.338   1_455 S
O622   H697    0.990   1_455 S
C625   O661    1.279   .     A
C625   C642    1.401   .     S
C625   O664    1.287   .     A
C626   C628    1.396   .     A
C626   H651    1.085   .     S
C626   C637    1.383   .     A
C627   C645    1.431   .     S
C627   C646    1.396   .     A
C627   C629    1.397   .     A
C628   C630    1.397   .     A
C628   C644    1.431   .     S
C629   H652    1.085   .     S
C629   C631    1.382   .     A
C630   H653    1.085   .     S
C630   C632    1.382   .     A
C631   C633    1.411   .     A
C631   C638    1.400   .     A
C632   C639    1.400   .     A
C632   C634    1.411   .     A
C633   C635    1.412   .     A
C634   C637    1.412   .     A
C634   C201    1.390   1_556 S
C635   C646    1.383   .     A
C635   C641    1.399   .     A
C636   O663    1.279   .     A
C636   O665    1.287   .     A
C636   C643    1.401   .     S
C637   C640    1.399   .     A
C638   H654    1.084   .     S
C639   H655    1.084   .     S
C639   C209    1.389   1_556 S
C640   H656    1.084   .     S
C640   C206    1.389   1_556 S
C641   H657    1.084   .     S
C642   C787    1.334   .     S
C642   H802    1.088   .     S
C644   O666    1.290   .     A
C644   O668    1.291   .     A
C645   O667    1.290   .     A
C645   O669    1.291   .     A
C646   H647    1.085   .     S
H648   C787    1.088   .     S
H649   O718    0.990   .     S
N659   Zn672   2.021   .     S
N659   N708    1.282   .     S
N659   O718    1.338   .     S
N660   Zn671   2.021   .     S
O661   Zn671   1.957   .     S
O662   H698    0.990   .     S
O662   N708    1.338   .     S
O663   Zn672   1.957   .     S
O664   Zn672   1.976   .     S
O665   Zn671   1.976   .     S
O666   Zn671   2.007   .     S
O667   Zn672   2.007   .     S
O668   Zn672   2.017   .     S
O669   Zn671   2.017   .     S
C673   O709    1.279   .     A
C673   C690    1.401   .     S
C673   O712    1.287   .     A
C674   C676    1.396   .     A
C674   H699    1.085   .     S
C674   C685    1.383   .     A
C675   C693    1.431   .     S
C675   C694    1.396   .     A
C675   C677    1.397   .     A
C676   C678    1.397   .     A
C676   C692    1.431   .     S
C677   H700    1.085   .     S
C677   C679    1.382   .     A
C678   H701    1.085   .     S
C678   C680    1.382   .     A
C679   C681    1.411   .     A
C679   C686    1.400   .     A
C680   C687    1.400   .     A
C680   C682    1.411   .     A
C681   C683    1.412   .     A
C682   C685    1.412   .     A
C682   C249    1.390   1_556 S
C683   C694    1.383   .     A
C683   C689    1.399   .     A
C684   O711    1.279   .     A
C684   O713    1.287   .     A
C684   C691    1.401   .     S
C685   C688    1.399   .     A
C686   H702    1.084   .     S
C687   H703    1.084   .     S
C687   C257    1.389   1_556 S
C688   H704    1.084   .     S
C688   C254    1.389   1_556 S
C689   H705    1.084   .     S
C690   C835    1.334   .     S
C690   H850    1.088   .     S
C692   O714    1.290   .     A
C692   O716    1.291   .     A
C693   O715    1.290   .     A
C693   O717    1.291   .     A
C694   H695    1.085   .     S
H696   C835    1.088   .     S
H697   O622    0.990   1_655 S
N707   Zn720   2.021   .     S
N707   N612    1.282   1_655 S
N707   O622    1.338   1_655 S
N708   Zn719   2.021   .     S
O709   Zn719   1.957   .     S
O710   H602    0.990   1_655 S
O710   N612    1.338   1_655 S
O711   Zn720   1.957   .     S
O712   Zn720   1.976   .     S
O713   Zn719   1.976   .     S
O714   Zn719   2.007   .     S
O715   Zn720   2.007   .     S
O716   Zn720   2.017   .     S
O717   Zn719   2.017   .     S
C721   O757    1.279   .     A
C721   C738    1.401   .     S
C721   O760    1.287   .     A
C722   C724    1.396   .     A
C722   H747    1.085   .     S
C722   C733    1.383   .     A
C723   C741    1.431   .     S
C723   C742    1.396   .     A
C723   C725    1.397   .     A
C724   C726    1.397   .     A
C724   C740    1.431   .     S
C725   H748    1.085   .     S
C725   C727    1.382   .     A
C726   H749    1.085   .     S
C726   C728    1.382   .     A
C727   C729    1.411   .     A
C727   C734    1.400   .     A
C728   C735    1.400   .     A
C728   C730    1.411   .     A
C729   C731    1.412   .     A
C730   C733    1.412   .     A
C730   C297    1.390   1_556 S
C731   C742    1.383   .     A
C731   C737    1.399   .     A
C732   O759    1.279   .     A
C732   O761    1.287   .     A
C732   C739    1.401   .     S
C733   C736    1.399   .     A
C734   H750    1.084   .     S
C735   H751    1.084   .     S
C735   C305    1.389   1_556 S
C736   H752    1.084   .     S
C736   C302    1.389   1_556 S
C737   H753    1.084   .     S
C738   C451    1.334   1_565 S
C738   H466    1.088   1_565 S
C740   O762    1.290   .     A
C740   O764    1.291   .     A
C741   O763    1.290   .     A
C741   O765    1.291   .     A
C742   H743    1.085   .     S
H744   C451    1.088   1_565 S
H745   O814    0.990   .     S
H746   O854    0.990   1_455 S
N755   Zn768   2.021   .     S
N755   N804    1.282   .     S
N755   O814    1.338   .     S
N756   Zn767   2.021   .     S
N756   N851    1.282   1_455 S
N756   O854    1.338   1_455 S
O757   Zn767   1.957   .     S
O758   H794    0.990   .     S
O758   N804    1.338   .     S
O759   Zn768   1.957   .     S
O760   Zn768   1.976   .     S
O761   Zn767   1.976   .     S
O762   Zn767   2.007   .     S
O763   Zn768   2.007   .     S
O764   Zn768   2.017   .     S
O765   Zn767   2.017   .     S
O766   N851    1.338   1_455 S
O766   H841    0.990   1_455 S
C769   O805    1.279   .     A
C769   C786    1.401   .     S
C769   O808    1.287   .     A
C770   C772    1.396   .     A
C770   H795    1.085   .     S
C770   C781    1.383   .     A
C771   C789    1.431   .     S
C771   C790    1.396   .     A
C771   C773    1.397   .     A
C772   C774    1.397   .     A
C772   C788    1.431   .     S
C773   H796    1.085   .     S
C773   C775    1.382   .     A
C774   H797    1.085   .     S
C774   C776    1.382   .     A
C775   C777    1.411   .     A
C775   C782    1.400   .     A
C776   C783    1.400   .     A
C776   C778    1.411   .     A
C777   C779    1.412   .     A
C778   C781    1.412   .     A
C778   C345    1.390   1_556 S
C779   C790    1.383   .     A
C779   C785    1.399   .     A
C780   O807    1.279   .     A
C780   O809    1.287   .     A
C780   C787    1.401   .     S
C781   C784    1.399   .     A
C782   H798    1.084   .     S
C783   H799    1.084   .     S
C783   C353    1.389   1_556 S
C784   H800    1.084   .     S
C784   C350    1.389   1_556 S
C785   H801    1.084   .     S
C786   C499    1.334   1_565 S
C786   H514    1.088   1_565 S
C788   O810    1.290   .     A
C788   O812    1.291   .     A
C789   O811    1.290   .     A
C789   O813    1.291   .     A
C790   H791    1.085   .     S
H792   C499    1.088   1_565 S
H793   O862    0.990   .     S
N803   Zn816   2.021   .     S
N803   N852    1.282   .     S
N803   O862    1.338   .     S
N804   Zn815   2.021   .     S
O805   Zn815   1.957   .     S
O806   H842    0.990   .     S
O806   N852    1.338   .     S
O807   Zn816   1.957   .     S
O808   Zn816   1.976   .     S
O809   Zn815   1.976   .     S
O810   Zn815   2.007   .     S
O811   Zn816   2.007   .     S
O812   Zn816   2.017   .     S
O813   Zn815   2.017   .     S
C817   O853    1.279   .     A
C817   C834    1.401   .     S
C817   O856    1.287   .     A
C818   C820    1.396   .     A
C818   H843    1.085   .     S
C818   C829    1.383   .     A
C819   C837    1.431   .     S
C819   C838    1.396   .     A
C819   C821    1.397   .     A
C820   C822    1.397   .     A
C820   C836    1.431   .     S
C821   H844    1.085   .     S
C821   C823    1.382   .     A
C822   H845    1.085   .     S
C822   C824    1.382   .     A
C823   C825    1.411   .     A
C823   C830    1.400   .     A
C824   C831    1.400   .     A
C824   C826    1.411   .     A
C825   C827    1.412   .     A
C826   C829    1.412   .     A
C826   C393    1.390   1_556 S
C827   C838    1.383   .     A
C827   C833    1.399   .     A
C828   O855    1.279   .     A
C828   O857    1.287   .     A
C828   C835    1.401   .     S
C829   C832    1.399   .     A
C830   H846    1.084   .     S
C831   H847    1.084   .     S
C831   C401    1.389   1_556 S
C832   H848    1.084   .     S
C832   C398    1.389   1_556 S
C833   H849    1.084   .     S
C834   C547    1.334   1_565 S
C834   H562    1.088   1_565 S
C836   O858    1.290   .     A
C836   O860    1.291   .     A
C837   O859    1.290   .     A
C837   O861    1.291   .     A
C838   H839    1.085   .     S
H840   C547    1.088   1_565 S
H841   O766    0.990   1_655 S
N851   Zn864   2.021   .     S
N851   N756    1.282   1_655 S
N851   O766    1.338   1_655 S
N852   Zn863   2.021   .     S
O853   Zn863   1.957   .     S
O854   H746    0.990   1_655 S
O854   N756    1.338   1_655 S
O855   Zn864   1.957   .     S
O856   Zn864   1.976   .     S
O857   Zn863   1.976   .     S
O858   Zn863   2.007   .     S
O859   Zn864   2.007   .     S
O860   Zn864   2.017   .     S
O861   Zn863   2.017   .     S
