data_str_m1_o10_o18_pcu_sym.207
_audit_creation_date              2020-01-03
_audit_creation_method            'Materials Studio'
_symmetry_space_group_name_H-M    'P1'
_symmetry_Int_Tables_number       1
_symmetry_cell_setting            triclinic
loop_
_symmetry_equiv_pos_as_xyz
  x,y,z
_cell_length_a                    32.5654
_cell_length_b                    32.6879
_cell_length_c                    35.7863
_cell_angle_alpha                 98.3011
_cell_angle_beta                  72.5792
_cell_angle_gamma                 98.7449
loop_
_atom_site_label
_atom_site_type_symbol
_atom_site_fract_x
_atom_site_fract_y
_atom_site_fract_z
_atom_site_U_iso_or_equiv
_atom_site_adp_type
_atom_site_occupancy
C1     C     0.05241   0.15968   0.25914   0.00000  Uiso   1.00
C2     C     0.20683   0.13987   0.45876   0.00000  Uiso   1.00
C3     C     0.23211   0.12597   0.47818   0.00000  Uiso   1.00
C4     C     0.28121   0.17377   0.24106   0.00000  Uiso   1.00
C5     C     0.22066   0.12943   0.01923   0.00000  Uiso   1.00
C6     C     0.18104   0.14519   0.04137   0.00000  Uiso   1.00
C7     C     0.24856   0.11773   0.03852   0.00000  Uiso   1.00
C8     C     0.23712   0.12223   0.07968   0.00000  Uiso   1.00
C9     C     0.17035   0.14812   0.08280   0.00000  Uiso   1.00
C10    C     0.32773   0.17665   0.23694   0.00000  Uiso   1.00
C11    C     0.00718   0.15796   0.26185   0.00000  Uiso   1.00
C12    C     0.09226   0.20713   0.42224   0.00000  Uiso   1.00
C13    C     0.18089   0.32239   0.23868   0.00000  Uiso   1.00
C14    C     0.15073   0.01263   0.26234   0.00000  Uiso   1.00
C15    C     0.15596   0.05640   0.25878   0.00000  Uiso   1.00
C16    C     0.17680   0.27771   0.24142   0.00000  Uiso   1.00
C17    C     0.18842   0.14534   0.14404   0.00000  Uiso   1.00
C18    C     0.14483   0.18735   0.35625   0.00000  Uiso   1.00
C19    C     0.13150   0.19193   0.39977   0.00000  Uiso   1.00
C20    C     0.19825   0.13721   0.10148   0.00000  Uiso   1.00
C21    C     0.07919   0.20640   0.46309   0.00000  Uiso   1.00
C22    C     0.15723   0.17720   0.41885   0.00000  Uiso   1.00
C23    C     0.14382   0.17483   0.45983   0.00000  Uiso   1.00
C24    C     0.10426   0.19014   0.48183   0.00000  Uiso   1.00
C25    C     0.16861   0.15799   0.47955   0.00000  Uiso   1.00
C26    C     0.15440   0.15889   0.02142   0.00000  Uiso   1.00
C27    C     0.11417   0.17371   0.04191   0.00000  Uiso   1.00
C28    C     0.08973   0.18891   0.02241   0.00000  Uiso   1.00
H29    H     0.05917   0.20004   0.03938   0.00000  Uiso   1.00
H30    H     0.30330   0.09145   0.03479   0.00000  Uiso   1.00
H31    H     0.31000   0.12781   0.00424   0.00000  Uiso   1.00
H32    H     0.01071   0.21526   0.19276   0.00000  Uiso   1.00
H33    H     0.04237   0.17730   0.18571   0.00000  Uiso   1.00
H34    H     0.21779   0.32648   0.18241   0.00000  Uiso   1.00
H35    H     0.24575   0.00203   0.21625   0.00000  Uiso   1.00
H36    H     0.11227   0.01119   0.31830   0.00000  Uiso   1.00
H37    H     0.08549   0.00248   0.28360   0.00000  Uiso   1.00
H38    H     0.03465   0.20440   0.41097   0.00000  Uiso   1.00
H39    H     0.06051   0.25294   0.41579   0.00000  Uiso   1.00
H40    H     0.31755   0.14101   0.28484   0.00000  Uiso   1.00
H41    H     0.14163   0.16066   0.10175   0.00000  Uiso   1.00
H42    H     0.25875   0.11454   0.09483   0.00000  Uiso   1.00
H43    H     0.26132   0.11289   0.46048   0.00000  Uiso   1.00
H44    H     0.04885   0.21794   0.48012   0.00000  Uiso   1.00
H45    H     0.18777   0.16777   0.40069   0.00000  Uiso   1.00
H46    H     0.10007   0.17372   0.07320   0.00000  Uiso   1.00
H47    H     0.21832   0.13546   0.42715   0.00000  Uiso   1.00
N48    N     0.28896   0.10249   0.01627   0.00000  Uiso   1.00
N49    N     0.02593   0.19917   0.20702   0.00000  Uiso   1.00
N50    N     0.21772   0.00784   0.21038   0.00000  Uiso   1.00
N51    N     0.11259   0.32911   0.29051   0.00000  Uiso   1.00
N52    N     0.06490   0.22225   0.40381   0.00000  Uiso   1.00
O53    O     0.16667   0.16667   0.25000   0.00000  Uiso   1.00
O54    O     0.15693   0.12393   0.16625   0.00000  Uiso   1.00
O55    O     0.12687   0.20646   0.33749   0.00000  Uiso   1.00
O56    O     0.21088   0.17493   0.15877   0.00000  Uiso   1.00
O57    O     0.17198   0.16135   0.33749   0.00000  Uiso   1.00
O58    O     0.17849   0.08101   0.27821   0.00000  Uiso   1.00
O59    O     0.14581   0.26136   0.26767   0.00000  Uiso   1.00
O60    O     0.07452   0.13251   0.23607   0.00000  Uiso   1.00
O61    O     0.26785   0.19179   0.21806   0.00000  Uiso   1.00
O62    O     0.06990   0.18960   0.27820   0.00000  Uiso   1.00
O63    O     0.25440   0.15277   0.26768   0.00000  Uiso   1.00
O64    O     0.13800   0.06903   0.23607   0.00000  Uiso   1.00
O65    O     0.20437   0.25527   0.21806   0.00000  Uiso   1.00
Zn66   Zn    0.19244   0.14090   0.28278   0.00000  Uiso   1.00
Zn67   Zn    0.13459   0.12378   0.22258   0.00000  Uiso   1.00
Zn68   Zn    0.21166   0.19664   0.21188   0.00000  Uiso   1.00
Zn69   Zn    0.12798   0.20535   0.28277   0.00000  Uiso   1.00
C70    C     0.38575   0.15968   0.25914   0.00000  Uiso   1.00
C71    C     0.54017   0.13987   0.45876   0.00000  Uiso   1.00
C72    C     0.56545   0.12597   0.47818   0.00000  Uiso   1.00
C73    C     0.61454   0.17377   0.24106   0.00000  Uiso   1.00
C74    C     0.55400   0.12943   0.01923   0.00000  Uiso   1.00
C75    C     0.51437   0.14519   0.04137   0.00000  Uiso   1.00
C76    C     0.58189   0.11773   0.03852   0.00000  Uiso   1.00
C77    C     0.57046   0.12223   0.07968   0.00000  Uiso   1.00
C78    C     0.50368   0.14812   0.08280   0.00000  Uiso   1.00
C79    C     0.66107   0.17665   0.23694   0.00000  Uiso   1.00
C80    C     0.34051   0.15796   0.26185   0.00000  Uiso   1.00
C81    C     0.42559   0.20713   0.42224   0.00000  Uiso   1.00
C82    C     0.51422   0.32239   0.23868   0.00000  Uiso   1.00
C83    C     0.48406   0.01263   0.26234   0.00000  Uiso   1.00
C84    C     0.48929   0.05640   0.25878   0.00000  Uiso   1.00
C85    C     0.51013   0.27771   0.24142   0.00000  Uiso   1.00
C86    C     0.52175   0.14534   0.14404   0.00000  Uiso   1.00
C87    C     0.47817   0.18735   0.35625   0.00000  Uiso   1.00
C88    C     0.46484   0.19193   0.39977   0.00000  Uiso   1.00
C89    C     0.53158   0.13721   0.10148   0.00000  Uiso   1.00
C90    C     0.41252   0.20640   0.46309   0.00000  Uiso   1.00
C91    C     0.49056   0.17720   0.41885   0.00000  Uiso   1.00
C92    C     0.47716   0.17483   0.45983   0.00000  Uiso   1.00
C93    C     0.43759   0.19014   0.48183   0.00000  Uiso   1.00
C94    C     0.50194   0.15799   0.47955   0.00000  Uiso   1.00
C95    C     0.48774   0.15889   0.02142   0.00000  Uiso   1.00
C96    C     0.44751   0.17371   0.04191   0.00000  Uiso   1.00
C97    C     0.42307   0.18891   0.02241   0.00000  Uiso   1.00
H98    H     0.39250   0.20004   0.03938   0.00000  Uiso   1.00
H99    H     0.63664   0.09145   0.03479   0.00000  Uiso   1.00
H100   H     0.64333   0.12781   0.00424   0.00000  Uiso   1.00
H101   H     0.34405   0.21526   0.19276   0.00000  Uiso   1.00
H102   H     0.37570   0.17730   0.18571   0.00000  Uiso   1.00
H103   H     0.55112   0.32648   0.18241   0.00000  Uiso   1.00
H104   H     0.57909   0.00203   0.21625   0.00000  Uiso   1.00
H105   H     0.44560   0.01119   0.31830   0.00000  Uiso   1.00
H106   H     0.41882   0.00248   0.28360   0.00000  Uiso   1.00
H107   H     0.36799   0.20440   0.41097   0.00000  Uiso   1.00
H108   H     0.39384   0.25294   0.41579   0.00000  Uiso   1.00
H109   H     0.65088   0.14101   0.28484   0.00000  Uiso   1.00
H110   H     0.47497   0.16066   0.10175   0.00000  Uiso   1.00
H111   H     0.59208   0.11454   0.09483   0.00000  Uiso   1.00
H112   H     0.59465   0.11289   0.46048   0.00000  Uiso   1.00
H113   H     0.38218   0.21794   0.48012   0.00000  Uiso   1.00
H114   H     0.52111   0.16777   0.40069   0.00000  Uiso   1.00
H115   H     0.43340   0.17372   0.07320   0.00000  Uiso   1.00
H116   H     0.55165   0.13546   0.42715   0.00000  Uiso   1.00
N117   N     0.62229   0.10249   0.01627   0.00000  Uiso   1.00
N118   N     0.35926   0.19917   0.20702   0.00000  Uiso   1.00
N119   N     0.55105   0.00784   0.21038   0.00000  Uiso   1.00
N120   N     0.44593   0.32911   0.29051   0.00000  Uiso   1.00
N121   N     0.39823   0.22225   0.40381   0.00000  Uiso   1.00
O122   O     0.50000   0.16667   0.25000   0.00000  Uiso   1.00
O123   O     0.49027   0.12393   0.16625   0.00000  Uiso   1.00
O124   O     0.46020   0.20646   0.33749   0.00000  Uiso   1.00
O125   O     0.54421   0.17493   0.15877   0.00000  Uiso   1.00
O126   O     0.50532   0.16135   0.33749   0.00000  Uiso   1.00
O127   O     0.51182   0.08101   0.27821   0.00000  Uiso   1.00
O128   O     0.47914   0.26136   0.26767   0.00000  Uiso   1.00
O129   O     0.40785   0.13251   0.23607   0.00000  Uiso   1.00
O130   O     0.60119   0.19179   0.21806   0.00000  Uiso   1.00
O131   O     0.40323   0.18960   0.27820   0.00000  Uiso   1.00
O132   O     0.58773   0.15277   0.26768   0.00000  Uiso   1.00
O133   O     0.47133   0.06903   0.23607   0.00000  Uiso   1.00
O134   O     0.53771   0.25527   0.21806   0.00000  Uiso   1.00
Zn135  Zn    0.52577   0.14090   0.28278   0.00000  Uiso   1.00
Zn136  Zn    0.46792   0.12378   0.22258   0.00000  Uiso   1.00
Zn137  Zn    0.54500   0.19664   0.21188   0.00000  Uiso   1.00
Zn138  Zn    0.46131   0.20535   0.28277   0.00000  Uiso   1.00
C139   C     0.71908   0.15968   0.25914   0.00000  Uiso   1.00
C140   C     0.87350   0.13987   0.45876   0.00000  Uiso   1.00
C141   C     0.89878   0.12597   0.47818   0.00000  Uiso   1.00
C142   C     0.94788   0.17377   0.24106   0.00000  Uiso   1.00
C143   C     0.88733   0.12943   0.01923   0.00000  Uiso   1.00
C144   C     0.84770   0.14519   0.04137   0.00000  Uiso   1.00
C145   C     0.91522   0.11773   0.03852   0.00000  Uiso   1.00
C146   C     0.90379   0.12223   0.07968   0.00000  Uiso   1.00
C147   C     0.83701   0.14812   0.08280   0.00000  Uiso   1.00
C148   C     0.99440   0.17665   0.23694   0.00000  Uiso   1.00
C149   C     0.67384   0.15796   0.26185   0.00000  Uiso   1.00
C150   C     0.75892   0.20713   0.42224   0.00000  Uiso   1.00
C151   C     0.84756   0.32239   0.23868   0.00000  Uiso   1.00
C152   C     0.81739   0.01263   0.26234   0.00000  Uiso   1.00
C153   C     0.82262   0.05640   0.25878   0.00000  Uiso   1.00
C154   C     0.84346   0.27771   0.24142   0.00000  Uiso   1.00
C155   C     0.85509   0.14534   0.14404   0.00000  Uiso   1.00
C156   C     0.81150   0.18735   0.35625   0.00000  Uiso   1.00
C157   C     0.79817   0.19193   0.39977   0.00000  Uiso   1.00
C158   C     0.86491   0.13721   0.10148   0.00000  Uiso   1.00
C159   C     0.74586   0.20640   0.46309   0.00000  Uiso   1.00
C160   C     0.82389   0.17720   0.41885   0.00000  Uiso   1.00
C161   C     0.81049   0.17483   0.45983   0.00000  Uiso   1.00
C162   C     0.77093   0.19014   0.48183   0.00000  Uiso   1.00
C163   C     0.83528   0.15799   0.47955   0.00000  Uiso   1.00
C164   C     0.82107   0.15889   0.02142   0.00000  Uiso   1.00
C165   C     0.78084   0.17371   0.04191   0.00000  Uiso   1.00
C166   C     0.75640   0.18891   0.02241   0.00000  Uiso   1.00
H167   H     0.72584   0.20004   0.03938   0.00000  Uiso   1.00
H168   H     0.96997   0.09145   0.03479   0.00000  Uiso   1.00
H169   H     0.97666   0.12781   0.00424   0.00000  Uiso   1.00
H170   H     0.67738   0.21526   0.19276   0.00000  Uiso   1.00
H171   H     0.70904   0.17730   0.18571   0.00000  Uiso   1.00
H172   H     0.88445   0.32648   0.18241   0.00000  Uiso   1.00
H173   H     0.91242   0.00203   0.21625   0.00000  Uiso   1.00
H174   H     0.77893   0.01119   0.31830   0.00000  Uiso   1.00
H175   H     0.75215   0.00248   0.28360   0.00000  Uiso   1.00
H176   H     0.70132   0.20440   0.41097   0.00000  Uiso   1.00
H177   H     0.72717   0.25294   0.41579   0.00000  Uiso   1.00
H178   H     0.98422   0.14101   0.28484   0.00000  Uiso   1.00
H179   H     0.80830   0.16066   0.10175   0.00000  Uiso   1.00
H180   H     0.92542   0.11454   0.09483   0.00000  Uiso   1.00
H181   H     0.92798   0.11289   0.46048   0.00000  Uiso   1.00
H182   H     0.71552   0.21794   0.48012   0.00000  Uiso   1.00
H183   H     0.85444   0.16777   0.40069   0.00000  Uiso   1.00
H184   H     0.76673   0.17372   0.07320   0.00000  Uiso   1.00
H185   H     0.88499   0.13546   0.42715   0.00000  Uiso   1.00
N186   N     0.95562   0.10249   0.01627   0.00000  Uiso   1.00
N187   N     0.69260   0.19917   0.20702   0.00000  Uiso   1.00
N188   N     0.88438   0.00784   0.21038   0.00000  Uiso   1.00
N189   N     0.77926   0.32911   0.29051   0.00000  Uiso   1.00
N190   N     0.73156   0.22225   0.40381   0.00000  Uiso   1.00
O191   O     0.83333   0.16667   0.25000   0.00000  Uiso   1.00
O192   O     0.82360   0.12393   0.16625   0.00000  Uiso   1.00
O193   O     0.79354   0.20646   0.33749   0.00000  Uiso   1.00
O194   O     0.87755   0.17493   0.15877   0.00000  Uiso   1.00
O195   O     0.83865   0.16135   0.33749   0.00000  Uiso   1.00
O196   O     0.84515   0.08101   0.27821   0.00000  Uiso   1.00
O197   O     0.81247   0.26136   0.26767   0.00000  Uiso   1.00
O198   O     0.74119   0.13251   0.23607   0.00000  Uiso   1.00
O199   O     0.93452   0.19179   0.21806   0.00000  Uiso   1.00
O200   O     0.73656   0.18960   0.27820   0.00000  Uiso   1.00
O201   O     0.92106   0.15277   0.26768   0.00000  Uiso   1.00
O202   O     0.80467   0.06903   0.23607   0.00000  Uiso   1.00
O203   O     0.87104   0.25527   0.21806   0.00000  Uiso   1.00
Zn204  Zn    0.85910   0.14090   0.28278   0.00000  Uiso   1.00
Zn205  Zn    0.80125   0.12378   0.22258   0.00000  Uiso   1.00
Zn206  Zn    0.87833   0.19664   0.21188   0.00000  Uiso   1.00
Zn207  Zn    0.79465   0.20535   0.28277   0.00000  Uiso   1.00
C208   C     0.05241   0.49302   0.25914   0.00000  Uiso   1.00
C209   C     0.20683   0.47321   0.45876   0.00000  Uiso   1.00
C210   C     0.23211   0.45930   0.47818   0.00000  Uiso   1.00
C211   C     0.28121   0.50710   0.24106   0.00000  Uiso   1.00
C212   C     0.22066   0.46276   0.01923   0.00000  Uiso   1.00
C213   C     0.18104   0.47852   0.04137   0.00000  Uiso   1.00
C214   C     0.24856   0.45106   0.03852   0.00000  Uiso   1.00
C215   C     0.23712   0.45557   0.07968   0.00000  Uiso   1.00
C216   C     0.17035   0.48146   0.08280   0.00000  Uiso   1.00
C217   C     0.32773   0.50999   0.23694   0.00000  Uiso   1.00
C218   C     0.00718   0.49129   0.26185   0.00000  Uiso   1.00
C219   C     0.09226   0.54047   0.42224   0.00000  Uiso   1.00
C220   C     0.18089   0.65572   0.23868   0.00000  Uiso   1.00
C221   C     0.15073   0.34596   0.26234   0.00000  Uiso   1.00
C222   C     0.15596   0.38973   0.25878   0.00000  Uiso   1.00
C223   C     0.17680   0.61104   0.24142   0.00000  Uiso   1.00
C224   C     0.18842   0.47867   0.14404   0.00000  Uiso   1.00
C225   C     0.14483   0.52069   0.35625   0.00000  Uiso   1.00
C226   C     0.13150   0.52527   0.39977   0.00000  Uiso   1.00
C227   C     0.19825   0.47055   0.10148   0.00000  Uiso   1.00
C228   C     0.07919   0.53973   0.46309   0.00000  Uiso   1.00
C229   C     0.15723   0.51053   0.41885   0.00000  Uiso   1.00
C230   C     0.14382   0.50816   0.45983   0.00000  Uiso   1.00
C231   C     0.10426   0.52347   0.48183   0.00000  Uiso   1.00
C232   C     0.16861   0.49132   0.47955   0.00000  Uiso   1.00
C233   C     0.15440   0.49222   0.02142   0.00000  Uiso   1.00
C234   C     0.11417   0.50705   0.04191   0.00000  Uiso   1.00
C235   C     0.08973   0.52225   0.02241   0.00000  Uiso   1.00
H236   H     0.05917   0.53337   0.03938   0.00000  Uiso   1.00
H237   H     0.30330   0.42478   0.03479   0.00000  Uiso   1.00
H238   H     0.31000   0.46115   0.00424   0.00000  Uiso   1.00
H239   H     0.01071   0.54859   0.19276   0.00000  Uiso   1.00
H240   H     0.04237   0.51063   0.18571   0.00000  Uiso   1.00
H241   H     0.21779   0.65981   0.18241   0.00000  Uiso   1.00
H242   H     0.24575   0.33536   0.21625   0.00000  Uiso   1.00
H243   H     0.11227   0.34452   0.31830   0.00000  Uiso   1.00
H244   H     0.08549   0.33581   0.28360   0.00000  Uiso   1.00
H245   H     0.03465   0.53773   0.41097   0.00000  Uiso   1.00
H246   H     0.06051   0.58627   0.41579   0.00000  Uiso   1.00
H247   H     0.31755   0.47435   0.28484   0.00000  Uiso   1.00
H248   H     0.14163   0.49399   0.10175   0.00000  Uiso   1.00
H249   H     0.25875   0.44787   0.09483   0.00000  Uiso   1.00
H250   H     0.26132   0.44622   0.46048   0.00000  Uiso   1.00
H251   H     0.04885   0.55128   0.48012   0.00000  Uiso   1.00
H252   H     0.18777   0.50110   0.40069   0.00000  Uiso   1.00
H253   H     0.10007   0.50706   0.07320   0.00000  Uiso   1.00
H254   H     0.21832   0.46879   0.42715   0.00000  Uiso   1.00
N255   N     0.28896   0.43583   0.01627   0.00000  Uiso   1.00
N256   N     0.02593   0.53250   0.20702   0.00000  Uiso   1.00
N257   N     0.21772   0.34117   0.21038   0.00000  Uiso   1.00
N258   N     0.11259   0.66245   0.29051   0.00000  Uiso   1.00
N259   N     0.06490   0.55558   0.40381   0.00000  Uiso   1.00
O260   O     0.16667   0.50000   0.25000   0.00000  Uiso   1.00
O261   O     0.15693   0.45726   0.16625   0.00000  Uiso   1.00
O262   O     0.12687   0.53979   0.33749   0.00000  Uiso   1.00
O263   O     0.21088   0.50826   0.15877   0.00000  Uiso   1.00
O264   O     0.17198   0.49468   0.33749   0.00000  Uiso   1.00
O265   O     0.17849   0.41434   0.27821   0.00000  Uiso   1.00
O266   O     0.14581   0.59469   0.26767   0.00000  Uiso   1.00
O267   O     0.07452   0.46584   0.23607   0.00000  Uiso   1.00
O268   O     0.26785   0.52512   0.21806   0.00000  Uiso   1.00
O269   O     0.06990   0.52293   0.27820   0.00000  Uiso   1.00
O270   O     0.25440   0.48610   0.26768   0.00000  Uiso   1.00
O271   O     0.13800   0.40236   0.23607   0.00000  Uiso   1.00
O272   O     0.20437   0.58860   0.21806   0.00000  Uiso   1.00
Zn273  Zn    0.19244   0.47423   0.28278   0.00000  Uiso   1.00
Zn274  Zn    0.13459   0.45711   0.22258   0.00000  Uiso   1.00
Zn275  Zn    0.21166   0.52997   0.21188   0.00000  Uiso   1.00
Zn276  Zn    0.12798   0.53868   0.28277   0.00000  Uiso   1.00
C277   C     0.38575   0.49302   0.25914   0.00000  Uiso   1.00
C278   C     0.54017   0.47321   0.45876   0.00000  Uiso   1.00
C279   C     0.56545   0.45930   0.47818   0.00000  Uiso   1.00
C280   C     0.61454   0.50710   0.24106   0.00000  Uiso   1.00
C281   C     0.55400   0.46276   0.01923   0.00000  Uiso   1.00
C282   C     0.51437   0.47852   0.04137   0.00000  Uiso   1.00
C283   C     0.58189   0.45106   0.03852   0.00000  Uiso   1.00
C284   C     0.57046   0.45557   0.07968   0.00000  Uiso   1.00
C285   C     0.50368   0.48146   0.08280   0.00000  Uiso   1.00
C286   C     0.66107   0.50999   0.23694   0.00000  Uiso   1.00
C287   C     0.34051   0.49129   0.26185   0.00000  Uiso   1.00
C288   C     0.42559   0.54047   0.42224   0.00000  Uiso   1.00
C289   C     0.51422   0.65572   0.23868   0.00000  Uiso   1.00
C290   C     0.48406   0.34596   0.26234   0.00000  Uiso   1.00
C291   C     0.48929   0.38973   0.25878   0.00000  Uiso   1.00
C292   C     0.51013   0.61104   0.24142   0.00000  Uiso   1.00
C293   C     0.52175   0.47867   0.14404   0.00000  Uiso   1.00
C294   C     0.47817   0.52069   0.35625   0.00000  Uiso   1.00
C295   C     0.46484   0.52527   0.39977   0.00000  Uiso   1.00
C296   C     0.53158   0.47055   0.10148   0.00000  Uiso   1.00
C297   C     0.41252   0.53973   0.46309   0.00000  Uiso   1.00
C298   C     0.49056   0.51053   0.41885   0.00000  Uiso   1.00
C299   C     0.47716   0.50816   0.45983   0.00000  Uiso   1.00
C300   C     0.43759   0.52347   0.48183   0.00000  Uiso   1.00
C301   C     0.50194   0.49132   0.47955   0.00000  Uiso   1.00
C302   C     0.48774   0.49222   0.02142   0.00000  Uiso   1.00
C303   C     0.44751   0.50705   0.04191   0.00000  Uiso   1.00
C304   C     0.42307   0.52225   0.02241   0.00000  Uiso   1.00
H305   H     0.39250   0.53337   0.03938   0.00000  Uiso   1.00
H306   H     0.63664   0.42478   0.03479   0.00000  Uiso   1.00
H307   H     0.64333   0.46115   0.00424   0.00000  Uiso   1.00
H308   H     0.34405   0.54859   0.19276   0.00000  Uiso   1.00
H309   H     0.37570   0.51063   0.18571   0.00000  Uiso   1.00
H310   H     0.55112   0.65981   0.18241   0.00000  Uiso   1.00
H311   H     0.57909   0.33536   0.21625   0.00000  Uiso   1.00
H312   H     0.44560   0.34452   0.31830   0.00000  Uiso   1.00
H313   H     0.41882   0.33581   0.28360   0.00000  Uiso   1.00
H314   H     0.36799   0.53773   0.41097   0.00000  Uiso   1.00
H315   H     0.39384   0.58627   0.41579   0.00000  Uiso   1.00
H316   H     0.65088   0.47435   0.28484   0.00000  Uiso   1.00
H317   H     0.47497   0.49399   0.10175   0.00000  Uiso   1.00
H318   H     0.59208   0.44787   0.09483   0.00000  Uiso   1.00
H319   H     0.59465   0.44622   0.46048   0.00000  Uiso   1.00
H320   H     0.38218   0.55128   0.48012   0.00000  Uiso   1.00
H321   H     0.52111   0.50110   0.40069   0.00000  Uiso   1.00
H322   H     0.43340   0.50706   0.07320   0.00000  Uiso   1.00
H323   H     0.55165   0.46879   0.42715   0.00000  Uiso   1.00
N324   N     0.62229   0.43583   0.01627   0.00000  Uiso   1.00
N325   N     0.35926   0.53250   0.20702   0.00000  Uiso   1.00
N326   N     0.55105   0.34117   0.21038   0.00000  Uiso   1.00
N327   N     0.44593   0.66245   0.29051   0.00000  Uiso   1.00
N328   N     0.39823   0.55558   0.40381   0.00000  Uiso   1.00
O329   O     0.50000   0.50000   0.25000   0.00000  Uiso   1.00
O330   O     0.49027   0.45726   0.16625   0.00000  Uiso   1.00
O331   O     0.46020   0.53979   0.33749   0.00000  Uiso   1.00
O332   O     0.54421   0.50826   0.15877   0.00000  Uiso   1.00
O333   O     0.50532   0.49468   0.33749   0.00000  Uiso   1.00
O334   O     0.51182   0.41434   0.27821   0.00000  Uiso   1.00
O335   O     0.47914   0.59469   0.26767   0.00000  Uiso   1.00
O336   O     0.40785   0.46584   0.23607   0.00000  Uiso   1.00
O337   O     0.60119   0.52512   0.21806   0.00000  Uiso   1.00
O338   O     0.40323   0.52293   0.27820   0.00000  Uiso   1.00
O339   O     0.58773   0.48610   0.26768   0.00000  Uiso   1.00
O340   O     0.47133   0.40236   0.23607   0.00000  Uiso   1.00
O341   O     0.53771   0.58860   0.21806   0.00000  Uiso   1.00
Zn342  Zn    0.52577   0.47423   0.28278   0.00000  Uiso   1.00
Zn343  Zn    0.46792   0.45711   0.22258   0.00000  Uiso   1.00
Zn344  Zn    0.54500   0.52997   0.21188   0.00000  Uiso   1.00
Zn345  Zn    0.46131   0.53868   0.28277   0.00000  Uiso   1.00
C346   C     0.71908   0.49302   0.25914   0.00000  Uiso   1.00
C347   C     0.87350   0.47321   0.45876   0.00000  Uiso   1.00
C348   C     0.89878   0.45930   0.47818   0.00000  Uiso   1.00
C349   C     0.94788   0.50710   0.24106   0.00000  Uiso   1.00
C350   C     0.88733   0.46276   0.01923   0.00000  Uiso   1.00
C351   C     0.84770   0.47852   0.04137   0.00000  Uiso   1.00
C352   C     0.91522   0.45106   0.03852   0.00000  Uiso   1.00
C353   C     0.90379   0.45557   0.07968   0.00000  Uiso   1.00
C354   C     0.83701   0.48146   0.08280   0.00000  Uiso   1.00
C355   C     0.99440   0.50999   0.23694   0.00000  Uiso   1.00
C356   C     0.67384   0.49129   0.26185   0.00000  Uiso   1.00
C357   C     0.75892   0.54047   0.42224   0.00000  Uiso   1.00
C358   C     0.84756   0.65572   0.23868   0.00000  Uiso   1.00
C359   C     0.81739   0.34596   0.26234   0.00000  Uiso   1.00
C360   C     0.82262   0.38973   0.25878   0.00000  Uiso   1.00
C361   C     0.84346   0.61104   0.24142   0.00000  Uiso   1.00
C362   C     0.85509   0.47867   0.14404   0.00000  Uiso   1.00
C363   C     0.81150   0.52069   0.35625   0.00000  Uiso   1.00
C364   C     0.79817   0.52527   0.39977   0.00000  Uiso   1.00
C365   C     0.86491   0.47055   0.10148   0.00000  Uiso   1.00
C366   C     0.74586   0.53973   0.46309   0.00000  Uiso   1.00
C367   C     0.82389   0.51053   0.41885   0.00000  Uiso   1.00
C368   C     0.81049   0.50816   0.45983   0.00000  Uiso   1.00
C369   C     0.77093   0.52347   0.48183   0.00000  Uiso   1.00
C370   C     0.83528   0.49132   0.47955   0.00000  Uiso   1.00
C371   C     0.82107   0.49222   0.02142   0.00000  Uiso   1.00
C372   C     0.78084   0.50705   0.04191   0.00000  Uiso   1.00
C373   C     0.75640   0.52225   0.02241   0.00000  Uiso   1.00
H374   H     0.72584   0.53337   0.03938   0.00000  Uiso   1.00
H375   H     0.96997   0.42478   0.03479   0.00000  Uiso   1.00
H376   H     0.97666   0.46115   0.00424   0.00000  Uiso   1.00
H377   H     0.67738   0.54859   0.19276   0.00000  Uiso   1.00
H378   H     0.70904   0.51063   0.18571   0.00000  Uiso   1.00
H379   H     0.88445   0.65981   0.18241   0.00000  Uiso   1.00
H380   H     0.91242   0.33536   0.21625   0.00000  Uiso   1.00
H381   H     0.77893   0.34452   0.31830   0.00000  Uiso   1.00
H382   H     0.75215   0.33581   0.28360   0.00000  Uiso   1.00
H383   H     0.70132   0.53773   0.41097   0.00000  Uiso   1.00
H384   H     0.72717   0.58627   0.41579   0.00000  Uiso   1.00
H385   H     0.98422   0.47435   0.28484   0.00000  Uiso   1.00
H386   H     0.80830   0.49399   0.10175   0.00000  Uiso   1.00
H387   H     0.92542   0.44787   0.09483   0.00000  Uiso   1.00
H388   H     0.92798   0.44622   0.46048   0.00000  Uiso   1.00
H389   H     0.71552   0.55128   0.48012   0.00000  Uiso   1.00
H390   H     0.85444   0.50110   0.40069   0.00000  Uiso   1.00
H391   H     0.76673   0.50706   0.07320   0.00000  Uiso   1.00
H392   H     0.88499   0.46879   0.42715   0.00000  Uiso   1.00
N393   N     0.95562   0.43583   0.01627   0.00000  Uiso   1.00
N394   N     0.69260   0.53250   0.20702   0.00000  Uiso   1.00
N395   N     0.88438   0.34117   0.21038   0.00000  Uiso   1.00
N396   N     0.77926   0.66245   0.29051   0.00000  Uiso   1.00
N397   N     0.73156   0.55558   0.40381   0.00000  Uiso   1.00
O398   O     0.83333   0.50000   0.25000   0.00000  Uiso   1.00
O399   O     0.82360   0.45726   0.16625   0.00000  Uiso   1.00
O400   O     0.79354   0.53979   0.33749   0.00000  Uiso   1.00
O401   O     0.87755   0.50826   0.15877   0.00000  Uiso   1.00
O402   O     0.83865   0.49468   0.33749   0.00000  Uiso   1.00
O403   O     0.84515   0.41434   0.27821   0.00000  Uiso   1.00
O404   O     0.81247   0.59469   0.26767   0.00000  Uiso   1.00
O405   O     0.74119   0.46584   0.23607   0.00000  Uiso   1.00
O406   O     0.93452   0.52512   0.21806   0.00000  Uiso   1.00
O407   O     0.73656   0.52293   0.27820   0.00000  Uiso   1.00
O408   O     0.92106   0.48610   0.26768   0.00000  Uiso   1.00
O409   O     0.80467   0.40236   0.23607   0.00000  Uiso   1.00
O410   O     0.87104   0.58860   0.21806   0.00000  Uiso   1.00
Zn411  Zn    0.85910   0.47423   0.28278   0.00000  Uiso   1.00
Zn412  Zn    0.80125   0.45711   0.22258   0.00000  Uiso   1.00
Zn413  Zn    0.87833   0.52997   0.21188   0.00000  Uiso   1.00
Zn414  Zn    0.79465   0.53868   0.28277   0.00000  Uiso   1.00
C415   C     0.05241   0.82635   0.25914   0.00000  Uiso   1.00
C416   C     0.20683   0.80654   0.45876   0.00000  Uiso   1.00
C417   C     0.23211   0.79264   0.47818   0.00000  Uiso   1.00
C418   C     0.28121   0.84043   0.24106   0.00000  Uiso   1.00
C419   C     0.22066   0.79610   0.01923   0.00000  Uiso   1.00
C420   C     0.18104   0.81186   0.04137   0.00000  Uiso   1.00
C421   C     0.24856   0.78439   0.03852   0.00000  Uiso   1.00
C422   C     0.23712   0.78890   0.07968   0.00000  Uiso   1.00
C423   C     0.17035   0.81479   0.08280   0.00000  Uiso   1.00
C424   C     0.32773   0.84332   0.23694   0.00000  Uiso   1.00
C425   C     0.00718   0.82462   0.26185   0.00000  Uiso   1.00
C426   C     0.09226   0.87380   0.42224   0.00000  Uiso   1.00
C427   C     0.18089   0.98906   0.23868   0.00000  Uiso   1.00
C428   C     0.15073   0.67930   0.26234   0.00000  Uiso   1.00
C429   C     0.15596   0.72306   0.25878   0.00000  Uiso   1.00
C430   C     0.17680   0.94437   0.24142   0.00000  Uiso   1.00
C431   C     0.18842   0.81200   0.14404   0.00000  Uiso   1.00
C432   C     0.14483   0.85402   0.35625   0.00000  Uiso   1.00
C433   C     0.13150   0.85860   0.39977   0.00000  Uiso   1.00
C434   C     0.19825   0.80388   0.10148   0.00000  Uiso   1.00
C435   C     0.07919   0.87306   0.46309   0.00000  Uiso   1.00
C436   C     0.15723   0.84386   0.41885   0.00000  Uiso   1.00
C437   C     0.14382   0.84150   0.45983   0.00000  Uiso   1.00
C438   C     0.10426   0.85680   0.48183   0.00000  Uiso   1.00
C439   C     0.16861   0.82466   0.47955   0.00000  Uiso   1.00
C440   C     0.15440   0.82555   0.02142   0.00000  Uiso   1.00
C441   C     0.11417   0.84038   0.04191   0.00000  Uiso   1.00
C442   C     0.08973   0.85558   0.02241   0.00000  Uiso   1.00
H443   H     0.05917   0.86671   0.03938   0.00000  Uiso   1.00
H444   H     0.30330   0.75811   0.03479   0.00000  Uiso   1.00
H445   H     0.31000   0.79448   0.00424   0.00000  Uiso   1.00
H446   H     0.01071   0.88192   0.19276   0.00000  Uiso   1.00
H447   H     0.04237   0.84397   0.18571   0.00000  Uiso   1.00
H448   H     0.21779   0.99315   0.18241   0.00000  Uiso   1.00
H449   H     0.24575   0.66869   0.21625   0.00000  Uiso   1.00
H450   H     0.11227   0.67785   0.31830   0.00000  Uiso   1.00
H451   H     0.08549   0.66915   0.28360   0.00000  Uiso   1.00
H452   H     0.03465   0.87106   0.41097   0.00000  Uiso   1.00
H453   H     0.06051   0.91961   0.41579   0.00000  Uiso   1.00
H454   H     0.31755   0.80768   0.28484   0.00000  Uiso   1.00
H455   H     0.14163   0.82733   0.10175   0.00000  Uiso   1.00
H456   H     0.25875   0.78121   0.09483   0.00000  Uiso   1.00
H457   H     0.26132   0.77955   0.46048   0.00000  Uiso   1.00
H458   H     0.04885   0.88461   0.48012   0.00000  Uiso   1.00
H459   H     0.18777   0.83443   0.40069   0.00000  Uiso   1.00
H460   H     0.10007   0.84039   0.07320   0.00000  Uiso   1.00
H461   H     0.21832   0.80212   0.42715   0.00000  Uiso   1.00
N462   N     0.28896   0.76916   0.01627   0.00000  Uiso   1.00
N463   N     0.02593   0.86583   0.20702   0.00000  Uiso   1.00
N464   N     0.21772   0.67450   0.21038   0.00000  Uiso   1.00
N465   N     0.11259   0.99578   0.29051   0.00000  Uiso   1.00
N466   N     0.06490   0.88892   0.40381   0.00000  Uiso   1.00
O467   O     0.16667   0.83333   0.25000   0.00000  Uiso   1.00
O468   O     0.15693   0.79060   0.16625   0.00000  Uiso   1.00
O469   O     0.12687   0.87313   0.33749   0.00000  Uiso   1.00
O470   O     0.21088   0.84159   0.15877   0.00000  Uiso   1.00
O471   O     0.17198   0.82802   0.33749   0.00000  Uiso   1.00
O472   O     0.17849   0.74768   0.27821   0.00000  Uiso   1.00
O473   O     0.14581   0.92803   0.26767   0.00000  Uiso   1.00
O474   O     0.07452   0.79917   0.23607   0.00000  Uiso   1.00
O475   O     0.26785   0.85845   0.21806   0.00000  Uiso   1.00
O476   O     0.06990   0.85627   0.27820   0.00000  Uiso   1.00
O477   O     0.25440   0.81944   0.26768   0.00000  Uiso   1.00
O478   O     0.13800   0.73570   0.23607   0.00000  Uiso   1.00
O479   O     0.20437   0.92193   0.21806   0.00000  Uiso   1.00
Zn480  Zn    0.19244   0.80756   0.28278   0.00000  Uiso   1.00
Zn481  Zn    0.13459   0.79044   0.22258   0.00000  Uiso   1.00
Zn482  Zn    0.21166   0.86331   0.21188   0.00000  Uiso   1.00
Zn483  Zn    0.12798   0.87202   0.28277   0.00000  Uiso   1.00
C484   C     0.38575   0.82635   0.25914   0.00000  Uiso   1.00
C485   C     0.54017   0.80654   0.45876   0.00000  Uiso   1.00
C486   C     0.56545   0.79264   0.47818   0.00000  Uiso   1.00
C487   C     0.61454   0.84043   0.24106   0.00000  Uiso   1.00
C488   C     0.55400   0.79610   0.01923   0.00000  Uiso   1.00
C489   C     0.51437   0.81186   0.04137   0.00000  Uiso   1.00
C490   C     0.58189   0.78439   0.03852   0.00000  Uiso   1.00
C491   C     0.57046   0.78890   0.07968   0.00000  Uiso   1.00
C492   C     0.50368   0.81479   0.08280   0.00000  Uiso   1.00
C493   C     0.66107   0.84332   0.23694   0.00000  Uiso   1.00
C494   C     0.34051   0.82462   0.26185   0.00000  Uiso   1.00
C495   C     0.42559   0.87380   0.42224   0.00000  Uiso   1.00
C496   C     0.51422   0.98906   0.23868   0.00000  Uiso   1.00
C497   C     0.48406   0.67930   0.26234   0.00000  Uiso   1.00
C498   C     0.48929   0.72306   0.25878   0.00000  Uiso   1.00
C499   C     0.51013   0.94437   0.24142   0.00000  Uiso   1.00
C500   C     0.52175   0.81200   0.14404   0.00000  Uiso   1.00
C501   C     0.47817   0.85402   0.35625   0.00000  Uiso   1.00
C502   C     0.46484   0.85860   0.39977   0.00000  Uiso   1.00
C503   C     0.53158   0.80388   0.10148   0.00000  Uiso   1.00
C504   C     0.41252   0.87306   0.46309   0.00000  Uiso   1.00
C505   C     0.49056   0.84386   0.41885   0.00000  Uiso   1.00
C506   C     0.47716   0.84150   0.45983   0.00000  Uiso   1.00
C507   C     0.43759   0.85680   0.48183   0.00000  Uiso   1.00
C508   C     0.50194   0.82466   0.47955   0.00000  Uiso   1.00
C509   C     0.48774   0.82555   0.02142   0.00000  Uiso   1.00
C510   C     0.44751   0.84038   0.04191   0.00000  Uiso   1.00
C511   C     0.42307   0.85558   0.02241   0.00000  Uiso   1.00
H512   H     0.39250   0.86671   0.03938   0.00000  Uiso   1.00
H513   H     0.63664   0.75811   0.03479   0.00000  Uiso   1.00
H514   H     0.64333   0.79448   0.00424   0.00000  Uiso   1.00
H515   H     0.34405   0.88192   0.19276   0.00000  Uiso   1.00
H516   H     0.37570   0.84397   0.18571   0.00000  Uiso   1.00
H517   H     0.55112   0.99315   0.18241   0.00000  Uiso   1.00
H518   H     0.57909   0.66869   0.21625   0.00000  Uiso   1.00
H519   H     0.44560   0.67785   0.31830   0.00000  Uiso   1.00
H520   H     0.41882   0.66915   0.28360   0.00000  Uiso   1.00
H521   H     0.36799   0.87106   0.41097   0.00000  Uiso   1.00
H522   H     0.39384   0.91961   0.41579   0.00000  Uiso   1.00
H523   H     0.65088   0.80768   0.28484   0.00000  Uiso   1.00
H524   H     0.47497   0.82733   0.10175   0.00000  Uiso   1.00
H525   H     0.59208   0.78121   0.09483   0.00000  Uiso   1.00
H526   H     0.59465   0.77955   0.46048   0.00000  Uiso   1.00
H527   H     0.38218   0.88461   0.48012   0.00000  Uiso   1.00
H528   H     0.52111   0.83443   0.40069   0.00000  Uiso   1.00
H529   H     0.43340   0.84039   0.07320   0.00000  Uiso   1.00
H530   H     0.55165   0.80212   0.42715   0.00000  Uiso   1.00
N531   N     0.62229   0.76916   0.01627   0.00000  Uiso   1.00
N532   N     0.35926   0.86583   0.20702   0.00000  Uiso   1.00
N533   N     0.55105   0.67450   0.21038   0.00000  Uiso   1.00
N534   N     0.44593   0.99578   0.29051   0.00000  Uiso   1.00
N535   N     0.39823   0.88892   0.40381   0.00000  Uiso   1.00
O536   O     0.50000   0.83333   0.25000   0.00000  Uiso   1.00
O537   O     0.49027   0.79060   0.16625   0.00000  Uiso   1.00
O538   O     0.46020   0.87313   0.33749   0.00000  Uiso   1.00
O539   O     0.54421   0.84159   0.15877   0.00000  Uiso   1.00
O540   O     0.50532   0.82802   0.33749   0.00000  Uiso   1.00
O541   O     0.51182   0.74768   0.27821   0.00000  Uiso   1.00
O542   O     0.47914   0.92803   0.26767   0.00000  Uiso   1.00
O543   O     0.40785   0.79917   0.23607   0.00000  Uiso   1.00
O544   O     0.60119   0.85845   0.21806   0.00000  Uiso   1.00
O545   O     0.40323   0.85627   0.27820   0.00000  Uiso   1.00
O546   O     0.58773   0.81944   0.26768   0.00000  Uiso   1.00
O547   O     0.47133   0.73570   0.23607   0.00000  Uiso   1.00
O548   O     0.53771   0.92193   0.21806   0.00000  Uiso   1.00
Zn549  Zn    0.52577   0.80756   0.28278   0.00000  Uiso   1.00
Zn550  Zn    0.46792   0.79044   0.22258   0.00000  Uiso   1.00
Zn551  Zn    0.54500   0.86331   0.21188   0.00000  Uiso   1.00
Zn552  Zn    0.46131   0.87202   0.28277   0.00000  Uiso   1.00
C553   C     0.71908   0.82635   0.25914   0.00000  Uiso   1.00
C554   C     0.87350   0.80654   0.45876   0.00000  Uiso   1.00
C555   C     0.89878   0.79264   0.47818   0.00000  Uiso   1.00
C556   C     0.94788   0.84043   0.24106   0.00000  Uiso   1.00
C557   C     0.88733   0.79610   0.01923   0.00000  Uiso   1.00
C558   C     0.84770   0.81186   0.04137   0.00000  Uiso   1.00
C559   C     0.91522   0.78439   0.03852   0.00000  Uiso   1.00
C560   C     0.90379   0.78890   0.07968   0.00000  Uiso   1.00
C561   C     0.83701   0.81479   0.08280   0.00000  Uiso   1.00
C562   C     0.99440   0.84332   0.23694   0.00000  Uiso   1.00
C563   C     0.67384   0.82462   0.26185   0.00000  Uiso   1.00
C564   C     0.75892   0.87380   0.42224   0.00000  Uiso   1.00
C565   C     0.84756   0.98906   0.23868   0.00000  Uiso   1.00
C566   C     0.81739   0.67930   0.26234   0.00000  Uiso   1.00
C567   C     0.82262   0.72306   0.25878   0.00000  Uiso   1.00
C568   C     0.84346   0.94437   0.24142   0.00000  Uiso   1.00
C569   C     0.85509   0.81200   0.14404   0.00000  Uiso   1.00
C570   C     0.81150   0.85402   0.35625   0.00000  Uiso   1.00
C571   C     0.79817   0.85860   0.39977   0.00000  Uiso   1.00
C572   C     0.86491   0.80388   0.10148   0.00000  Uiso   1.00
C573   C     0.74586   0.87306   0.46309   0.00000  Uiso   1.00
C574   C     0.82389   0.84386   0.41885   0.00000  Uiso   1.00
C575   C     0.81049   0.84150   0.45983   0.00000  Uiso   1.00
C576   C     0.77093   0.85680   0.48183   0.00000  Uiso   1.00
C577   C     0.83528   0.82466   0.47955   0.00000  Uiso   1.00
C578   C     0.82107   0.82555   0.02142   0.00000  Uiso   1.00
C579   C     0.78084   0.84038   0.04191   0.00000  Uiso   1.00
C580   C     0.75640   0.85558   0.02241   0.00000  Uiso   1.00
H581   H     0.72584   0.86671   0.03938   0.00000  Uiso   1.00
H582   H     0.96997   0.75811   0.03479   0.00000  Uiso   1.00
H583   H     0.97666   0.79448   0.00424   0.00000  Uiso   1.00
H584   H     0.67738   0.88192   0.19276   0.00000  Uiso   1.00
H585   H     0.70904   0.84397   0.18571   0.00000  Uiso   1.00
H586   H     0.88445   0.99315   0.18241   0.00000  Uiso   1.00
H587   H     0.91242   0.66869   0.21625   0.00000  Uiso   1.00
H588   H     0.77893   0.67785   0.31830   0.00000  Uiso   1.00
H589   H     0.75215   0.66915   0.28360   0.00000  Uiso   1.00
H590   H     0.70132   0.87106   0.41097   0.00000  Uiso   1.00
H591   H     0.72717   0.91961   0.41579   0.00000  Uiso   1.00
H592   H     0.98422   0.80768   0.28484   0.00000  Uiso   1.00
H593   H     0.80830   0.82733   0.10175   0.00000  Uiso   1.00
H594   H     0.92542   0.78121   0.09483   0.00000  Uiso   1.00
H595   H     0.92798   0.77955   0.46048   0.00000  Uiso   1.00
H596   H     0.71552   0.88461   0.48012   0.00000  Uiso   1.00
H597   H     0.85444   0.83443   0.40069   0.00000  Uiso   1.00
H598   H     0.76673   0.84039   0.07320   0.00000  Uiso   1.00
H599   H     0.88499   0.80212   0.42715   0.00000  Uiso   1.00
N600   N     0.95562   0.76916   0.01627   0.00000  Uiso   1.00
N601   N     0.69260   0.86583   0.20702   0.00000  Uiso   1.00
N602   N     0.88438   0.67450   0.21038   0.00000  Uiso   1.00
N603   N     0.77926   0.99578   0.29051   0.00000  Uiso   1.00
N604   N     0.73156   0.88892   0.40381   0.00000  Uiso   1.00
O605   O     0.83333   0.83333   0.25000   0.00000  Uiso   1.00
O606   O     0.82360   0.79060   0.16625   0.00000  Uiso   1.00
O607   O     0.79354   0.87313   0.33749   0.00000  Uiso   1.00
O608   O     0.87755   0.84159   0.15877   0.00000  Uiso   1.00
O609   O     0.83865   0.82802   0.33749   0.00000  Uiso   1.00
O610   O     0.84515   0.74768   0.27821   0.00000  Uiso   1.00
O611   O     0.81247   0.92803   0.26767   0.00000  Uiso   1.00
O612   O     0.74119   0.79917   0.23607   0.00000  Uiso   1.00
O613   O     0.93452   0.85845   0.21806   0.00000  Uiso   1.00
O614   O     0.73656   0.85627   0.27820   0.00000  Uiso   1.00
O615   O     0.92106   0.81944   0.26768   0.00000  Uiso   1.00
O616   O     0.80467   0.73570   0.23607   0.00000  Uiso   1.00
O617   O     0.87104   0.92193   0.21806   0.00000  Uiso   1.00
Zn618  Zn    0.85910   0.80756   0.28278   0.00000  Uiso   1.00
Zn619  Zn    0.80125   0.79044   0.22258   0.00000  Uiso   1.00
Zn620  Zn    0.87833   0.86331   0.21188   0.00000  Uiso   1.00
Zn621  Zn    0.79465   0.87202   0.28277   0.00000  Uiso   1.00
C622   C     0.05241   0.15968   0.75914   0.00000  Uiso   1.00
C623   C     0.20683   0.13987   0.95876   0.00000  Uiso   1.00
C624   C     0.23211   0.12597   0.97818   0.00000  Uiso   1.00
C625   C     0.28121   0.17377   0.74106   0.00000  Uiso   1.00
C626   C     0.22066   0.12943   0.51923   0.00000  Uiso   1.00
C627   C     0.18104   0.14519   0.54137   0.00000  Uiso   1.00
C628   C     0.24856   0.11773   0.53852   0.00000  Uiso   1.00
C629   C     0.23712   0.12223   0.57968   0.00000  Uiso   1.00
C630   C     0.17035   0.14812   0.58280   0.00000  Uiso   1.00
C631   C     0.32773   0.17665   0.73694   0.00000  Uiso   1.00
C632   C     0.00718   0.15796   0.76185   0.00000  Uiso   1.00
C633   C     0.09226   0.20713   0.92224   0.00000  Uiso   1.00
C634   C     0.18089   0.32239   0.73868   0.00000  Uiso   1.00
C635   C     0.15073   0.01263   0.76234   0.00000  Uiso   1.00
C636   C     0.15596   0.05640   0.75878   0.00000  Uiso   1.00
C637   C     0.17680   0.27771   0.74142   0.00000  Uiso   1.00
C638   C     0.18842   0.14534   0.64404   0.00000  Uiso   1.00
C639   C     0.14483   0.18735   0.85625   0.00000  Uiso   1.00
C640   C     0.13150   0.19193   0.89977   0.00000  Uiso   1.00
C641   C     0.19825   0.13721   0.60148   0.00000  Uiso   1.00
C642   C     0.07919   0.20640   0.96309   0.00000  Uiso   1.00
C643   C     0.15723   0.17720   0.91885   0.00000  Uiso   1.00
C644   C     0.14382   0.17483   0.95983   0.00000  Uiso   1.00
C645   C     0.10426   0.19014   0.98183   0.00000  Uiso   1.00
C646   C     0.16861   0.15799   0.97955   0.00000  Uiso   1.00
C647   C     0.15440   0.15889   0.52142   0.00000  Uiso   1.00
C648   C     0.11417   0.17371   0.54191   0.00000  Uiso   1.00
C649   C     0.08973   0.18891   0.52241   0.00000  Uiso   1.00
H650   H     0.05917   0.20004   0.53938   0.00000  Uiso   1.00
H651   H     0.30330   0.09145   0.53479   0.00000  Uiso   1.00
H652   H     0.31000   0.12781   0.50424   0.00000  Uiso   1.00
H653   H     0.01071   0.21526   0.69276   0.00000  Uiso   1.00
H654   H     0.04237   0.17730   0.68571   0.00000  Uiso   1.00
H655   H     0.21779   0.32648   0.68241   0.00000  Uiso   1.00
H656   H     0.24575   0.00203   0.71625   0.00000  Uiso   1.00
H657   H     0.11227   0.01119   0.81830   0.00000  Uiso   1.00
H658   H     0.08549   0.00248   0.78360   0.00000  Uiso   1.00
H659   H     0.03465   0.20440   0.91097   0.00000  Uiso   1.00
H660   H     0.06051   0.25294   0.91579   0.00000  Uiso   1.00
H661   H     0.31755   0.14101   0.78484   0.00000  Uiso   1.00
H662   H     0.14163   0.16066   0.60175   0.00000  Uiso   1.00
H663   H     0.25875   0.11454   0.59483   0.00000  Uiso   1.00
H664   H     0.26132   0.11289   0.96048   0.00000  Uiso   1.00
H665   H     0.04885   0.21794   0.98012   0.00000  Uiso   1.00
H666   H     0.18777   0.16777   0.90069   0.00000  Uiso   1.00
H667   H     0.10007   0.17372   0.57320   0.00000  Uiso   1.00
H668   H     0.21832   0.13546   0.92715   0.00000  Uiso   1.00
N669   N     0.28896   0.10249   0.51627   0.00000  Uiso   1.00
N670   N     0.02593   0.19917   0.70702   0.00000  Uiso   1.00
N671   N     0.21772   0.00784   0.71038   0.00000  Uiso   1.00
N672   N     0.11259   0.32911   0.79051   0.00000  Uiso   1.00
N673   N     0.06490   0.22225   0.90381   0.00000  Uiso   1.00
O674   O     0.16667   0.16667   0.75000   0.00000  Uiso   1.00
O675   O     0.15693   0.12393   0.66625   0.00000  Uiso   1.00
O676   O     0.12687   0.20646   0.83749   0.00000  Uiso   1.00
O677   O     0.21088   0.17493   0.65877   0.00000  Uiso   1.00
O678   O     0.17198   0.16135   0.83749   0.00000  Uiso   1.00
O679   O     0.17849   0.08101   0.77821   0.00000  Uiso   1.00
O680   O     0.14581   0.26136   0.76767   0.00000  Uiso   1.00
O681   O     0.07452   0.13251   0.73607   0.00000  Uiso   1.00
O682   O     0.26785   0.19179   0.71806   0.00000  Uiso   1.00
O683   O     0.06990   0.18960   0.77820   0.00000  Uiso   1.00
O684   O     0.25440   0.15277   0.76768   0.00000  Uiso   1.00
O685   O     0.13800   0.06903   0.73607   0.00000  Uiso   1.00
O686   O     0.20437   0.25527   0.71806   0.00000  Uiso   1.00
Zn687  Zn    0.19244   0.14090   0.78278   0.00000  Uiso   1.00
Zn688  Zn    0.13459   0.12378   0.72258   0.00000  Uiso   1.00
Zn689  Zn    0.21166   0.19664   0.71188   0.00000  Uiso   1.00
Zn690  Zn    0.12798   0.20535   0.78277   0.00000  Uiso   1.00
C691   C     0.38575   0.15968   0.75914   0.00000  Uiso   1.00
C692   C     0.54017   0.13987   0.95876   0.00000  Uiso   1.00
C693   C     0.56545   0.12597   0.97818   0.00000  Uiso   1.00
C694   C     0.61454   0.17377   0.74106   0.00000  Uiso   1.00
C695   C     0.55400   0.12943   0.51923   0.00000  Uiso   1.00
C696   C     0.51437   0.14519   0.54137   0.00000  Uiso   1.00
C697   C     0.58189   0.11773   0.53852   0.00000  Uiso   1.00
C698   C     0.57046   0.12223   0.57968   0.00000  Uiso   1.00
C699   C     0.50368   0.14812   0.58280   0.00000  Uiso   1.00
C700   C     0.66107   0.17665   0.73694   0.00000  Uiso   1.00
C701   C     0.34051   0.15796   0.76185   0.00000  Uiso   1.00
C702   C     0.42559   0.20713   0.92224   0.00000  Uiso   1.00
C703   C     0.51422   0.32239   0.73868   0.00000  Uiso   1.00
C704   C     0.48406   0.01263   0.76234   0.00000  Uiso   1.00
C705   C     0.48929   0.05640   0.75878   0.00000  Uiso   1.00
C706   C     0.51013   0.27771   0.74142   0.00000  Uiso   1.00
C707   C     0.52175   0.14534   0.64404   0.00000  Uiso   1.00
C708   C     0.47817   0.18735   0.85625   0.00000  Uiso   1.00
C709   C     0.46484   0.19193   0.89977   0.00000  Uiso   1.00
C710   C     0.53158   0.13721   0.60148   0.00000  Uiso   1.00
C711   C     0.41252   0.20640   0.96309   0.00000  Uiso   1.00
C712   C     0.49056   0.17720   0.91885   0.00000  Uiso   1.00
C713   C     0.47716   0.17483   0.95983   0.00000  Uiso   1.00
C714   C     0.43759   0.19014   0.98183   0.00000  Uiso   1.00
C715   C     0.50194   0.15799   0.97955   0.00000  Uiso   1.00
C716   C     0.48774   0.15889   0.52142   0.00000  Uiso   1.00
C717   C     0.44751   0.17371   0.54191   0.00000  Uiso   1.00
C718   C     0.42307   0.18891   0.52241   0.00000  Uiso   1.00
H719   H     0.39250   0.20004   0.53938   0.00000  Uiso   1.00
H720   H     0.63664   0.09145   0.53479   0.00000  Uiso   1.00
H721   H     0.64333   0.12781   0.50424   0.00000  Uiso   1.00
H722   H     0.34405   0.21526   0.69276   0.00000  Uiso   1.00
H723   H     0.37570   0.17730   0.68571   0.00000  Uiso   1.00
H724   H     0.55112   0.32648   0.68241   0.00000  Uiso   1.00
H725   H     0.57909   0.00203   0.71625   0.00000  Uiso   1.00
H726   H     0.44560   0.01119   0.81830   0.00000  Uiso   1.00
H727   H     0.41882   0.00248   0.78360   0.00000  Uiso   1.00
H728   H     0.36799   0.20440   0.91097   0.00000  Uiso   1.00
H729   H     0.39384   0.25294   0.91579   0.00000  Uiso   1.00
H730   H     0.65088   0.14101   0.78484   0.00000  Uiso   1.00
H731   H     0.47497   0.16066   0.60175   0.00000  Uiso   1.00
H732   H     0.59208   0.11454   0.59483   0.00000  Uiso   1.00
H733   H     0.59465   0.11289   0.96048   0.00000  Uiso   1.00
H734   H     0.38218   0.21794   0.98012   0.00000  Uiso   1.00
H735   H     0.52111   0.16777   0.90069   0.00000  Uiso   1.00
H736   H     0.43340   0.17372   0.57320   0.00000  Uiso   1.00
H737   H     0.55165   0.13546   0.92715   0.00000  Uiso   1.00
N738   N     0.62229   0.10249   0.51627   0.00000  Uiso   1.00
N739   N     0.35926   0.19917   0.70702   0.00000  Uiso   1.00
N740   N     0.55105   0.00784   0.71038   0.00000  Uiso   1.00
N741   N     0.44593   0.32911   0.79051   0.00000  Uiso   1.00
N742   N     0.39823   0.22225   0.90381   0.00000  Uiso   1.00
O743   O     0.50000   0.16667   0.75000   0.00000  Uiso   1.00
O744   O     0.49027   0.12393   0.66625   0.00000  Uiso   1.00
O745   O     0.46020   0.20646   0.83749   0.00000  Uiso   1.00
O746   O     0.54421   0.17493   0.65877   0.00000  Uiso   1.00
O747   O     0.50532   0.16135   0.83749   0.00000  Uiso   1.00
O748   O     0.51182   0.08101   0.77821   0.00000  Uiso   1.00
O749   O     0.47914   0.26136   0.76767   0.00000  Uiso   1.00
O750   O     0.40785   0.13251   0.73607   0.00000  Uiso   1.00
O751   O     0.60119   0.19179   0.71806   0.00000  Uiso   1.00
O752   O     0.40323   0.18960   0.77820   0.00000  Uiso   1.00
O753   O     0.58773   0.15277   0.76768   0.00000  Uiso   1.00
O754   O     0.47133   0.06903   0.73607   0.00000  Uiso   1.00
O755   O     0.53771   0.25527   0.71806   0.00000  Uiso   1.00
Zn756  Zn    0.52577   0.14090   0.78278   0.00000  Uiso   1.00
Zn757  Zn    0.46792   0.12378   0.72258   0.00000  Uiso   1.00
Zn758  Zn    0.54500   0.19664   0.71188   0.00000  Uiso   1.00
Zn759  Zn    0.46131   0.20535   0.78277   0.00000  Uiso   1.00
C760   C     0.71908   0.15968   0.75914   0.00000  Uiso   1.00
C761   C     0.87350   0.13987   0.95876   0.00000  Uiso   1.00
C762   C     0.89878   0.12597   0.97818   0.00000  Uiso   1.00
C763   C     0.94788   0.17377   0.74106   0.00000  Uiso   1.00
C764   C     0.88733   0.12943   0.51923   0.00000  Uiso   1.00
C765   C     0.84770   0.14519   0.54137   0.00000  Uiso   1.00
C766   C     0.91522   0.11773   0.53852   0.00000  Uiso   1.00
C767   C     0.90379   0.12223   0.57968   0.00000  Uiso   1.00
C768   C     0.83701   0.14812   0.58280   0.00000  Uiso   1.00
C769   C     0.99440   0.17665   0.73694   0.00000  Uiso   1.00
C770   C     0.67384   0.15796   0.76185   0.00000  Uiso   1.00
C771   C     0.75892   0.20713   0.92224   0.00000  Uiso   1.00
C772   C     0.84756   0.32239   0.73868   0.00000  Uiso   1.00
C773   C     0.81739   0.01263   0.76234   0.00000  Uiso   1.00
C774   C     0.82262   0.05640   0.75878   0.00000  Uiso   1.00
C775   C     0.84346   0.27771   0.74142   0.00000  Uiso   1.00
C776   C     0.85509   0.14534   0.64404   0.00000  Uiso   1.00
C777   C     0.81150   0.18735   0.85625   0.00000  Uiso   1.00
C778   C     0.79817   0.19193   0.89977   0.00000  Uiso   1.00
C779   C     0.86491   0.13721   0.60148   0.00000  Uiso   1.00
C780   C     0.74586   0.20640   0.96309   0.00000  Uiso   1.00
C781   C     0.82389   0.17720   0.91885   0.00000  Uiso   1.00
C782   C     0.81049   0.17483   0.95983   0.00000  Uiso   1.00
C783   C     0.77093   0.19014   0.98183   0.00000  Uiso   1.00
C784   C     0.83528   0.15799   0.97955   0.00000  Uiso   1.00
C785   C     0.82107   0.15889   0.52142   0.00000  Uiso   1.00
C786   C     0.78084   0.17371   0.54191   0.00000  Uiso   1.00
C787   C     0.75640   0.18891   0.52241   0.00000  Uiso   1.00
H788   H     0.72584   0.20004   0.53938   0.00000  Uiso   1.00
H789   H     0.96997   0.09145   0.53479   0.00000  Uiso   1.00
H790   H     0.97666   0.12781   0.50424   0.00000  Uiso   1.00
H791   H     0.67738   0.21526   0.69276   0.00000  Uiso   1.00
H792   H     0.70904   0.17730   0.68571   0.00000  Uiso   1.00
H793   H     0.88445   0.32648   0.68241   0.00000  Uiso   1.00
H794   H     0.91242   0.00203   0.71625   0.00000  Uiso   1.00
H795   H     0.77893   0.01119   0.81830   0.00000  Uiso   1.00
H796   H     0.75215   0.00248   0.78360   0.00000  Uiso   1.00
H797   H     0.70132   0.20440   0.91097   0.00000  Uiso   1.00
H798   H     0.72717   0.25294   0.91579   0.00000  Uiso   1.00
H799   H     0.98422   0.14101   0.78484   0.00000  Uiso   1.00
H800   H     0.80830   0.16066   0.60175   0.00000  Uiso   1.00
H801   H     0.92542   0.11454   0.59483   0.00000  Uiso   1.00
H802   H     0.92798   0.11289   0.96048   0.00000  Uiso   1.00
H803   H     0.71552   0.21794   0.98012   0.00000  Uiso   1.00
H804   H     0.85444   0.16777   0.90069   0.00000  Uiso   1.00
H805   H     0.76673   0.17372   0.57320   0.00000  Uiso   1.00
H806   H     0.88499   0.13546   0.92715   0.00000  Uiso   1.00
N807   N     0.95562   0.10249   0.51627   0.00000  Uiso   1.00
N808   N     0.69260   0.19917   0.70702   0.00000  Uiso   1.00
N809   N     0.88438   0.00784   0.71038   0.00000  Uiso   1.00
N810   N     0.77926   0.32911   0.79051   0.00000  Uiso   1.00
N811   N     0.73156   0.22225   0.90381   0.00000  Uiso   1.00
O812   O     0.83333   0.16667   0.75000   0.00000  Uiso   1.00
O813   O     0.82360   0.12393   0.66625   0.00000  Uiso   1.00
O814   O     0.79354   0.20646   0.83749   0.00000  Uiso   1.00
O815   O     0.87755   0.17493   0.65877   0.00000  Uiso   1.00
O816   O     0.83865   0.16135   0.83749   0.00000  Uiso   1.00
O817   O     0.84515   0.08101   0.77821   0.00000  Uiso   1.00
O818   O     0.81247   0.26136   0.76767   0.00000  Uiso   1.00
O819   O     0.74119   0.13251   0.73607   0.00000  Uiso   1.00
O820   O     0.93452   0.19179   0.71806   0.00000  Uiso   1.00
O821   O     0.73656   0.18960   0.77820   0.00000  Uiso   1.00
O822   O     0.92106   0.15277   0.76768   0.00000  Uiso   1.00
O823   O     0.80467   0.06903   0.73607   0.00000  Uiso   1.00
O824   O     0.87104   0.25527   0.71806   0.00000  Uiso   1.00
Zn825  Zn    0.85910   0.14090   0.78278   0.00000  Uiso   1.00
Zn826  Zn    0.80125   0.12378   0.72258   0.00000  Uiso   1.00
Zn827  Zn    0.87833   0.19664   0.71188   0.00000  Uiso   1.00
Zn828  Zn    0.79465   0.20535   0.78277   0.00000  Uiso   1.00
C829   C     0.05241   0.49302   0.75914   0.00000  Uiso   1.00
C830   C     0.20683   0.47321   0.95876   0.00000  Uiso   1.00
C831   C     0.23211   0.45930   0.97818   0.00000  Uiso   1.00
C832   C     0.28121   0.50710   0.74106   0.00000  Uiso   1.00
C833   C     0.22066   0.46276   0.51923   0.00000  Uiso   1.00
C834   C     0.18104   0.47852   0.54137   0.00000  Uiso   1.00
C835   C     0.24856   0.45106   0.53852   0.00000  Uiso   1.00
C836   C     0.23712   0.45557   0.57968   0.00000  Uiso   1.00
C837   C     0.17035   0.48146   0.58280   0.00000  Uiso   1.00
C838   C     0.32773   0.50999   0.73694   0.00000  Uiso   1.00
C839   C     0.00718   0.49129   0.76185   0.00000  Uiso   1.00
C840   C     0.09226   0.54047   0.92224   0.00000  Uiso   1.00
C841   C     0.18089   0.65572   0.73868   0.00000  Uiso   1.00
C842   C     0.15073   0.34596   0.76234   0.00000  Uiso   1.00
C843   C     0.15596   0.38973   0.75878   0.00000  Uiso   1.00
C844   C     0.17680   0.61104   0.74142   0.00000  Uiso   1.00
C845   C     0.18842   0.47867   0.64404   0.00000  Uiso   1.00
C846   C     0.14483   0.52069   0.85625   0.00000  Uiso   1.00
C847   C     0.13150   0.52527   0.89977   0.00000  Uiso   1.00
C848   C     0.19825   0.47055   0.60148   0.00000  Uiso   1.00
C849   C     0.07919   0.53973   0.96309   0.00000  Uiso   1.00
C850   C     0.15723   0.51053   0.91885   0.00000  Uiso   1.00
C851   C     0.14382   0.50816   0.95983   0.00000  Uiso   1.00
C852   C     0.10426   0.52347   0.98183   0.00000  Uiso   1.00
C853   C     0.16861   0.49132   0.97955   0.00000  Uiso   1.00
C854   C     0.15440   0.49222   0.52142   0.00000  Uiso   1.00
C855   C     0.11417   0.50705   0.54191   0.00000  Uiso   1.00
C856   C     0.08973   0.52225   0.52241   0.00000  Uiso   1.00
H857   H     0.05917   0.53337   0.53938   0.00000  Uiso   1.00
H858   H     0.30330   0.42478   0.53479   0.00000  Uiso   1.00
H859   H     0.31000   0.46115   0.50424   0.00000  Uiso   1.00
H860   H     0.01071   0.54859   0.69276   0.00000  Uiso   1.00
H861   H     0.04237   0.51063   0.68571   0.00000  Uiso   1.00
H862   H     0.21779   0.65981   0.68241   0.00000  Uiso   1.00
H863   H     0.24575   0.33536   0.71625   0.00000  Uiso   1.00
H864   H     0.11227   0.34452   0.81830   0.00000  Uiso   1.00
H865   H     0.08549   0.33581   0.78360   0.00000  Uiso   1.00
H866   H     0.03465   0.53773   0.91097   0.00000  Uiso   1.00
H867   H     0.06051   0.58627   0.91579   0.00000  Uiso   1.00
H868   H     0.31755   0.47435   0.78484   0.00000  Uiso   1.00
H869   H     0.14163   0.49399   0.60175   0.00000  Uiso   1.00
H870   H     0.25875   0.44787   0.59483   0.00000  Uiso   1.00
H871   H     0.26132   0.44622   0.96048   0.00000  Uiso   1.00
H872   H     0.04885   0.55128   0.98012   0.00000  Uiso   1.00
H873   H     0.18777   0.50110   0.90069   0.00000  Uiso   1.00
H874   H     0.10007   0.50706   0.57320   0.00000  Uiso   1.00
H875   H     0.21832   0.46879   0.92715   0.00000  Uiso   1.00
N876   N     0.28896   0.43583   0.51627   0.00000  Uiso   1.00
N877   N     0.02593   0.53250   0.70702   0.00000  Uiso   1.00
N878   N     0.21772   0.34117   0.71038   0.00000  Uiso   1.00
N879   N     0.11259   0.66245   0.79051   0.00000  Uiso   1.00
N880   N     0.06490   0.55558   0.90381   0.00000  Uiso   1.00
O881   O     0.16667   0.50000   0.75000   0.00000  Uiso   1.00
O882   O     0.15693   0.45726   0.66625   0.00000  Uiso   1.00
O883   O     0.12687   0.53979   0.83749   0.00000  Uiso   1.00
O884   O     0.21088   0.50826   0.65877   0.00000  Uiso   1.00
O885   O     0.17198   0.49468   0.83749   0.00000  Uiso   1.00
O886   O     0.17849   0.41434   0.77821   0.00000  Uiso   1.00
O887   O     0.14581   0.59469   0.76767   0.00000  Uiso   1.00
O888   O     0.07452   0.46584   0.73607   0.00000  Uiso   1.00
O889   O     0.26785   0.52512   0.71806   0.00000  Uiso   1.00
O890   O     0.06990   0.52293   0.77820   0.00000  Uiso   1.00
O891   O     0.25440   0.48610   0.76768   0.00000  Uiso   1.00
O892   O     0.13800   0.40236   0.73607   0.00000  Uiso   1.00
O893   O     0.20437   0.58860   0.71806   0.00000  Uiso   1.00
Zn894  Zn    0.19244   0.47423   0.78278   0.00000  Uiso   1.00
Zn895  Zn    0.13459   0.45711   0.72258   0.00000  Uiso   1.00
Zn896  Zn    0.21166   0.52997   0.71188   0.00000  Uiso   1.00
Zn897  Zn    0.12798   0.53868   0.78277   0.00000  Uiso   1.00
C898   C     0.38575   0.49302   0.75914   0.00000  Uiso   1.00
C899   C     0.54017   0.47321   0.95876   0.00000  Uiso   1.00
C900   C     0.56545   0.45930   0.97818   0.00000  Uiso   1.00
C901   C     0.61454   0.50710   0.74106   0.00000  Uiso   1.00
C902   C     0.55400   0.46276   0.51923   0.00000  Uiso   1.00
C903   C     0.51437   0.47852   0.54137   0.00000  Uiso   1.00
C904   C     0.58189   0.45106   0.53852   0.00000  Uiso   1.00
C905   C     0.57046   0.45557   0.57968   0.00000  Uiso   1.00
C906   C     0.50368   0.48146   0.58280   0.00000  Uiso   1.00
C907   C     0.66107   0.50999   0.73694   0.00000  Uiso   1.00
C908   C     0.34051   0.49129   0.76185   0.00000  Uiso   1.00
C909   C     0.42559   0.54047   0.92224   0.00000  Uiso   1.00
C910   C     0.51422   0.65572   0.73868   0.00000  Uiso   1.00
C911   C     0.48406   0.34596   0.76234   0.00000  Uiso   1.00
C912   C     0.48929   0.38973   0.75878   0.00000  Uiso   1.00
C913   C     0.51013   0.61104   0.74142   0.00000  Uiso   1.00
C914   C     0.52175   0.47867   0.64404   0.00000  Uiso   1.00
C915   C     0.47817   0.52069   0.85625   0.00000  Uiso   1.00
C916   C     0.46484   0.52527   0.89977   0.00000  Uiso   1.00
C917   C     0.53158   0.47055   0.60148   0.00000  Uiso   1.00
C918   C     0.41252   0.53973   0.96309   0.00000  Uiso   1.00
C919   C     0.49056   0.51053   0.91885   0.00000  Uiso   1.00
C920   C     0.47716   0.50816   0.95983   0.00000  Uiso   1.00
C921   C     0.43759   0.52347   0.98183   0.00000  Uiso   1.00
C922   C     0.50194   0.49132   0.97955   0.00000  Uiso   1.00
C923   C     0.48774   0.49222   0.52142   0.00000  Uiso   1.00
C924   C     0.44751   0.50705   0.54191   0.00000  Uiso   1.00
C925   C     0.42307   0.52225   0.52241   0.00000  Uiso   1.00
H926   H     0.39250   0.53337   0.53938   0.00000  Uiso   1.00
H927   H     0.63664   0.42478   0.53479   0.00000  Uiso   1.00
H928   H     0.64333   0.46115   0.50424   0.00000  Uiso   1.00
H929   H     0.34405   0.54859   0.69276   0.00000  Uiso   1.00
H930   H     0.37570   0.51063   0.68571   0.00000  Uiso   1.00
H931   H     0.55112   0.65981   0.68241   0.00000  Uiso   1.00
H932   H     0.57909   0.33536   0.71625   0.00000  Uiso   1.00
H933   H     0.44560   0.34452   0.81830   0.00000  Uiso   1.00
H934   H     0.41882   0.33581   0.78360   0.00000  Uiso   1.00
H935   H     0.36799   0.53773   0.91097   0.00000  Uiso   1.00
H936   H     0.39384   0.58627   0.91579   0.00000  Uiso   1.00
H937   H     0.65088   0.47435   0.78484   0.00000  Uiso   1.00
H938   H     0.47497   0.49399   0.60175   0.00000  Uiso   1.00
H939   H     0.59208   0.44787   0.59483   0.00000  Uiso   1.00
H940   H     0.59465   0.44622   0.96048   0.00000  Uiso   1.00
H941   H     0.38218   0.55128   0.98012   0.00000  Uiso   1.00
H942   H     0.52111   0.50110   0.90069   0.00000  Uiso   1.00
H943   H     0.43340   0.50706   0.57320   0.00000  Uiso   1.00
H944   H     0.55165   0.46879   0.92715   0.00000  Uiso   1.00
N945   N     0.62229   0.43583   0.51627   0.00000  Uiso   1.00
N946   N     0.35926   0.53250   0.70702   0.00000  Uiso   1.00
N947   N     0.55105   0.34117   0.71038   0.00000  Uiso   1.00
N948   N     0.44593   0.66245   0.79051   0.00000  Uiso   1.00
N949   N     0.39823   0.55558   0.90381   0.00000  Uiso   1.00
O950   O     0.50000   0.50000   0.75000   0.00000  Uiso   1.00
O951   O     0.49027   0.45726   0.66625   0.00000  Uiso   1.00
O952   O     0.46020   0.53979   0.83749   0.00000  Uiso   1.00
O953   O     0.54421   0.50826   0.65877   0.00000  Uiso   1.00
O954   O     0.50532   0.49468   0.83749   0.00000  Uiso   1.00
O955   O     0.51182   0.41434   0.77821   0.00000  Uiso   1.00
O956   O     0.47914   0.59469   0.76767   0.00000  Uiso   1.00
O957   O     0.40785   0.46584   0.73607   0.00000  Uiso   1.00
O958   O     0.60119   0.52512   0.71806   0.00000  Uiso   1.00
O959   O     0.40323   0.52293   0.77820   0.00000  Uiso   1.00
O960   O     0.58773   0.48610   0.76768   0.00000  Uiso   1.00
O961   O     0.47133   0.40236   0.73607   0.00000  Uiso   1.00
O962   O     0.53771   0.58860   0.71806   0.00000  Uiso   1.00
Zn963  Zn    0.52577   0.47423   0.78278   0.00000  Uiso   1.00
Zn964  Zn    0.46792   0.45711   0.72258   0.00000  Uiso   1.00
Zn965  Zn    0.54500   0.52997   0.71188   0.00000  Uiso   1.00
Zn966  Zn    0.46131   0.53868   0.78277   0.00000  Uiso   1.00
C967   C     0.71908   0.49302   0.75914   0.00000  Uiso   1.00
C968   C     0.87350   0.47321   0.95876   0.00000  Uiso   1.00
C969   C     0.89878   0.45930   0.97818   0.00000  Uiso   1.00
C970   C     0.94788   0.50710   0.74106   0.00000  Uiso   1.00
C971   C     0.88733   0.46276   0.51923   0.00000  Uiso   1.00
C972   C     0.84770   0.47852   0.54137   0.00000  Uiso   1.00
C973   C     0.91522   0.45106   0.53852   0.00000  Uiso   1.00
C974   C     0.90379   0.45557   0.57968   0.00000  Uiso   1.00
C975   C     0.83701   0.48146   0.58280   0.00000  Uiso   1.00
C976   C     0.99440   0.50999   0.73694   0.00000  Uiso   1.00
C977   C     0.67384   0.49129   0.76185   0.00000  Uiso   1.00
C978   C     0.75892   0.54047   0.92224   0.00000  Uiso   1.00
C979   C     0.84756   0.65572   0.73868   0.00000  Uiso   1.00
C980   C     0.81739   0.34596   0.76234   0.00000  Uiso   1.00
C981   C     0.82262   0.38973   0.75878   0.00000  Uiso   1.00
C982   C     0.84346   0.61104   0.74142   0.00000  Uiso   1.00
C983   C     0.85509   0.47867   0.64404   0.00000  Uiso   1.00
C984   C     0.81150   0.52069   0.85625   0.00000  Uiso   1.00
C985   C     0.79817   0.52527   0.89977   0.00000  Uiso   1.00
C986   C     0.86491   0.47055   0.60148   0.00000  Uiso   1.00
C987   C     0.74586   0.53973   0.96309   0.00000  Uiso   1.00
C988   C     0.82389   0.51053   0.91885   0.00000  Uiso   1.00
C989   C     0.81049   0.50816   0.95983   0.00000  Uiso   1.00
C990   C     0.77093   0.52347   0.98183   0.00000  Uiso   1.00
C991   C     0.83528   0.49132   0.97955   0.00000  Uiso   1.00
C992   C     0.82107   0.49222   0.52142   0.00000  Uiso   1.00
C993   C     0.78084   0.50705   0.54191   0.00000  Uiso   1.00
C994   C     0.75640   0.52225   0.52241   0.00000  Uiso   1.00
H995   H     0.72584   0.53337   0.53938   0.00000  Uiso   1.00
H996   H     0.96997   0.42478   0.53479   0.00000  Uiso   1.00
H997   H     0.97666   0.46115   0.50424   0.00000  Uiso   1.00
H998   H     0.67738   0.54859   0.69276   0.00000  Uiso   1.00
H999   H     0.70904   0.51063   0.68571   0.00000  Uiso   1.00
H1000  H     0.88445   0.65981   0.68241   0.00000  Uiso   1.00
H1001  H     0.91242   0.33536   0.71625   0.00000  Uiso   1.00
H1002  H     0.77893   0.34452   0.81830   0.00000  Uiso   1.00
H1003  H     0.75215   0.33581   0.78360   0.00000  Uiso   1.00
H1004  H     0.70132   0.53773   0.91097   0.00000  Uiso   1.00
H1005  H     0.72717   0.58627   0.91579   0.00000  Uiso   1.00
H1006  H     0.98422   0.47435   0.78484   0.00000  Uiso   1.00
H1007  H     0.80830   0.49399   0.60175   0.00000  Uiso   1.00
H1008  H     0.92542   0.44787   0.59483   0.00000  Uiso   1.00
H1009  H     0.92798   0.44622   0.96048   0.00000  Uiso   1.00
H1010  H     0.71552   0.55128   0.98012   0.00000  Uiso   1.00
H1011  H     0.85444   0.50110   0.90069   0.00000  Uiso   1.00
H1012  H     0.76673   0.50706   0.57320   0.00000  Uiso   1.00
H1013  H     0.88499   0.46879   0.92715   0.00000  Uiso   1.00
N1014  N     0.95562   0.43583   0.51627   0.00000  Uiso   1.00
N1015  N     0.69260   0.53250   0.70702   0.00000  Uiso   1.00
N1016  N     0.88438   0.34117   0.71038   0.00000  Uiso   1.00
N1017  N     0.77926   0.66245   0.79051   0.00000  Uiso   1.00
N1018  N     0.73156   0.55558   0.90381   0.00000  Uiso   1.00
O1019  O     0.83333   0.50000   0.75000   0.00000  Uiso   1.00
O1020  O     0.82360   0.45726   0.66625   0.00000  Uiso   1.00
O1021  O     0.79354   0.53979   0.83749   0.00000  Uiso   1.00
O1022  O     0.87755   0.50826   0.65877   0.00000  Uiso   1.00
O1023  O     0.83865   0.49468   0.83749   0.00000  Uiso   1.00
O1024  O     0.84515   0.41434   0.77821   0.00000  Uiso   1.00
O1025  O     0.81247   0.59469   0.76767   0.00000  Uiso   1.00
O1026  O     0.74119   0.46584   0.73607   0.00000  Uiso   1.00
O1027  O     0.93452   0.52512   0.71806   0.00000  Uiso   1.00
O1028  O     0.73656   0.52293   0.77820   0.00000  Uiso   1.00
O1029  O     0.92106   0.48610   0.76768   0.00000  Uiso   1.00
O1030  O     0.80467   0.40236   0.73607   0.00000  Uiso   1.00
O1031  O     0.87104   0.58860   0.71806   0.00000  Uiso   1.00
Zn1032 Zn    0.85910   0.47423   0.78278   0.00000  Uiso   1.00
Zn1033 Zn    0.80125   0.45711   0.72258   0.00000  Uiso   1.00
Zn1034 Zn    0.87833   0.52997   0.71188   0.00000  Uiso   1.00
Zn1035 Zn    0.79465   0.53868   0.78277   0.00000  Uiso   1.00
C1036  C     0.05241   0.82635   0.75914   0.00000  Uiso   1.00
C1037  C     0.20683   0.80654   0.95876   0.00000  Uiso   1.00
C1038  C     0.23211   0.79264   0.97818   0.00000  Uiso   1.00
C1039  C     0.28121   0.84043   0.74106   0.00000  Uiso   1.00
C1040  C     0.22066   0.79610   0.51923   0.00000  Uiso   1.00
C1041  C     0.18104   0.81186   0.54137   0.00000  Uiso   1.00
C1042  C     0.24856   0.78439   0.53852   0.00000  Uiso   1.00
C1043  C     0.23712   0.78890   0.57968   0.00000  Uiso   1.00
C1044  C     0.17035   0.81479   0.58280   0.00000  Uiso   1.00
C1045  C     0.32773   0.84332   0.73694   0.00000  Uiso   1.00
C1046  C     0.00718   0.82462   0.76185   0.00000  Uiso   1.00
C1047  C     0.09226   0.87380   0.92224   0.00000  Uiso   1.00
C1048  C     0.18089   0.98906   0.73868   0.00000  Uiso   1.00
C1049  C     0.15073   0.67930   0.76234   0.00000  Uiso   1.00
C1050  C     0.15596   0.72306   0.75878   0.00000  Uiso   1.00
C1051  C     0.17680   0.94437   0.74142   0.00000  Uiso   1.00
C1052  C     0.18842   0.81200   0.64404   0.00000  Uiso   1.00
C1053  C     0.14483   0.85402   0.85625   0.00000  Uiso   1.00
C1054  C     0.13150   0.85860   0.89977   0.00000  Uiso   1.00
C1055  C     0.19825   0.80388   0.60148   0.00000  Uiso   1.00
C1056  C     0.07919   0.87306   0.96309   0.00000  Uiso   1.00
C1057  C     0.15723   0.84386   0.91885   0.00000  Uiso   1.00
C1058  C     0.14382   0.84150   0.95983   0.00000  Uiso   1.00
C1059  C     0.10426   0.85680   0.98183   0.00000  Uiso   1.00
C1060  C     0.16861   0.82466   0.97955   0.00000  Uiso   1.00
C1061  C     0.15440   0.82555   0.52142   0.00000  Uiso   1.00
C1062  C     0.11417   0.84038   0.54191   0.00000  Uiso   1.00
C1063  C     0.08973   0.85558   0.52241   0.00000  Uiso   1.00
H1064  H     0.05917   0.86671   0.53938   0.00000  Uiso   1.00
H1065  H     0.30330   0.75811   0.53479   0.00000  Uiso   1.00
H1066  H     0.31000   0.79448   0.50424   0.00000  Uiso   1.00
H1067  H     0.01071   0.88192   0.69276   0.00000  Uiso   1.00
H1068  H     0.04237   0.84397   0.68571   0.00000  Uiso   1.00
H1069  H     0.21779   0.99315   0.68241   0.00000  Uiso   1.00
H1070  H     0.24575   0.66869   0.71625   0.00000  Uiso   1.00
H1071  H     0.11227   0.67785   0.81830   0.00000  Uiso   1.00
H1072  H     0.08549   0.66915   0.78360   0.00000  Uiso   1.00
H1073  H     0.03465   0.87106   0.91097   0.00000  Uiso   1.00
H1074  H     0.06051   0.91961   0.91579   0.00000  Uiso   1.00
H1075  H     0.31755   0.80768   0.78484   0.00000  Uiso   1.00
H1076  H     0.14163   0.82733   0.60175   0.00000  Uiso   1.00
H1077  H     0.25875   0.78121   0.59483   0.00000  Uiso   1.00
H1078  H     0.26132   0.77955   0.96048   0.00000  Uiso   1.00
H1079  H     0.04885   0.88461   0.98012   0.00000  Uiso   1.00
H1080  H     0.18777   0.83443   0.90069   0.00000  Uiso   1.00
H1081  H     0.10007   0.84039   0.57320   0.00000  Uiso   1.00
H1082  H     0.21832   0.80212   0.92715   0.00000  Uiso   1.00
N1083  N     0.28896   0.76916   0.51627   0.00000  Uiso   1.00
N1084  N     0.02593   0.86583   0.70702   0.00000  Uiso   1.00
N1085  N     0.21772   0.67450   0.71038   0.00000  Uiso   1.00
N1086  N     0.11259   0.99578   0.79051   0.00000  Uiso   1.00
N1087  N     0.06490   0.88892   0.90381   0.00000  Uiso   1.00
O1088  O     0.16667   0.83333   0.75000   0.00000  Uiso   1.00
O1089  O     0.15693   0.79060   0.66625   0.00000  Uiso   1.00
O1090  O     0.12687   0.87313   0.83749   0.00000  Uiso   1.00
O1091  O     0.21088   0.84159   0.65877   0.00000  Uiso   1.00
O1092  O     0.17198   0.82802   0.83749   0.00000  Uiso   1.00
O1093  O     0.17849   0.74768   0.77821   0.00000  Uiso   1.00
O1094  O     0.14581   0.92803   0.76767   0.00000  Uiso   1.00
O1095  O     0.07452   0.79917   0.73607   0.00000  Uiso   1.00
O1096  O     0.26785   0.85845   0.71806   0.00000  Uiso   1.00
O1097  O     0.06990   0.85627   0.77820   0.00000  Uiso   1.00
O1098  O     0.25440   0.81944   0.76768   0.00000  Uiso   1.00
O1099  O     0.13800   0.73570   0.73607   0.00000  Uiso   1.00
O1100  O     0.20437   0.92193   0.71806   0.00000  Uiso   1.00
Zn1101 Zn    0.19244   0.80756   0.78278   0.00000  Uiso   1.00
Zn1102 Zn    0.13459   0.79044   0.72258   0.00000  Uiso   1.00
Zn1103 Zn    0.21166   0.86331   0.71188   0.00000  Uiso   1.00
Zn1104 Zn    0.12798   0.87202   0.78277   0.00000  Uiso   1.00
C1105  C     0.38575   0.82635   0.75914   0.00000  Uiso   1.00
C1106  C     0.54017   0.80654   0.95876   0.00000  Uiso   1.00
C1107  C     0.56545   0.79264   0.97818   0.00000  Uiso   1.00
C1108  C     0.61454   0.84043   0.74106   0.00000  Uiso   1.00
C1109  C     0.55400   0.79610   0.51923   0.00000  Uiso   1.00
C1110  C     0.51437   0.81186   0.54137   0.00000  Uiso   1.00
C1111  C     0.58189   0.78439   0.53852   0.00000  Uiso   1.00
C1112  C     0.57046   0.78890   0.57968   0.00000  Uiso   1.00
C1113  C     0.50368   0.81479   0.58280   0.00000  Uiso   1.00
C1114  C     0.66107   0.84332   0.73694   0.00000  Uiso   1.00
C1115  C     0.34051   0.82462   0.76185   0.00000  Uiso   1.00
C1116  C     0.42559   0.87380   0.92224   0.00000  Uiso   1.00
C1117  C     0.51422   0.98906   0.73868   0.00000  Uiso   1.00
C1118  C     0.48406   0.67930   0.76234   0.00000  Uiso   1.00
C1119  C     0.48929   0.72306   0.75878   0.00000  Uiso   1.00
C1120  C     0.51013   0.94437   0.74142   0.00000  Uiso   1.00
C1121  C     0.52175   0.81200   0.64404   0.00000  Uiso   1.00
C1122  C     0.47817   0.85402   0.85625   0.00000  Uiso   1.00
C1123  C     0.46484   0.85860   0.89977   0.00000  Uiso   1.00
C1124  C     0.53158   0.80388   0.60148   0.00000  Uiso   1.00
C1125  C     0.41252   0.87306   0.96309   0.00000  Uiso   1.00
C1126  C     0.49056   0.84386   0.91885   0.00000  Uiso   1.00
C1127  C     0.47716   0.84150   0.95983   0.00000  Uiso   1.00
C1128  C     0.43759   0.85680   0.98183   0.00000  Uiso   1.00
C1129  C     0.50194   0.82466   0.97955   0.00000  Uiso   1.00
C1130  C     0.48774   0.82555   0.52142   0.00000  Uiso   1.00
C1131  C     0.44751   0.84038   0.54191   0.00000  Uiso   1.00
C1132  C     0.42307   0.85558   0.52241   0.00000  Uiso   1.00
H1133  H     0.39250   0.86671   0.53938   0.00000  Uiso   1.00
H1134  H     0.63664   0.75811   0.53479   0.00000  Uiso   1.00
H1135  H     0.64333   0.79448   0.50424   0.00000  Uiso   1.00
H1136  H     0.34405   0.88192   0.69276   0.00000  Uiso   1.00
H1137  H     0.37570   0.84397   0.68571   0.00000  Uiso   1.00
H1138  H     0.55112   0.99315   0.68241   0.00000  Uiso   1.00
H1139  H     0.57909   0.66869   0.71625   0.00000  Uiso   1.00
H1140  H     0.44560   0.67785   0.81830   0.00000  Uiso   1.00
H1141  H     0.41882   0.66915   0.78360   0.00000  Uiso   1.00
H1142  H     0.36799   0.87106   0.91097   0.00000  Uiso   1.00
H1143  H     0.39384   0.91961   0.91579   0.00000  Uiso   1.00
H1144  H     0.65088   0.80768   0.78484   0.00000  Uiso   1.00
H1145  H     0.47497   0.82733   0.60175   0.00000  Uiso   1.00
H1146  H     0.59208   0.78121   0.59483   0.00000  Uiso   1.00
H1147  H     0.59465   0.77955   0.96048   0.00000  Uiso   1.00
H1148  H     0.38218   0.88461   0.98012   0.00000  Uiso   1.00
H1149  H     0.52111   0.83443   0.90069   0.00000  Uiso   1.00
H1150  H     0.43340   0.84039   0.57320   0.00000  Uiso   1.00
H1151  H     0.55165   0.80212   0.92715   0.00000  Uiso   1.00
N1152  N     0.62229   0.76916   0.51627   0.00000  Uiso   1.00
N1153  N     0.35926   0.86583   0.70702   0.00000  Uiso   1.00
N1154  N     0.55105   0.67450   0.71038   0.00000  Uiso   1.00
N1155  N     0.44593   0.99578   0.79051   0.00000  Uiso   1.00
N1156  N     0.39823   0.88892   0.90381   0.00000  Uiso   1.00
O1157  O     0.50000   0.83333   0.75000   0.00000  Uiso   1.00
O1158  O     0.49027   0.79060   0.66625   0.00000  Uiso   1.00
O1159  O     0.46020   0.87313   0.83749   0.00000  Uiso   1.00
O1160  O     0.54421   0.84159   0.65877   0.00000  Uiso   1.00
O1161  O     0.50532   0.82802   0.83749   0.00000  Uiso   1.00
O1162  O     0.51182   0.74768   0.77821   0.00000  Uiso   1.00
O1163  O     0.47914   0.92803   0.76767   0.00000  Uiso   1.00
O1164  O     0.40785   0.79917   0.73607   0.00000  Uiso   1.00
O1165  O     0.60119   0.85845   0.71806   0.00000  Uiso   1.00
O1166  O     0.40323   0.85627   0.77820   0.00000  Uiso   1.00
O1167  O     0.58773   0.81944   0.76768   0.00000  Uiso   1.00
O1168  O     0.47133   0.73570   0.73607   0.00000  Uiso   1.00
O1169  O     0.53771   0.92193   0.71806   0.00000  Uiso   1.00
Zn1170 Zn    0.52577   0.80756   0.78278   0.00000  Uiso   1.00
Zn1171 Zn    0.46792   0.79044   0.72258   0.00000  Uiso   1.00
Zn1172 Zn    0.54500   0.86331   0.71188   0.00000  Uiso   1.00
Zn1173 Zn    0.46131   0.87202   0.78277   0.00000  Uiso   1.00
C1174  C     0.71908   0.82635   0.75914   0.00000  Uiso   1.00
C1175  C     0.87350   0.80654   0.95876   0.00000  Uiso   1.00
C1176  C     0.89878   0.79264   0.97818   0.00000  Uiso   1.00
C1177  C     0.94788   0.84043   0.74106   0.00000  Uiso   1.00
C1178  C     0.88733   0.79610   0.51923   0.00000  Uiso   1.00
C1179  C     0.84770   0.81186   0.54137   0.00000  Uiso   1.00
C1180  C     0.91522   0.78439   0.53852   0.00000  Uiso   1.00
C1181  C     0.90379   0.78890   0.57968   0.00000  Uiso   1.00
C1182  C     0.83701   0.81479   0.58280   0.00000  Uiso   1.00
C1183  C     0.99440   0.84332   0.73694   0.00000  Uiso   1.00
C1184  C     0.67384   0.82462   0.76185   0.00000  Uiso   1.00
C1185  C     0.75892   0.87380   0.92224   0.00000  Uiso   1.00
C1186  C     0.84756   0.98906   0.73868   0.00000  Uiso   1.00
C1187  C     0.81739   0.67930   0.76234   0.00000  Uiso   1.00
C1188  C     0.82262   0.72306   0.75878   0.00000  Uiso   1.00
C1189  C     0.84346   0.94437   0.74142   0.00000  Uiso   1.00
C1190  C     0.85509   0.81200   0.64404   0.00000  Uiso   1.00
C1191  C     0.81150   0.85402   0.85625   0.00000  Uiso   1.00
C1192  C     0.79817   0.85860   0.89977   0.00000  Uiso   1.00
C1193  C     0.86491   0.80388   0.60148   0.00000  Uiso   1.00
C1194  C     0.74586   0.87306   0.96309   0.00000  Uiso   1.00
C1195  C     0.82389   0.84386   0.91885   0.00000  Uiso   1.00
C1196  C     0.81049   0.84150   0.95983   0.00000  Uiso   1.00
C1197  C     0.77093   0.85680   0.98183   0.00000  Uiso   1.00
C1198  C     0.83528   0.82466   0.97955   0.00000  Uiso   1.00
C1199  C     0.82107   0.82555   0.52142   0.00000  Uiso   1.00
C1200  C     0.78084   0.84038   0.54191   0.00000  Uiso   1.00
C1201  C     0.75640   0.85558   0.52241   0.00000  Uiso   1.00
H1202  H     0.72584   0.86671   0.53938   0.00000  Uiso   1.00
H1203  H     0.96997   0.75811   0.53479   0.00000  Uiso   1.00
H1204  H     0.97666   0.79448   0.50424   0.00000  Uiso   1.00
H1205  H     0.67738   0.88192   0.69276   0.00000  Uiso   1.00
H1206  H     0.70904   0.84397   0.68571   0.00000  Uiso   1.00
H1207  H     0.88445   0.99315   0.68241   0.00000  Uiso   1.00
H1208  H     0.91242   0.66869   0.71625   0.00000  Uiso   1.00
H1209  H     0.77893   0.67785   0.81830   0.00000  Uiso   1.00
H1210  H     0.75215   0.66915   0.78360   0.00000  Uiso   1.00
H1211  H     0.70132   0.87106   0.91097   0.00000  Uiso   1.00
H1212  H     0.72717   0.91961   0.91579   0.00000  Uiso   1.00
H1213  H     0.98422   0.80768   0.78484   0.00000  Uiso   1.00
H1214  H     0.80830   0.82733   0.60175   0.00000  Uiso   1.00
H1215  H     0.92542   0.78121   0.59483   0.00000  Uiso   1.00
H1216  H     0.92798   0.77955   0.96048   0.00000  Uiso   1.00
H1217  H     0.71552   0.88461   0.98012   0.00000  Uiso   1.00
H1218  H     0.85444   0.83443   0.90069   0.00000  Uiso   1.00
H1219  H     0.76673   0.84039   0.57320   0.00000  Uiso   1.00
H1220  H     0.88499   0.80212   0.92715   0.00000  Uiso   1.00
N1221  N     0.95562   0.76916   0.51627   0.00000  Uiso   1.00
N1222  N     0.69260   0.86583   0.70702   0.00000  Uiso   1.00
N1223  N     0.88438   0.67450   0.71038   0.00000  Uiso   1.00
N1224  N     0.77926   0.99578   0.79051   0.00000  Uiso   1.00
N1225  N     0.73156   0.88892   0.90381   0.00000  Uiso   1.00
O1226  O     0.83333   0.83333   0.75000   0.00000  Uiso   1.00
O1227  O     0.82360   0.79060   0.66625   0.00000  Uiso   1.00
O1228  O     0.79354   0.87313   0.83749   0.00000  Uiso   1.00
O1229  O     0.87755   0.84159   0.65877   0.00000  Uiso   1.00
O1230  O     0.83865   0.82802   0.83749   0.00000  Uiso   1.00
O1231  O     0.84515   0.74768   0.77821   0.00000  Uiso   1.00
O1232  O     0.81247   0.92803   0.76767   0.00000  Uiso   1.00
O1233  O     0.74119   0.79917   0.73607   0.00000  Uiso   1.00
O1234  O     0.93452   0.85845   0.71806   0.00000  Uiso   1.00
O1235  O     0.73656   0.85627   0.77820   0.00000  Uiso   1.00
O1236  O     0.92106   0.81944   0.76768   0.00000  Uiso   1.00
O1237  O     0.80467   0.73570   0.73607   0.00000  Uiso   1.00
O1238  O     0.87104   0.92193   0.71806   0.00000  Uiso   1.00
Zn1239 Zn    0.85910   0.80756   0.78278   0.00000  Uiso   1.00
Zn1240 Zn    0.80125   0.79044   0.72258   0.00000  Uiso   1.00
Zn1241 Zn    0.87833   0.86331   0.71188   0.00000  Uiso   1.00
Zn1242 Zn    0.79465   0.87202   0.78277   0.00000  Uiso   1.00
loop_
_geom_bond_atom_site_label_1
_geom_bond_atom_site_label_2
_geom_bond_distance
_geom_bond_site_symmetry_2
_ccdc_geom_bond_type
C1     O62     1.271   .     A
C1     O60     1.271   .     A
C1     C11     1.440   .     S
C2     H47     1.076   .     S
C2     C3      1.384   .     A
C2     C25     1.413   .     A
C3     H43     1.083   .     S
C3     C626    1.395   .     S
C4     O63     1.284   .     A
C4     C10     1.467   .     S
C4     O61     1.283   .     A
C5     C6      1.425   .     A
C5     C7      1.416   .     A
C5     C624    1.395   1_554 S
C6     C9      1.410   .     A
C6     C26     1.430   .     A
C7     N48     1.439   .     S
C7     C8      1.398   .     A
C8     C20     1.392   .     A
C8     H42     1.084   .     S
C9     C20     1.389   .     A
C9     H41     1.076   .     S
C10    C80     1.341   .     S
C10    N118    1.443   .     S
C11    C148    1.341   1_455 S
C11    H178    1.086   1_455 S
C12    C21     1.398   .     A
C12    N52     1.433   .     S
C12    C19     1.411   .     A
C13    C16     1.461   .     S
C13    C221    1.349   .     S
C13    N257    1.438   .     S
C14    C15     1.434   .     S
C14    C427    1.349   1_545 S
C14    N465    1.437   1_545 S
C15    O64     1.276   .     A
C15    O58     1.278   .     A
C16    O65     1.272   .     A
C16    O59     1.265   .     A
C17    O56     1.272   .     A
C17    C20     1.453   .     S
C17    O54     1.276   .     A
C18    O55     1.285   .     A
C18    C19     1.478   .     S
C18    O57     1.290   .     A
C19    C22     1.400   .     A
C21    H44     1.085   .     S
C21    C24     1.401   .     A
C22    H45     1.075   .     S
C22    C23     1.409   .     A
C23    C24     1.416   .     A
C23    C25     1.429   .     A
C24    C649    1.390   .     S
C25    C647    1.427   .     S
C26    C27     1.416   .     A
C26    C646    1.427   1_554 S
C27    H46     1.075   .     S
C27    C28     1.386   .     A
C28    H29     1.085   .     S
C28    C645    1.390   1_554 S
H30    N48     1.046   .     S
H31    N48     1.046   .     S
H32    N49     1.044   .     S
H33    N49     1.046   .     S
H34    N257    1.045   .     S
H35    N50     1.045   .     S
H36    N465    1.046   1_545 S
H37    N465    1.046   1_545 S
H38    N52     1.046   .     S
H39    N52     1.046   .     S
H40    C80     1.086   .     S
N49    C148    1.443   1_455 S
N50    C427    1.438   1_545 S
N50    H448    1.045   1_545 S
N51    C221    1.437   .     S
N51    H243    1.046   .     S
N51    H244    1.046   .     S
O53    Zn69    1.932   .     S
O53    Zn66    1.970   .     S
O53    Zn67    1.947   .     S
O53    Zn68    1.929   .     S
O54    Zn67    1.928   .     S
O55    Zn69    1.943   .     S
O56    Zn68    1.937   .     S
O57    Zn66    1.924   .     S
O58    Zn66    1.936   .     S
O59    Zn69    1.938   .     S
O60    Zn67    1.925   .     S
O61    Zn68    1.940   .     S
O62    Zn69    1.932   .     S
O63    Zn66    1.919   .     S
O64    Zn67    1.947   .     S
O65    Zn68    1.940   .     S
C70    O131    1.271   .     A
C70    O129    1.271   .     A
C70    C80     1.440   .     S
C71    H116    1.076   .     S
C71    C72     1.384   .     A
C71    C94     1.413   .     A
C72    H112    1.083   .     S
C72    C695    1.395   .     S
C73    O132    1.284   .     A
C73    C79     1.467   .     S
C73    O130    1.283   .     A
C74    C75     1.425   .     A
C74    C76     1.416   .     A
C74    C693    1.395   1_554 S
C75    C78     1.410   .     A
C75    C95     1.430   .     A
C76    N117    1.439   .     S
C76    C77     1.398   .     A
C77    C89     1.392   .     A
C77    H111    1.084   .     S
C78    C89     1.389   .     A
C78    H110    1.076   .     S
C79    C149    1.341   .     S
C79    N187    1.443   .     S
C81    C90     1.398   .     A
C81    N121    1.433   .     S
C81    C88     1.411   .     A
C82    C85     1.461   .     S
C82    C290    1.349   .     S
C82    N326    1.438   .     S
C83    C84     1.434   .     S
C83    C496    1.349   1_545 S
C83    N534    1.437   1_545 S
C84    O133    1.276   .     A
C84    O127    1.278   .     A
C85    O134    1.272   .     A
C85    O128    1.265   .     A
C86    O125    1.272   .     A
C86    C89     1.453   .     S
C86    O123    1.276   .     A
C87    O124    1.285   .     A
C87    C88     1.478   .     S
C87    O126    1.290   .     A
C88    C91     1.400   .     A
C90    H113    1.085   .     S
C90    C93     1.401   .     A
C91    H114    1.075   .     S
C91    C92     1.409   .     A
C92    C93     1.416   .     A
C92    C94     1.429   .     A
C93    C718    1.390   .     S
C94    C716    1.427   .     S
C95    C96     1.416   .     A
C95    C715    1.427   1_554 S
C96    H115    1.075   .     S
C96    C97     1.386   .     A
C97    H98     1.085   .     S
C97    C714    1.390   1_554 S
H99    N117    1.046   .     S
H100   N117    1.046   .     S
H101   N118    1.044   .     S
H102   N118    1.046   .     S
H103   N326    1.045   .     S
H104   N119    1.045   .     S
H105   N534    1.046   1_545 S
H106   N534    1.046   1_545 S
H107   N121    1.046   .     S
H108   N121    1.046   .     S
H109   C149    1.086   .     S
N119   C496    1.438   1_545 S
N119   H517    1.045   1_545 S
N120   C290    1.437   .     S
N120   H312    1.046   .     S
N120   H313    1.046   .     S
O122   Zn138   1.932   .     S
O122   Zn135   1.970   .     S
O122   Zn136   1.947   .     S
O122   Zn137   1.929   .     S
O123   Zn136   1.928   .     S
O124   Zn138   1.943   .     S
O125   Zn137   1.937   .     S
O126   Zn135   1.924   .     S
O127   Zn135   1.936   .     S
O128   Zn138   1.938   .     S
O129   Zn136   1.925   .     S
O130   Zn137   1.940   .     S
O131   Zn138   1.932   .     S
O132   Zn135   1.919   .     S
O133   Zn136   1.947   .     S
O134   Zn137   1.940   .     S
C139   O200    1.271   .     A
C139   O198    1.271   .     A
C139   C149    1.440   .     S
C140   H185    1.076   .     S
C140   C141    1.384   .     A
C140   C163    1.413   .     A
C141   H181    1.083   .     S
C141   C764    1.395   .     S
C142   O201    1.284   .     A
C142   C148    1.467   .     S
C142   O199    1.283   .     A
C143   C144    1.425   .     A
C143   C145    1.416   .     A
C143   C762    1.395   1_554 S
C144   C147    1.410   .     A
C144   C164    1.430   .     A
C145   N186    1.439   .     S
C145   C146    1.398   .     A
C146   C158    1.392   .     A
C146   H180    1.084   .     S
C147   C158    1.389   .     A
C147   H179    1.076   .     S
C148   C11     1.341   1_655 S
C148   N49     1.443   1_655 S
C150   C159    1.398   .     A
C150   N190    1.433   .     S
C150   C157    1.411   .     A
C151   C154    1.461   .     S
C151   C359    1.349   .     S
C151   N395    1.438   .     S
C152   C153    1.434   .     S
C152   C565    1.349   1_545 S
C152   N603    1.437   1_545 S
C153   O202    1.276   .     A
C153   O196    1.278   .     A
C154   O203    1.272   .     A
C154   O197    1.265   .     A
C155   O194    1.272   .     A
C155   C158    1.453   .     S
C155   O192    1.276   .     A
C156   O193    1.285   .     A
C156   C157    1.478   .     S
C156   O195    1.290   .     A
C157   C160    1.400   .     A
C159   H182    1.085   .     S
C159   C162    1.401   .     A
C160   H183    1.075   .     S
C160   C161    1.409   .     A
C161   C162    1.416   .     A
C161   C163    1.429   .     A
C162   C787    1.390   .     S
C163   C785    1.427   .     S
C164   C165    1.416   .     A
C164   C784    1.427   1_554 S
C165   H184    1.075   .     S
C165   C166    1.386   .     A
C166   H167    1.085   .     S
C166   C783    1.390   1_554 S
H168   N186    1.046   .     S
H169   N186    1.046   .     S
H170   N187    1.044   .     S
H171   N187    1.046   .     S
H172   N395    1.045   .     S
H173   N188    1.045   .     S
H174   N603    1.046   1_545 S
H175   N603    1.046   1_545 S
H176   N190    1.046   .     S
H177   N190    1.046   .     S
H178   C11     1.086   1_655 S
N188   C565    1.438   1_545 S
N188   H586    1.045   1_545 S
N189   C359    1.437   .     S
N189   H381    1.046   .     S
N189   H382    1.046   .     S
O191   Zn207   1.932   .     S
O191   Zn204   1.970   .     S
O191   Zn205   1.947   .     S
O191   Zn206   1.929   .     S
O192   Zn205   1.928   .     S
O193   Zn207   1.943   .     S
O194   Zn206   1.937   .     S
O195   Zn204   1.924   .     S
O196   Zn204   1.936   .     S
O197   Zn207   1.938   .     S
O198   Zn205   1.925   .     S
O199   Zn206   1.940   .     S
O200   Zn207   1.932   .     S
O201   Zn204   1.919   .     S
O202   Zn205   1.947   .     S
O203   Zn206   1.940   .     S
C208   O269    1.271   .     A
C208   O267    1.271   .     A
C208   C218    1.440   .     S
C209   H254    1.076   .     S
C209   C210    1.384   .     A
C209   C232    1.413   .     A
C210   H250    1.083   .     S
C210   C833    1.395   .     S
C211   O270    1.284   .     A
C211   C217    1.467   .     S
C211   O268    1.283   .     A
C212   C213    1.425   .     A
C212   C214    1.416   .     A
C212   C831    1.395   1_554 S
C213   C216    1.410   .     A
C213   C233    1.430   .     A
C214   N255    1.439   .     S
C214   C215    1.398   .     A
C215   C227    1.392   .     A
C215   H249    1.084   .     S
C216   C227    1.389   .     A
C216   H248    1.076   .     S
C217   C287    1.341   .     S
C217   N325    1.443   .     S
C218   C355    1.341   1_455 S
C218   H385    1.086   1_455 S
C219   C228    1.398   .     A
C219   N259    1.433   .     S
C219   C226    1.411   .     A
C220   C223    1.461   .     S
C220   C428    1.349   .     S
C220   N464    1.438   .     S
C221   C222    1.434   .     S
C222   O271    1.276   .     A
C222   O265    1.278   .     A
C223   O272    1.272   .     A
C223   O266    1.265   .     A
C224   O263    1.272   .     A
C224   C227    1.453   .     S
C224   O261    1.276   .     A
C225   O262    1.285   .     A
C225   C226    1.478   .     S
C225   O264    1.290   .     A
C226   C229    1.400   .     A
C228   H251    1.085   .     S
C228   C231    1.401   .     A
C229   H252    1.075   .     S
C229   C230    1.409   .     A
C230   C231    1.416   .     A
C230   C232    1.429   .     A
C231   C856    1.390   .     S
C232   C854    1.427   .     S
C233   C234    1.416   .     A
C233   C853    1.427   1_554 S
C234   H253    1.075   .     S
C234   C235    1.386   .     A
C235   H236    1.085   .     S
C235   C852    1.390   1_554 S
H237   N255    1.046   .     S
H238   N255    1.046   .     S
H239   N256    1.044   .     S
H240   N256    1.046   .     S
H241   N464    1.045   .     S
H242   N257    1.045   .     S
H245   N259    1.046   .     S
H246   N259    1.046   .     S
H247   C287    1.086   .     S
N256   C355    1.443   1_455 S
N258   C428    1.437   .     S
N258   H450    1.046   .     S
N258   H451    1.046   .     S
O260   Zn276   1.932   .     S
O260   Zn273   1.970   .     S
O260   Zn274   1.947   .     S
O260   Zn275   1.929   .     S
O261   Zn274   1.928   .     S
O262   Zn276   1.943   .     S
O263   Zn275   1.937   .     S
O264   Zn273   1.924   .     S
O265   Zn273   1.936   .     S
O266   Zn276   1.938   .     S
O267   Zn274   1.925   .     S
O268   Zn275   1.940   .     S
O269   Zn276   1.932   .     S
O270   Zn273   1.919   .     S
O271   Zn274   1.947   .     S
O272   Zn275   1.940   .     S
C277   O338    1.271   .     A
C277   O336    1.271   .     A
C277   C287    1.440   .     S
C278   H323    1.076   .     S
C278   C279    1.384   .     A
C278   C301    1.413   .     A
C279   H319    1.083   .     S
C279   C902    1.395   .     S
C280   O339    1.284   .     A
C280   C286    1.467   .     S
C280   O337    1.283   .     A
C281   C282    1.425   .     A
C281   C283    1.416   .     A
C281   C900    1.395   1_554 S
C282   C285    1.410   .     A
C282   C302    1.430   .     A
C283   N324    1.439   .     S
C283   C284    1.398   .     A
C284   C296    1.392   .     A
C284   H318    1.084   .     S
C285   C296    1.389   .     A
C285   H317    1.076   .     S
C286   C356    1.341   .     S
C286   N394    1.443   .     S
C288   C297    1.398   .     A
C288   N328    1.433   .     S
C288   C295    1.411   .     A
C289   C292    1.461   .     S
C289   C497    1.349   .     S
C289   N533    1.438   .     S
C290   C291    1.434   .     S
C291   O340    1.276   .     A
C291   O334    1.278   .     A
C292   O341    1.272   .     A
C292   O335    1.265   .     A
C293   O332    1.272   .     A
C293   C296    1.453   .     S
C293   O330    1.276   .     A
C294   O331    1.285   .     A
C294   C295    1.478   .     S
C294   O333    1.290   .     A
C295   C298    1.400   .     A
C297   H320    1.085   .     S
C297   C300    1.401   .     A
C298   H321    1.075   .     S
C298   C299    1.409   .     A
C299   C300    1.416   .     A
C299   C301    1.429   .     A
C300   C925    1.390   .     S
C301   C923    1.427   .     S
C302   C303    1.416   .     A
C302   C922    1.427   1_554 S
C303   H322    1.075   .     S
C303   C304    1.386   .     A
C304   H305    1.085   .     S
C304   C921    1.390   1_554 S
H306   N324    1.046   .     S
H307   N324    1.046   .     S
H308   N325    1.044   .     S
H309   N325    1.046   .     S
H310   N533    1.045   .     S
H311   N326    1.045   .     S
H314   N328    1.046   .     S
H315   N328    1.046   .     S
H316   C356    1.086   .     S
N327   C497    1.437   .     S
N327   H519    1.046   .     S
N327   H520    1.046   .     S
O329   Zn345   1.932   .     S
O329   Zn342   1.970   .     S
O329   Zn343   1.947   .     S
O329   Zn344   1.929   .     S
O330   Zn343   1.928   .     S
O331   Zn345   1.943   .     S
O332   Zn344   1.937   .     S
O333   Zn342   1.924   .     S
O334   Zn342   1.936   .     S
O335   Zn345   1.938   .     S
O336   Zn343   1.925   .     S
O337   Zn344   1.940   .     S
O338   Zn345   1.932   .     S
O339   Zn342   1.919   .     S
O340   Zn343   1.947   .     S
O341   Zn344   1.940   .     S
C346   O407    1.271   .     A
C346   O405    1.271   .     A
C346   C356    1.440   .     S
C347   H392    1.076   .     S
C347   C348    1.384   .     A
C347   C370    1.413   .     A
C348   H388    1.083   .     S
C348   C971    1.395   .     S
C349   O408    1.284   .     A
C349   C355    1.467   .     S
C349   O406    1.283   .     A
C350   C351    1.425   .     A
C350   C352    1.416   .     A
C350   C969    1.395   1_554 S
C351   C354    1.410   .     A
C351   C371    1.430   .     A
C352   N393    1.439   .     S
C352   C353    1.398   .     A
C353   C365    1.392   .     A
C353   H387    1.084   .     S
C354   C365    1.389   .     A
C354   H386    1.076   .     S
C355   C218    1.341   1_655 S
C355   N256    1.443   1_655 S
C357   C366    1.398   .     A
C357   N397    1.433   .     S
C357   C364    1.411   .     A
C358   C361    1.461   .     S
C358   C566    1.349   .     S
C358   N602    1.438   .     S
C359   C360    1.434   .     S
C360   O409    1.276   .     A
C360   O403    1.278   .     A
C361   O410    1.272   .     A
C361   O404    1.265   .     A
C362   O401    1.272   .     A
C362   C365    1.453   .     S
C362   O399    1.276   .     A
C363   O400    1.285   .     A
C363   C364    1.478   .     S
C363   O402    1.290   .     A
C364   C367    1.400   .     A
C366   H389    1.085   .     S
C366   C369    1.401   .     A
C367   H390    1.075   .     S
C367   C368    1.409   .     A
C368   C369    1.416   .     A
C368   C370    1.429   .     A
C369   C994    1.390   .     S
C370   C992    1.427   .     S
C371   C372    1.416   .     A
C371   C991    1.427   1_554 S
C372   H391    1.075   .     S
C372   C373    1.386   .     A
C373   H374    1.085   .     S
C373   C990    1.390   1_554 S
H375   N393    1.046   .     S
H376   N393    1.046   .     S
H377   N394    1.044   .     S
H378   N394    1.046   .     S
H379   N602    1.045   .     S
H380   N395    1.045   .     S
H383   N397    1.046   .     S
H384   N397    1.046   .     S
H385   C218    1.086   1_655 S
N396   C566    1.437   .     S
N396   H588    1.046   .     S
N396   H589    1.046   .     S
O398   Zn414   1.932   .     S
O398   Zn411   1.970   .     S
O398   Zn412   1.947   .     S
O398   Zn413   1.929   .     S
O399   Zn412   1.928   .     S
O400   Zn414   1.943   .     S
O401   Zn413   1.937   .     S
O402   Zn411   1.924   .     S
O403   Zn411   1.936   .     S
O404   Zn414   1.938   .     S
O405   Zn412   1.925   .     S
O406   Zn413   1.940   .     S
O407   Zn414   1.932   .     S
O408   Zn411   1.919   .     S
O409   Zn412   1.947   .     S
O410   Zn413   1.940   .     S
C415   O476    1.271   .     A
C415   O474    1.271   .     A
C415   C425    1.440   .     S
C416   H461    1.076   .     S
C416   C417    1.384   .     A
C416   C439    1.413   .     A
C417   H457    1.083   .     S
C417   C1040   1.395   .     S
C418   O477    1.284   .     A
C418   C424    1.467   .     S
C418   O475    1.283   .     A
C419   C420    1.425   .     A
C419   C421    1.416   .     A
C419   C1038   1.395   1_554 S
C420   C423    1.410   .     A
C420   C440    1.430   .     A
C421   N462    1.439   .     S
C421   C422    1.398   .     A
C422   C434    1.392   .     A
C422   H456    1.084   .     S
C423   C434    1.389   .     A
C423   H455    1.076   .     S
C424   C494    1.341   .     S
C424   N532    1.443   .     S
C425   C562    1.341   1_455 S
C425   H592    1.086   1_455 S
C426   C435    1.398   .     A
C426   N466    1.433   .     S
C426   C433    1.411   .     A
C427   C430    1.461   .     S
C427   C14     1.349   1_565 S
C427   N50     1.438   1_565 S
C428   C429    1.434   .     S
C429   O478    1.276   .     A
C429   O472    1.278   .     A
C430   O479    1.272   .     A
C430   O473    1.265   .     A
C431   O470    1.272   .     A
C431   C434    1.453   .     S
C431   O468    1.276   .     A
C432   O469    1.285   .     A
C432   C433    1.478   .     S
C432   O471    1.290   .     A
C433   C436    1.400   .     A
C435   H458    1.085   .     S
C435   C438    1.401   .     A
C436   H459    1.075   .     S
C436   C437    1.409   .     A
C437   C438    1.416   .     A
C437   C439    1.429   .     A
C438   C1063   1.390   .     S
C439   C1061   1.427   .     S
C440   C441    1.416   .     A
C440   C1060   1.427   1_554 S
C441   H460    1.075   .     S
C441   C442    1.386   .     A
C442   H443    1.085   .     S
C442   C1059   1.390   1_554 S
H444   N462    1.046   .     S
H445   N462    1.046   .     S
H446   N463    1.044   .     S
H447   N463    1.046   .     S
H448   N50     1.045   1_565 S
H449   N464    1.045   .     S
H452   N466    1.046   .     S
H453   N466    1.046   .     S
H454   C494    1.086   .     S
N463   C562    1.443   1_455 S
N465   C14     1.437   1_565 S
N465   H36     1.046   1_565 S
N465   H37     1.046   1_565 S
O467   Zn483   1.932   .     S
O467   Zn480   1.970   .     S
O467   Zn481   1.947   .     S
O467   Zn482   1.929   .     S
O468   Zn481   1.928   .     S
O469   Zn483   1.943   .     S
O470   Zn482   1.937   .     S
O471   Zn480   1.924   .     S
O472   Zn480   1.936   .     S
O473   Zn483   1.938   .     S
O474   Zn481   1.925   .     S
O475   Zn482   1.940   .     S
O476   Zn483   1.932   .     S
O477   Zn480   1.919   .     S
O478   Zn481   1.947   .     S
O479   Zn482   1.940   .     S
C484   O545    1.271   .     A
C484   O543    1.271   .     A
C484   C494    1.440   .     S
C485   H530    1.076   .     S
C485   C486    1.384   .     A
C485   C508    1.413   .     A
C486   H526    1.083   .     S
C486   C1109   1.395   .     S
C487   O546    1.284   .     A
C487   C493    1.467   .     S
C487   O544    1.283   .     A
C488   C489    1.425   .     A
C488   C490    1.416   .     A
C488   C1107   1.395   1_554 S
C489   C492    1.410   .     A
C489   C509    1.430   .     A
C490   N531    1.439   .     S
C490   C491    1.398   .     A
C491   C503    1.392   .     A
C491   H525    1.084   .     S
C492   C503    1.389   .     A
C492   H524    1.076   .     S
C493   C563    1.341   .     S
C493   N601    1.443   .     S
C495   C504    1.398   .     A
C495   N535    1.433   .     S
C495   C502    1.411   .     A
C496   C499    1.461   .     S
C496   C83     1.349   1_565 S
C496   N119    1.438   1_565 S
C497   C498    1.434   .     S
C498   O547    1.276   .     A
C498   O541    1.278   .     A
C499   O548    1.272   .     A
C499   O542    1.265   .     A
C500   O539    1.272   .     A
C500   C503    1.453   .     S
C500   O537    1.276   .     A
C501   O538    1.285   .     A
C501   C502    1.478   .     S
C501   O540    1.290   .     A
C502   C505    1.400   .     A
C504   H527    1.085   .     S
C504   C507    1.401   .     A
C505   H528    1.075   .     S
C505   C506    1.409   .     A
C506   C507    1.416   .     A
C506   C508    1.429   .     A
C507   C1132   1.390   .     S
C508   C1130   1.427   .     S
C509   C510    1.416   .     A
C509   C1129   1.427   1_554 S
C510   H529    1.075   .     S
C510   C511    1.386   .     A
C511   H512    1.085   .     S
C511   C1128   1.390   1_554 S
H513   N531    1.046   .     S
H514   N531    1.046   .     S
H515   N532    1.044   .     S
H516   N532    1.046   .     S
H517   N119    1.045   1_565 S
H518   N533    1.045   .     S
H521   N535    1.046   .     S
H522   N535    1.046   .     S
H523   C563    1.086   .     S
N534   C83     1.437   1_565 S
N534   H105    1.046   1_565 S
N534   H106    1.046   1_565 S
O536   Zn552   1.932   .     S
O536   Zn549   1.970   .     S
O536   Zn550   1.947   .     S
O536   Zn551   1.929   .     S
O537   Zn550   1.928   .     S
O538   Zn552   1.943   .     S
O539   Zn551   1.937   .     S
O540   Zn549   1.924   .     S
O541   Zn549   1.936   .     S
O542   Zn552   1.938   .     S
O543   Zn550   1.925   .     S
O544   Zn551   1.940   .     S
O545   Zn552   1.932   .     S
O546   Zn549   1.919   .     S
O547   Zn550   1.947   .     S
O548   Zn551   1.940   .     S
C553   O614    1.271   .     A
C553   O612    1.271   .     A
C553   C563    1.440   .     S
C554   H599    1.076   .     S
C554   C555    1.384   .     A
C554   C577    1.413   .     A
C555   H595    1.083   .     S
C555   C1178   1.395   .     S
C556   O615    1.284   .     A
C556   C562    1.467   .     S
C556   O613    1.283   .     A
C557   C558    1.425   .     A
C557   C559    1.416   .     A
C557   C1176   1.395   1_554 S
C558   C561    1.410   .     A
C558   C578    1.430   .     A
C559   N600    1.439   .     S
C559   C560    1.398   .     A
C560   C572    1.392   .     A
C560   H594    1.084   .     S
C561   C572    1.389   .     A
C561   H593    1.076   .     S
C562   C425    1.341   1_655 S
C562   N463    1.443   1_655 S
C564   C573    1.398   .     A
C564   N604    1.433   .     S
C564   C571    1.411   .     A
C565   C568    1.461   .     S
C565   C152    1.349   1_565 S
C565   N188    1.438   1_565 S
C566   C567    1.434   .     S
C567   O616    1.276   .     A
C567   O610    1.278   .     A
C568   O617    1.272   .     A
C568   O611    1.265   .     A
C569   O608    1.272   .     A
C569   C572    1.453   .     S
C569   O606    1.276   .     A
C570   O607    1.285   .     A
C570   C571    1.478   .     S
C570   O609    1.290   .     A
C571   C574    1.400   .     A
C573   H596    1.085   .     S
C573   C576    1.401   .     A
C574   H597    1.075   .     S
C574   C575    1.409   .     A
C575   C576    1.416   .     A
C575   C577    1.429   .     A
C576   C1201   1.390   .     S
C577   C1199   1.427   .     S
C578   C579    1.416   .     A
C578   C1198   1.427   1_554 S
C579   H598    1.075   .     S
C579   C580    1.386   .     A
C580   H581    1.085   .     S
C580   C1197   1.390   1_554 S
H582   N600    1.046   .     S
H583   N600    1.046   .     S
H584   N601    1.044   .     S
H585   N601    1.046   .     S
H586   N188    1.045   1_565 S
H587   N602    1.045   .     S
H590   N604    1.046   .     S
H591   N604    1.046   .     S
H592   C425    1.086   1_655 S
N603   C152    1.437   1_565 S
N603   H174    1.046   1_565 S
N603   H175    1.046   1_565 S
O605   Zn621   1.932   .     S
O605   Zn618   1.970   .     S
O605   Zn619   1.947   .     S
O605   Zn620   1.929   .     S
O606   Zn619   1.928   .     S
O607   Zn621   1.943   .     S
O608   Zn620   1.937   .     S
O609   Zn618   1.924   .     S
O610   Zn618   1.936   .     S
O611   Zn621   1.938   .     S
O612   Zn619   1.925   .     S
O613   Zn620   1.940   .     S
O614   Zn621   1.932   .     S
O615   Zn618   1.919   .     S
O616   Zn619   1.947   .     S
O617   Zn620   1.940   .     S
C622   O683    1.271   .     A
C622   O681    1.271   .     A
C622   C632    1.440   .     S
C623   H668    1.076   .     S
C623   C624    1.384   .     A
C623   C646    1.413   .     A
C624   H664    1.083   .     S
C624   C5      1.395   1_556 S
C625   O684    1.284   .     A
C625   C631    1.467   .     S
C625   O682    1.283   .     A
C626   C627    1.425   .     A
C626   C628    1.416   .     A
C627   C630    1.410   .     A
C627   C647    1.430   .     A
C628   N669    1.439   .     S
C628   C629    1.398   .     A
C629   C641    1.392   .     A
C629   H663    1.084   .     S
C630   C641    1.389   .     A
C630   H662    1.076   .     S
C631   C701    1.341   .     S
C631   N739    1.443   .     S
C632   C769    1.341   1_455 S
C632   H799    1.086   1_455 S
C633   C642    1.398   .     A
C633   N673    1.433   .     S
C633   C640    1.411   .     A
C634   C637    1.461   .     S
C634   C842    1.349   .     S
C634   N878    1.438   .     S
C635   C636    1.434   .     S
C635   C1048   1.349   1_545 S
C635   N1086   1.437   1_545 S
C636   O685    1.276   .     A
C636   O679    1.278   .     A
C637   O686    1.272   .     A
C637   O680    1.265   .     A
C638   O677    1.272   .     A
C638   C641    1.453   .     S
C638   O675    1.276   .     A
C639   O676    1.285   .     A
C639   C640    1.478   .     S
C639   O678    1.290   .     A
C640   C643    1.400   .     A
C642   H665    1.085   .     S
C642   C645    1.401   .     A
C643   H666    1.075   .     S
C643   C644    1.409   .     A
C644   C645    1.416   .     A
C644   C646    1.429   .     A
C645   C28     1.390   1_556 S
C646   C26     1.427   1_556 S
C647   C648    1.416   .     A
C648   H667    1.075   .     S
C648   C649    1.386   .     A
C649   H650    1.085   .     S
H651   N669    1.046   .     S
H652   N669    1.046   .     S
H653   N670    1.044   .     S
H654   N670    1.046   .     S
H655   N878    1.045   .     S
H656   N671    1.045   .     S
H657   N1086   1.046   1_545 S
H658   N1086   1.046   1_545 S
H659   N673    1.046   .     S
H660   N673    1.046   .     S
H661   C701    1.086   .     S
N670   C769    1.443   1_455 S
N671   C1048   1.438   1_545 S
N671   H1069   1.045   1_545 S
N672   C842    1.437   .     S
N672   H864    1.046   .     S
N672   H865    1.046   .     S
O674   Zn690   1.932   .     S
O674   Zn687   1.970   .     S
O674   Zn688   1.947   .     S
O674   Zn689   1.929   .     S
O675   Zn688   1.928   .     S
O676   Zn690   1.943   .     S
O677   Zn689   1.937   .     S
O678   Zn687   1.924   .     S
O679   Zn687   1.936   .     S
O680   Zn690   1.938   .     S
O681   Zn688   1.925   .     S
O682   Zn689   1.940   .     S
O683   Zn690   1.932   .     S
O684   Zn687   1.919   .     S
O685   Zn688   1.947   .     S
O686   Zn689   1.940   .     S
C691   O752    1.271   .     A
C691   O750    1.271   .     A
C691   C701    1.440   .     S
C692   H737    1.076   .     S
C692   C693    1.384   .     A
C692   C715    1.413   .     A
C693   H733    1.083   .     S
C693   C74     1.395   1_556 S
C694   O753    1.284   .     A
C694   C700    1.467   .     S
C694   O751    1.283   .     A
C695   C696    1.425   .     A
C695   C697    1.416   .     A
C696   C699    1.410   .     A
C696   C716    1.430   .     A
C697   N738    1.439   .     S
C697   C698    1.398   .     A
C698   C710    1.392   .     A
C698   H732    1.084   .     S
C699   C710    1.389   .     A
C699   H731    1.076   .     S
C700   C770    1.341   .     S
C700   N808    1.443   .     S
C702   C711    1.398   .     A
C702   N742    1.433   .     S
C702   C709    1.411   .     A
C703   C706    1.461   .     S
C703   C911    1.349   .     S
C703   N947    1.438   .     S
C704   C705    1.434   .     S
C704   C1117   1.349   1_545 S
C704   N1155   1.437   1_545 S
C705   O754    1.276   .     A
C705   O748    1.278   .     A
C706   O755    1.272   .     A
C706   O749    1.265   .     A
C707   O746    1.272   .     A
C707   C710    1.453   .     S
C707   O744    1.276   .     A
C708   O745    1.285   .     A
C708   C709    1.478   .     S
C708   O747    1.290   .     A
C709   C712    1.400   .     A
C711   H734    1.085   .     S
C711   C714    1.401   .     A
C712   H735    1.075   .     S
C712   C713    1.409   .     A
C713   C714    1.416   .     A
C713   C715    1.429   .     A
C714   C97     1.390   1_556 S
C715   C95     1.427   1_556 S
C716   C717    1.416   .     A
C717   H736    1.075   .     S
C717   C718    1.386   .     A
C718   H719    1.085   .     S
H720   N738    1.046   .     S
H721   N738    1.046   .     S
H722   N739    1.044   .     S
H723   N739    1.046   .     S
H724   N947    1.045   .     S
H725   N740    1.045   .     S
H726   N1155   1.046   1_545 S
H727   N1155   1.046   1_545 S
H728   N742    1.046   .     S
H729   N742    1.046   .     S
H730   C770    1.086   .     S
N740   C1117   1.438   1_545 S
N740   H1138   1.045   1_545 S
N741   C911    1.437   .     S
N741   H933    1.046   .     S
N741   H934    1.046   .     S
O743   Zn759   1.932   .     S
O743   Zn756   1.970   .     S
O743   Zn757   1.947   .     S
O743   Zn758   1.929   .     S
O744   Zn757   1.928   .     S
O745   Zn759   1.943   .     S
O746   Zn758   1.937   .     S
O747   Zn756   1.924   .     S
O748   Zn756   1.936   .     S
O749   Zn759   1.938   .     S
O750   Zn757   1.925   .     S
O751   Zn758   1.940   .     S
O752   Zn759   1.932   .     S
O753   Zn756   1.919   .     S
O754   Zn757   1.947   .     S
O755   Zn758   1.940   .     S
C760   O821    1.271   .     A
C760   O819    1.271   .     A
C760   C770    1.440   .     S
C761   H806    1.076   .     S
C761   C762    1.384   .     A
C761   C784    1.413   .     A
C762   H802    1.083   .     S
C762   C143    1.395   1_556 S
C763   O822    1.284   .     A
C763   C769    1.467   .     S
C763   O820    1.283   .     A
C764   C765    1.425   .     A
C764   C766    1.416   .     A
C765   C768    1.410   .     A
C765   C785    1.430   .     A
C766   N807    1.439   .     S
C766   C767    1.398   .     A
C767   C779    1.392   .     A
C767   H801    1.084   .     S
C768   C779    1.389   .     A
C768   H800    1.076   .     S
C769   C632    1.341   1_655 S
C769   N670    1.443   1_655 S
C771   C780    1.398   .     A
C771   N811    1.433   .     S
C771   C778    1.411   .     A
C772   C775    1.461   .     S
C772   C980    1.349   .     S
C772   N1016   1.438   .     S
C773   C774    1.434   .     S
C773   C1186   1.349   1_545 S
C773   N1224   1.437   1_545 S
C774   O823    1.276   .     A
C774   O817    1.278   .     A
C775   O824    1.272   .     A
C775   O818    1.265   .     A
C776   O815    1.272   .     A
C776   C779    1.453   .     S
C776   O813    1.276   .     A
C777   O814    1.285   .     A
C777   C778    1.478   .     S
C777   O816    1.290   .     A
C778   C781    1.400   .     A
C780   H803    1.085   .     S
C780   C783    1.401   .     A
C781   H804    1.075   .     S
C781   C782    1.409   .     A
C782   C783    1.416   .     A
C782   C784    1.429   .     A
C783   C166    1.390   1_556 S
C784   C164    1.427   1_556 S
C785   C786    1.416   .     A
C786   H805    1.075   .     S
C786   C787    1.386   .     A
C787   H788    1.085   .     S
H789   N807    1.046   .     S
H790   N807    1.046   .     S
H791   N808    1.044   .     S
H792   N808    1.046   .     S
H793   N1016   1.045   .     S
H794   N809    1.045   .     S
H795   N1224   1.046   1_545 S
H796   N1224   1.046   1_545 S
H797   N811    1.046   .     S
H798   N811    1.046   .     S
H799   C632    1.086   1_655 S
N809   C1186   1.438   1_545 S
N809   H1207   1.045   1_545 S
N810   C980    1.437   .     S
N810   H1002   1.046   .     S
N810   H1003   1.046   .     S
O812   Zn828   1.932   .     S
O812   Zn825   1.970   .     S
O812   Zn826   1.947   .     S
O812   Zn827   1.929   .     S
O813   Zn826   1.928   .     S
O814   Zn828   1.943   .     S
O815   Zn827   1.937   .     S
O816   Zn825   1.924   .     S
O817   Zn825   1.936   .     S
O818   Zn828   1.938   .     S
O819   Zn826   1.925   .     S
O820   Zn827   1.940   .     S
O821   Zn828   1.932   .     S
O822   Zn825   1.919   .     S
O823   Zn826   1.947   .     S
O824   Zn827   1.940   .     S
C829   O890    1.271   .     A
C829   O888    1.271   .     A
C829   C839    1.440   .     S
C830   H875    1.076   .     S
C830   C831    1.384   .     A
C830   C853    1.413   .     A
C831   H871    1.083   .     S
C831   C212    1.395   1_556 S
C832   O891    1.284   .     A
C832   C838    1.467   .     S
C832   O889    1.283   .     A
C833   C834    1.425   .     A
C833   C835    1.416   .     A
C834   C837    1.410   .     A
C834   C854    1.430   .     A
C835   N876    1.439   .     S
C835   C836    1.398   .     A
C836   C848    1.392   .     A
C836   H870    1.084   .     S
C837   C848    1.389   .     A
C837   H869    1.076   .     S
C838   C908    1.341   .     S
C838   N946    1.443   .     S
C839   C976    1.341   1_455 S
C839   H1006   1.086   1_455 S
C840   C849    1.398   .     A
C840   N880    1.433   .     S
C840   C847    1.411   .     A
C841   C844    1.461   .     S
C841   C1049   1.349   .     S
C841   N1085   1.438   .     S
C842   C843    1.434   .     S
C843   O892    1.276   .     A
C843   O886    1.278   .     A
C844   O893    1.272   .     A
C844   O887    1.265   .     A
C845   O884    1.272   .     A
C845   C848    1.453   .     S
C845   O882    1.276   .     A
C846   O883    1.285   .     A
C846   C847    1.478   .     S
C846   O885    1.290   .     A
C847   C850    1.400   .     A
C849   H872    1.085   .     S
C849   C852    1.401   .     A
C850   H873    1.075   .     S
C850   C851    1.409   .     A
C851   C852    1.416   .     A
C851   C853    1.429   .     A
C852   C235    1.390   1_556 S
C853   C233    1.427   1_556 S
C854   C855    1.416   .     A
C855   H874    1.075   .     S
C855   C856    1.386   .     A
C856   H857    1.085   .     S
H858   N876    1.046   .     S
H859   N876    1.046   .     S
H860   N877    1.044   .     S
H861   N877    1.046   .     S
H862   N1085   1.045   .     S
H863   N878    1.045   .     S
H866   N880    1.046   .     S
H867   N880    1.046   .     S
H868   C908    1.086   .     S
N877   C976    1.443   1_455 S
N879   C1049   1.437   .     S
N879   H1071   1.046   .     S
N879   H1072   1.046   .     S
O881   Zn897   1.932   .     S
O881   Zn894   1.970   .     S
O881   Zn895   1.947   .     S
O881   Zn896   1.929   .     S
O882   Zn895   1.928   .     S
O883   Zn897   1.943   .     S
O884   Zn896   1.937   .     S
O885   Zn894   1.924   .     S
O886   Zn894   1.936   .     S
O887   Zn897   1.938   .     S
O888   Zn895   1.925   .     S
O889   Zn896   1.940   .     S
O890   Zn897   1.932   .     S
O891   Zn894   1.919   .     S
O892   Zn895   1.947   .     S
O893   Zn896   1.940   .     S
C898   O959    1.271   .     A
C898   O957    1.271   .     A
C898   C908    1.440   .     S
C899   H944    1.076   .     S
C899   C900    1.384   .     A
C899   C922    1.413   .     A
C900   H940    1.083   .     S
C900   C281    1.395   1_556 S
C901   O960    1.284   .     A
C901   C907    1.467   .     S
C901   O958    1.283   .     A
C902   C903    1.425   .     A
C902   C904    1.416   .     A
C903   C906    1.410   .     A
C903   C923    1.430   .     A
C904   N945    1.439   .     S
C904   C905    1.398   .     A
C905   C917    1.392   .     A
C905   H939    1.084   .     S
C906   C917    1.389   .     A
C906   H938    1.076   .     S
C907   C977    1.341   .     S
C907   N1015   1.443   .     S
C909   C918    1.398   .     A
C909   N949    1.433   .     S
C909   C916    1.411   .     A
C910   C913    1.461   .     S
C910   C1118   1.349   .     S
C910   N1154   1.438   .     S
C911   C912    1.434   .     S
C912   O961    1.276   .     A
C912   O955    1.278   .     A
C913   O962    1.272   .     A
C913   O956    1.265   .     A
C914   O953    1.272   .     A
C914   C917    1.453   .     S
C914   O951    1.276   .     A
C915   O952    1.285   .     A
C915   C916    1.478   .     S
C915   O954    1.290   .     A
C916   C919    1.400   .     A
C918   H941    1.085   .     S
C918   C921    1.401   .     A
C919   H942    1.075   .     S
C919   C920    1.409   .     A
C920   C921    1.416   .     A
C920   C922    1.429   .     A
C921   C304    1.390   1_556 S
C922   C302    1.427   1_556 S
C923   C924    1.416   .     A
C924   H943    1.075   .     S
C924   C925    1.386   .     A
C925   H926    1.085   .     S
H927   N945    1.046   .     S
H928   N945    1.046   .     S
H929   N946    1.044   .     S
H930   N946    1.046   .     S
H931   N1154   1.045   .     S
H932   N947    1.045   .     S
H935   N949    1.046   .     S
H936   N949    1.046   .     S
H937   C977    1.086   .     S
N948   C1118   1.437   .     S
N948   H1140   1.046   .     S
N948   H1141   1.046   .     S
O950   Zn966   1.932   .     S
O950   Zn963   1.970   .     S
O950   Zn964   1.947   .     S
O950   Zn965   1.929   .     S
O951   Zn964   1.928   .     S
O952   Zn966   1.943   .     S
O953   Zn965   1.937   .     S
O954   Zn963   1.924   .     S
O955   Zn963   1.936   .     S
O956   Zn966   1.938   .     S
O957   Zn964   1.925   .     S
O958   Zn965   1.940   .     S
O959   Zn966   1.932   .     S
O960   Zn963   1.919   .     S
O961   Zn964   1.947   .     S
O962   Zn965   1.940   .     S
C967   O1028   1.271   .     A
C967   O1026   1.271   .     A
C967   C977    1.440   .     S
C968   H1013   1.076   .     S
C968   C969    1.384   .     A
C968   C991    1.413   .     A
C969   H1009   1.083   .     S
C969   C350    1.395   1_556 S
C970   O1029   1.284   .     A
C970   C976    1.467   .     S
C970   O1027   1.283   .     A
C971   C972    1.425   .     A
C971   C973    1.416   .     A
C972   C975    1.410   .     A
C972   C992    1.430   .     A
C973   N1014   1.439   .     S
C973   C974    1.398   .     A
C974   C986    1.392   .     A
C974   H1008   1.084   .     S
C975   C986    1.389   .     A
C975   H1007   1.076   .     S
C976   C839    1.341   1_655 S
C976   N877    1.443   1_655 S
C978   C987    1.398   .     A
C978   N1018   1.433   .     S
C978   C985    1.411   .     A
C979   C982    1.461   .     S
C979   C1187   1.349   .     S
C979   N1223   1.438   .     S
C980   C981    1.434   .     S
C981   O1030   1.276   .     A
C981   O1024   1.278   .     A
C982   O1031   1.272   .     A
C982   O1025   1.265   .     A
C983   O1022   1.272   .     A
C983   C986    1.453   .     S
C983   O1020   1.276   .     A
C984   O1021   1.285   .     A
C984   C985    1.478   .     S
C984   O1023   1.290   .     A
C985   C988    1.400   .     A
C987   H1010   1.085   .     S
C987   C990    1.401   .     A
C988   H1011   1.075   .     S
C988   C989    1.409   .     A
C989   C990    1.416   .     A
C989   C991    1.429   .     A
C990   C373    1.390   1_556 S
C991   C371    1.427   1_556 S
C992   C993    1.416   .     A
C993   H1012   1.075   .     S
C993   C994    1.386   .     A
C994   H995    1.085   .     S
H996   N1014   1.046   .     S
H997   N1014   1.046   .     S
H998   N1015   1.044   .     S
H999   N1015   1.046   .     S
H1000  N1223   1.045   .     S
H1001  N1016   1.045   .     S
H1004  N1018   1.046   .     S
H1005  N1018   1.046   .     S
H1006  C839    1.086   1_655 S
N1017  C1187   1.437   .     S
N1017  H1209   1.046   .     S
N1017  H1210   1.046   .     S
O1019  Zn1035  1.932   .     S
O1019  Zn1032  1.970   .     S
O1019  Zn1033  1.947   .     S
O1019  Zn1034  1.929   .     S
O1020  Zn1033  1.928   .     S
O1021  Zn1035  1.943   .     S
O1022  Zn1034  1.937   .     S
O1023  Zn1032  1.924   .     S
O1024  Zn1032  1.936   .     S
O1025  Zn1035  1.938   .     S
O1026  Zn1033  1.925   .     S
O1027  Zn1034  1.940   .     S
O1028  Zn1035  1.932   .     S
O1029  Zn1032  1.919   .     S
O1030  Zn1033  1.947   .     S
O1031  Zn1034  1.940   .     S
C1036  O1097   1.271   .     A
C1036  O1095   1.271   .     A
C1036  C1046   1.440   .     S
C1037  H1082   1.076   .     S
C1037  C1038   1.384   .     A
C1037  C1060   1.413   .     A
C1038  H1078   1.083   .     S
C1038  C419    1.395   1_556 S
C1039  O1098   1.284   .     A
C1039  C1045   1.467   .     S
C1039  O1096   1.283   .     A
C1040  C1041   1.425   .     A
C1040  C1042   1.416   .     A
C1041  C1044   1.410   .     A
C1041  C1061   1.430   .     A
C1042  N1083   1.439   .     S
C1042  C1043   1.398   .     A
C1043  C1055   1.392   .     A
C1043  H1077   1.084   .     S
C1044  C1055   1.389   .     A
C1044  H1076   1.076   .     S
C1045  C1115   1.341   .     S
C1045  N1153   1.443   .     S
C1046  C1183   1.341   1_455 S
C1046  H1213   1.086   1_455 S
C1047  C1056   1.398   .     A
C1047  N1087   1.433   .     S
C1047  C1054   1.411   .     A
C1048  C1051   1.461   .     S
C1048  C635    1.349   1_565 S
C1048  N671    1.438   1_565 S
C1049  C1050   1.434   .     S
C1050  O1099   1.276   .     A
C1050  O1093   1.278   .     A
C1051  O1100   1.272   .     A
C1051  O1094   1.265   .     A
C1052  O1091   1.272   .     A
C1052  C1055   1.453   .     S
C1052  O1089   1.276   .     A
C1053  O1090   1.285   .     A
C1053  C1054   1.478   .     S
C1053  O1092   1.290   .     A
C1054  C1057   1.400   .     A
C1056  H1079   1.085   .     S
C1056  C1059   1.401   .     A
C1057  H1080   1.075   .     S
C1057  C1058   1.409   .     A
C1058  C1059   1.416   .     A
C1058  C1060   1.429   .     A
C1059  C442    1.390   1_556 S
C1060  C440    1.427   1_556 S
C1061  C1062   1.416   .     A
C1062  H1081   1.075   .     S
C1062  C1063   1.386   .     A
C1063  H1064   1.085   .     S
H1065  N1083   1.046   .     S
H1066  N1083   1.046   .     S
H1067  N1084   1.044   .     S
H1068  N1084   1.046   .     S
H1069  N671    1.045   1_565 S
H1070  N1085   1.045   .     S
H1073  N1087   1.046   .     S
H1074  N1087   1.046   .     S
H1075  C1115   1.086   .     S
N1084  C1183   1.443   1_455 S
N1086  C635    1.437   1_565 S
N1086  H657    1.046   1_565 S
N1086  H658    1.046   1_565 S
O1088  Zn1104  1.932   .     S
O1088  Zn1101  1.970   .     S
O1088  Zn1102  1.947   .     S
O1088  Zn1103  1.929   .     S
O1089  Zn1102  1.928   .     S
O1090  Zn1104  1.943   .     S
O1091  Zn1103  1.937   .     S
O1092  Zn1101  1.924   .     S
O1093  Zn1101  1.936   .     S
O1094  Zn1104  1.938   .     S
O1095  Zn1102  1.925   .     S
O1096  Zn1103  1.940   .     S
O1097  Zn1104  1.932   .     S
O1098  Zn1101  1.919   .     S
O1099  Zn1102  1.947   .     S
O1100  Zn1103  1.940   .     S
C1105  O1166   1.271   .     A
C1105  O1164   1.271   .     A
C1105  C1115   1.440   .     S
C1106  H1151   1.076   .     S
C1106  C1107   1.384   .     A
C1106  C1129   1.413   .     A
C1107  H1147   1.083   .     S
C1107  C488    1.395   1_556 S
C1108  O1167   1.284   .     A
C1108  C1114   1.467   .     S
C1108  O1165   1.283   .     A
C1109  C1110   1.425   .     A
C1109  C1111   1.416   .     A
C1110  C1113   1.410   .     A
C1110  C1130   1.430   .     A
C1111  N1152   1.439   .     S
C1111  C1112   1.398   .     A
C1112  C1124   1.392   .     A
C1112  H1146   1.084   .     S
C1113  C1124   1.389   .     A
C1113  H1145   1.076   .     S
C1114  C1184   1.341   .     S
C1114  N1222   1.443   .     S
C1116  C1125   1.398   .     A
C1116  N1156   1.433   .     S
C1116  C1123   1.411   .     A
C1117  C1120   1.461   .     S
C1117  C704    1.349   1_565 S
C1117  N740    1.438   1_565 S
C1118  C1119   1.434   .     S
C1119  O1168   1.276   .     A
C1119  O1162   1.278   .     A
C1120  O1169   1.272   .     A
C1120  O1163   1.265   .     A
C1121  O1160   1.272   .     A
C1121  C1124   1.453   .     S
C1121  O1158   1.276   .     A
C1122  O1159   1.285   .     A
C1122  C1123   1.478   .     S
C1122  O1161   1.290   .     A
C1123  C1126   1.400   .     A
C1125  H1148   1.085   .     S
C1125  C1128   1.401   .     A
C1126  H1149   1.075   .     S
C1126  C1127   1.409   .     A
C1127  C1128   1.416   .     A
C1127  C1129   1.429   .     A
C1128  C511    1.390   1_556 S
C1129  C509    1.427   1_556 S
C1130  C1131   1.416   .     A
C1131  H1150   1.075   .     S
C1131  C1132   1.386   .     A
C1132  H1133   1.085   .     S
H1134  N1152   1.046   .     S
H1135  N1152   1.046   .     S
H1136  N1153   1.044   .     S
H1137  N1153   1.046   .     S
H1138  N740    1.045   1_565 S
H1139  N1154   1.045   .     S
H1142  N1156   1.046   .     S
H1143  N1156   1.046   .     S
H1144  C1184   1.086   .     S
N1155  C704    1.437   1_565 S
N1155  H726    1.046   1_565 S
N1155  H727    1.046   1_565 S
O1157  Zn1173  1.932   .     S
O1157  Zn1170  1.970   .     S
O1157  Zn1171  1.947   .     S
O1157  Zn1172  1.929   .     S
O1158  Zn1171  1.928   .     S
O1159  Zn1173  1.943   .     S
O1160  Zn1172  1.937   .     S
O1161  Zn1170  1.924   .     S
O1162  Zn1170  1.936   .     S
O1163  Zn1173  1.938   .     S
O1164  Zn1171  1.925   .     S
O1165  Zn1172  1.940   .     S
O1166  Zn1173  1.932   .     S
O1167  Zn1170  1.919   .     S
O1168  Zn1171  1.947   .     S
O1169  Zn1172  1.940   .     S
C1174  O1235   1.271   .     A
C1174  O1233   1.271   .     A
C1174  C1184   1.440   .     S
C1175  H1220   1.076   .     S
C1175  C1176   1.384   .     A
C1175  C1198   1.413   .     A
C1176  H1216   1.083   .     S
C1176  C557    1.395   1_556 S
C1177  O1236   1.284   .     A
C1177  C1183   1.467   .     S
C1177  O1234   1.283   .     A
C1178  C1179   1.425   .     A
C1178  C1180   1.416   .     A
C1179  C1182   1.410   .     A
C1179  C1199   1.430   .     A
C1180  N1221   1.439   .     S
C1180  C1181   1.398   .     A
C1181  C1193   1.392   .     A
C1181  H1215   1.084   .     S
C1182  C1193   1.389   .     A
C1182  H1214   1.076   .     S
C1183  C1046   1.341   1_655 S
C1183  N1084   1.443   1_655 S
C1185  C1194   1.398   .     A
C1185  N1225   1.433   .     S
C1185  C1192   1.411   .     A
C1186  C1189   1.461   .     S
C1186  C773    1.349   1_565 S
C1186  N809    1.438   1_565 S
C1187  C1188   1.434   .     S
C1188  O1237   1.276   .     A
C1188  O1231   1.278   .     A
C1189  O1238   1.272   .     A
C1189  O1232   1.265   .     A
C1190  O1229   1.272   .     A
C1190  C1193   1.453   .     S
C1190  O1227   1.276   .     A
C1191  O1228   1.285   .     A
C1191  C1192   1.478   .     S
C1191  O1230   1.290   .     A
C1192  C1195   1.400   .     A
C1194  H1217   1.085   .     S
C1194  C1197   1.401   .     A
C1195  H1218   1.075   .     S
C1195  C1196   1.409   .     A
C1196  C1197   1.416   .     A
C1196  C1198   1.429   .     A
C1197  C580    1.390   1_556 S
C1198  C578    1.427   1_556 S
C1199  C1200   1.416   .     A
C1200  H1219   1.075   .     S
C1200  C1201   1.386   .     A
C1201  H1202   1.085   .     S
H1203  N1221   1.046   .     S
H1204  N1221   1.046   .     S
H1205  N1222   1.044   .     S
H1206  N1222   1.046   .     S
H1207  N809    1.045   1_565 S
H1208  N1223   1.045   .     S
H1211  N1225   1.046   .     S
H1212  N1225   1.046   .     S
H1213  C1046   1.086   1_655 S
N1224  C773    1.437   1_565 S
N1224  H795    1.046   1_565 S
N1224  H796    1.046   1_565 S
O1226  Zn1242  1.932   .     S
O1226  Zn1239  1.970   .     S
O1226  Zn1240  1.947   .     S
O1226  Zn1241  1.929   .     S
O1227  Zn1240  1.928   .     S
O1228  Zn1242  1.943   .     S
O1229  Zn1241  1.937   .     S
O1230  Zn1239  1.924   .     S
O1231  Zn1239  1.936   .     S
O1232  Zn1242  1.938   .     S
O1233  Zn1240  1.925   .     S
O1234  Zn1241  1.940   .     S
O1235  Zn1242  1.932   .     S
O1236  Zn1239  1.919   .     S
O1237  Zn1240  1.947   .     S
O1238  Zn1241  1.940   .     S
