data_str_m2_o5_o17_pcu_sym.2
_audit_creation_date              2020-01-03
_audit_creation_method            'Materials Studio'
_symmetry_space_group_name_H-M    'P1'
_symmetry_Int_Tables_number       1
_symmetry_cell_setting            triclinic
loop_
_symmetry_equiv_pos_as_xyz
  x,y,z
_cell_length_a                    30.1646
_cell_length_b                    27.2920
_cell_length_c                    23.3606
_cell_angle_alpha                 90.0055
_cell_angle_beta                  90.0000
_cell_angle_gamma                 90.0000
loop_
_atom_site_label
_atom_site_type_symbol
_atom_site_fract_x
_atom_site_fract_y
_atom_site_fract_z
_atom_site_U_iso_or_equiv
_atom_site_adp_type
_atom_site_occupancy
C1     C     0.25000   0.07334   0.16667   0.00000  Uiso   1.00
C2     C     0.11576   0.16667   0.16667   0.00000  Uiso   1.00
C3     C     0.45354   0.15189   0.21620   0.00000  Uiso   1.00
C4     C     0.04646   0.18144   0.11714   0.00000  Uiso   1.00
C5     C     0.45354   0.18144   0.11714   0.00000  Uiso   1.00
C6     C     0.04646   0.15189   0.21620   0.00000  Uiso   1.00
C7     C     0.47676   0.16667   0.16667   0.00000  Uiso   1.00
C8     C     0.02324   0.16667   0.16667   0.00000  Uiso   1.00
C9     C     0.47689   0.13683   0.26499   0.00000  Uiso   1.00
C10    C     0.02311   0.19650   0.06834   0.00000  Uiso   1.00
C11    C     0.47689   0.19650   0.06834   0.00000  Uiso   1.00
C12    C     0.25000   0.25999   0.16667   0.00000  Uiso   1.00
C13    C     0.02311   0.13683   0.26499   0.00000  Uiso   1.00
C14    C     0.25000   0.02179   0.16666   0.00000  Uiso   1.00
C15    C     0.25000   0.31154   0.16667   0.00000  Uiso   1.00
C16    C     0.16410   0.16667   0.16667   0.00000  Uiso   1.00
C17    C     0.33590   0.16667   0.16667   0.00000  Uiso   1.00
C18    C     0.40735   0.18101   0.11736   0.00000  Uiso   1.00
C19    C     0.09265   0.15232   0.21598   0.00000  Uiso   1.00
C20    C     0.40735   0.15232   0.21598   0.00000  Uiso   1.00
C21    C     0.09265   0.18101   0.11736   0.00000  Uiso   1.00
C22    C     0.38424   0.16667   0.16667   0.00000  Uiso   1.00
Cu23   Cu    0.25000   0.16667   0.22303   0.00000  Uiso   1.00
Cu24   Cu    0.25000   0.16667   0.11031   0.00000  Uiso   1.00
H25    H     0.45940   0.12506   0.30311   0.00000  Uiso   1.00
H26    H     0.04060   0.20827   0.03023   0.00000  Uiso   1.00
H27    H     0.45940   0.20827   0.03023   0.00000  Uiso   1.00
H28    H     0.04060   0.12506   0.30311   0.00000  Uiso   1.00
H29    H     0.38939   0.19235   0.07938   0.00000  Uiso   1.00
H30    H     0.11061   0.14098   0.25395   0.00000  Uiso   1.00
H31    H     0.38939   0.14098   0.25395   0.00000  Uiso   1.00
H32    H     0.11061   0.19235   0.07938   0.00000  Uiso   1.00
N33    N     0.25000   0.16667   0.02561   0.00000  Uiso   1.00
N34    N     0.25000   0.16667   0.30773   0.00000  Uiso   1.00
O35    O     0.25000   0.09613   0.21425   0.00000  Uiso   1.00
O36    O     0.25000   0.23720   0.11908   0.00000  Uiso   1.00
O37    O     0.25000   0.23720   0.21425   0.00000  Uiso   1.00
O38    O     0.25000   0.09613   0.11908   0.00000  Uiso   1.00
O39    O     0.18513   0.16667   0.21427   0.00000  Uiso   1.00
O40    O     0.31487   0.16667   0.11907   0.00000  Uiso   1.00
O41    O     0.31487   0.16667   0.21427   0.00000  Uiso   1.00
O42    O     0.18513   0.16667   0.11907   0.00000  Uiso   1.00
C43    C     0.75000   0.07334   0.16667   0.00000  Uiso   1.00
C44    C     0.61576   0.16667   0.16667   0.00000  Uiso   1.00
C45    C     0.95354   0.15189   0.21620   0.00000  Uiso   1.00
C46    C     0.54646   0.18144   0.11714   0.00000  Uiso   1.00
C47    C     0.95354   0.18144   0.11714   0.00000  Uiso   1.00
C48    C     0.54646   0.15189   0.21620   0.00000  Uiso   1.00
C49    C     0.97676   0.16667   0.16667   0.00000  Uiso   1.00
C50    C     0.52324   0.16667   0.16667   0.00000  Uiso   1.00
C51    C     0.97689   0.13683   0.26499   0.00000  Uiso   1.00
C52    C     0.52311   0.19650   0.06834   0.00000  Uiso   1.00
C53    C     0.97689   0.19650   0.06834   0.00000  Uiso   1.00
C54    C     0.75000   0.25999   0.16667   0.00000  Uiso   1.00
C55    C     0.52311   0.13683   0.26499   0.00000  Uiso   1.00
C56    C     0.75000   0.02179   0.16666   0.00000  Uiso   1.00
C57    C     0.75000   0.31154   0.16667   0.00000  Uiso   1.00
C58    C     0.66410   0.16667   0.16667   0.00000  Uiso   1.00
C59    C     0.83590   0.16667   0.16667   0.00000  Uiso   1.00
C60    C     0.90735   0.18101   0.11736   0.00000  Uiso   1.00
C61    C     0.59265   0.15232   0.21598   0.00000  Uiso   1.00
C62    C     0.90735   0.15232   0.21598   0.00000  Uiso   1.00
C63    C     0.59265   0.18101   0.11736   0.00000  Uiso   1.00
C64    C     0.88424   0.16667   0.16667   0.00000  Uiso   1.00
Cu65   Cu    0.75000   0.16667   0.22303   0.00000  Uiso   1.00
Cu66   Cu    0.75000   0.16667   0.11031   0.00000  Uiso   1.00
H67    H     0.95940   0.12506   0.30311   0.00000  Uiso   1.00
H68    H     0.54060   0.20827   0.03023   0.00000  Uiso   1.00
H69    H     0.95940   0.20827   0.03023   0.00000  Uiso   1.00
H70    H     0.54060   0.12506   0.30311   0.00000  Uiso   1.00
H71    H     0.88939   0.19235   0.07938   0.00000  Uiso   1.00
H72    H     0.61061   0.14098   0.25395   0.00000  Uiso   1.00
H73    H     0.88939   0.14098   0.25395   0.00000  Uiso   1.00
H74    H     0.61061   0.19235   0.07938   0.00000  Uiso   1.00
N75    N     0.75000   0.16667   0.02561   0.00000  Uiso   1.00
N76    N     0.75000   0.16667   0.30773   0.00000  Uiso   1.00
O77    O     0.75000   0.09613   0.21425   0.00000  Uiso   1.00
O78    O     0.75000   0.23720   0.11908   0.00000  Uiso   1.00
O79    O     0.75000   0.23720   0.21425   0.00000  Uiso   1.00
O80    O     0.75000   0.09613   0.11908   0.00000  Uiso   1.00
O81    O     0.68513   0.16667   0.21427   0.00000  Uiso   1.00
O82    O     0.81487   0.16667   0.11907   0.00000  Uiso   1.00
O83    O     0.81487   0.16667   0.21427   0.00000  Uiso   1.00
O84    O     0.68513   0.16667   0.11907   0.00000  Uiso   1.00
C85    C     0.25000   0.40667   0.16667   0.00000  Uiso   1.00
C86    C     0.11576   0.50000   0.16667   0.00000  Uiso   1.00
C87    C     0.45354   0.48522   0.21620   0.00000  Uiso   1.00
C88    C     0.04646   0.51478   0.11714   0.00000  Uiso   1.00
C89    C     0.45354   0.51478   0.11714   0.00000  Uiso   1.00
C90    C     0.04646   0.48522   0.21620   0.00000  Uiso   1.00
C91    C     0.47676   0.50000   0.16667   0.00000  Uiso   1.00
C92    C     0.02324   0.50000   0.16667   0.00000  Uiso   1.00
C93    C     0.47689   0.47016   0.26499   0.00000  Uiso   1.00
C94    C     0.02311   0.52984   0.06834   0.00000  Uiso   1.00
C95    C     0.47689   0.52984   0.06834   0.00000  Uiso   1.00
C96    C     0.25000   0.59333   0.16667   0.00000  Uiso   1.00
C97    C     0.02311   0.47016   0.26499   0.00000  Uiso   1.00
C98    C     0.25000   0.35512   0.16666   0.00000  Uiso   1.00
C99    C     0.25000   0.64488   0.16667   0.00000  Uiso   1.00
C100   C     0.16410   0.50000   0.16667   0.00000  Uiso   1.00
C101   C     0.33590   0.50000   0.16667   0.00000  Uiso   1.00
C102   C     0.40735   0.51434   0.11736   0.00000  Uiso   1.00
C103   C     0.09265   0.48566   0.21598   0.00000  Uiso   1.00
C104   C     0.40735   0.48566   0.21598   0.00000  Uiso   1.00
C105   C     0.09265   0.51434   0.11736   0.00000  Uiso   1.00
C106   C     0.38424   0.50000   0.16667   0.00000  Uiso   1.00
Cu107  Cu    0.25000   0.50000   0.22303   0.00000  Uiso   1.00
Cu108  Cu    0.25000   0.50000   0.11031   0.00000  Uiso   1.00
H109   H     0.45940   0.45840   0.30311   0.00000  Uiso   1.00
H110   H     0.04060   0.54160   0.03023   0.00000  Uiso   1.00
H111   H     0.45940   0.54160   0.03023   0.00000  Uiso   1.00
H112   H     0.04060   0.45840   0.30311   0.00000  Uiso   1.00
H113   H     0.38939   0.52569   0.07938   0.00000  Uiso   1.00
H114   H     0.11061   0.47431   0.25395   0.00000  Uiso   1.00
H115   H     0.38939   0.47431   0.25395   0.00000  Uiso   1.00
H116   H     0.11061   0.52569   0.07938   0.00000  Uiso   1.00
N117   N     0.25000   0.50000   0.02561   0.00000  Uiso   1.00
N118   N     0.25000   0.50000   0.30773   0.00000  Uiso   1.00
O119   O     0.25000   0.42946   0.21425   0.00000  Uiso   1.00
O120   O     0.25000   0.57054   0.11908   0.00000  Uiso   1.00
O121   O     0.25000   0.57054   0.21425   0.00000  Uiso   1.00
O122   O     0.25000   0.42946   0.11908   0.00000  Uiso   1.00
O123   O     0.18513   0.50000   0.21427   0.00000  Uiso   1.00
O124   O     0.31487   0.50000   0.11907   0.00000  Uiso   1.00
O125   O     0.31487   0.50000   0.21427   0.00000  Uiso   1.00
O126   O     0.18513   0.50000   0.11907   0.00000  Uiso   1.00
C127   C     0.75000   0.40667   0.16667   0.00000  Uiso   1.00
C128   C     0.61576   0.50000   0.16667   0.00000  Uiso   1.00
C129   C     0.95354   0.48522   0.21620   0.00000  Uiso   1.00
C130   C     0.54646   0.51478   0.11714   0.00000  Uiso   1.00
C131   C     0.95354   0.51478   0.11714   0.00000  Uiso   1.00
C132   C     0.54646   0.48522   0.21620   0.00000  Uiso   1.00
C133   C     0.97676   0.50000   0.16667   0.00000  Uiso   1.00
C134   C     0.52324   0.50000   0.16667   0.00000  Uiso   1.00
C135   C     0.97689   0.47016   0.26499   0.00000  Uiso   1.00
C136   C     0.52311   0.52984   0.06834   0.00000  Uiso   1.00
C137   C     0.97689   0.52984   0.06834   0.00000  Uiso   1.00
C138   C     0.75000   0.59333   0.16667   0.00000  Uiso   1.00
C139   C     0.52311   0.47016   0.26499   0.00000  Uiso   1.00
C140   C     0.75000   0.35512   0.16666   0.00000  Uiso   1.00
C141   C     0.75000   0.64488   0.16667   0.00000  Uiso   1.00
C142   C     0.66410   0.50000   0.16667   0.00000  Uiso   1.00
C143   C     0.83590   0.50000   0.16667   0.00000  Uiso   1.00
C144   C     0.90735   0.51434   0.11736   0.00000  Uiso   1.00
C145   C     0.59265   0.48566   0.21598   0.00000  Uiso   1.00
C146   C     0.90735   0.48566   0.21598   0.00000  Uiso   1.00
C147   C     0.59265   0.51434   0.11736   0.00000  Uiso   1.00
C148   C     0.88424   0.50000   0.16667   0.00000  Uiso   1.00
Cu149  Cu    0.75000   0.50000   0.22303   0.00000  Uiso   1.00
Cu150  Cu    0.75000   0.50000   0.11031   0.00000  Uiso   1.00
H151   H     0.95940   0.45840   0.30311   0.00000  Uiso   1.00
H152   H     0.54060   0.54160   0.03023   0.00000  Uiso   1.00
H153   H     0.95940   0.54160   0.03023   0.00000  Uiso   1.00
H154   H     0.54060   0.45840   0.30311   0.00000  Uiso   1.00
H155   H     0.88939   0.52569   0.07938   0.00000  Uiso   1.00
H156   H     0.61061   0.47431   0.25395   0.00000  Uiso   1.00
H157   H     0.88939   0.47431   0.25395   0.00000  Uiso   1.00
H158   H     0.61061   0.52569   0.07938   0.00000  Uiso   1.00
N159   N     0.75000   0.50000   0.02561   0.00000  Uiso   1.00
N160   N     0.75000   0.50000   0.30773   0.00000  Uiso   1.00
O161   O     0.75000   0.42946   0.21425   0.00000  Uiso   1.00
O162   O     0.75000   0.57054   0.11908   0.00000  Uiso   1.00
O163   O     0.75000   0.57054   0.21425   0.00000  Uiso   1.00
O164   O     0.75000   0.42946   0.11908   0.00000  Uiso   1.00
O165   O     0.68513   0.50000   0.21427   0.00000  Uiso   1.00
O166   O     0.81487   0.50000   0.11907   0.00000  Uiso   1.00
O167   O     0.81487   0.50000   0.21427   0.00000  Uiso   1.00
O168   O     0.68513   0.50000   0.11907   0.00000  Uiso   1.00
C169   C     0.25000   0.74001   0.16667   0.00000  Uiso   1.00
C170   C     0.11576   0.83333   0.16667   0.00000  Uiso   1.00
C171   C     0.45354   0.81856   0.21620   0.00000  Uiso   1.00
C172   C     0.04646   0.84811   0.11714   0.00000  Uiso   1.00
C173   C     0.45354   0.84811   0.11714   0.00000  Uiso   1.00
C174   C     0.04646   0.81856   0.21620   0.00000  Uiso   1.00
C175   C     0.47676   0.83333   0.16667   0.00000  Uiso   1.00
C176   C     0.02324   0.83333   0.16667   0.00000  Uiso   1.00
C177   C     0.47689   0.80350   0.26499   0.00000  Uiso   1.00
C178   C     0.02311   0.86317   0.06834   0.00000  Uiso   1.00
C179   C     0.47689   0.86317   0.06834   0.00000  Uiso   1.00
C180   C     0.25000   0.92666   0.16667   0.00000  Uiso   1.00
C181   C     0.02311   0.80350   0.26499   0.00000  Uiso   1.00
C182   C     0.25000   0.68846   0.16666   0.00000  Uiso   1.00
C183   C     0.25000   0.97821   0.16667   0.00000  Uiso   1.00
C184   C     0.16410   0.83333   0.16667   0.00000  Uiso   1.00
C185   C     0.33590   0.83333   0.16667   0.00000  Uiso   1.00
C186   C     0.40735   0.84768   0.11736   0.00000  Uiso   1.00
C187   C     0.09265   0.81899   0.21598   0.00000  Uiso   1.00
C188   C     0.40735   0.81899   0.21598   0.00000  Uiso   1.00
C189   C     0.09265   0.84768   0.11736   0.00000  Uiso   1.00
C190   C     0.38424   0.83333   0.16667   0.00000  Uiso   1.00
Cu191  Cu    0.25000   0.83333   0.22303   0.00000  Uiso   1.00
Cu192  Cu    0.25000   0.83333   0.11031   0.00000  Uiso   1.00
H193   H     0.45940   0.79173   0.30311   0.00000  Uiso   1.00
H194   H     0.04060   0.87494   0.03023   0.00000  Uiso   1.00
H195   H     0.45940   0.87494   0.03023   0.00000  Uiso   1.00
H196   H     0.04060   0.79173   0.30311   0.00000  Uiso   1.00
H197   H     0.38939   0.85902   0.07938   0.00000  Uiso   1.00
H198   H     0.11061   0.80765   0.25395   0.00000  Uiso   1.00
H199   H     0.38939   0.80765   0.25395   0.00000  Uiso   1.00
H200   H     0.11061   0.85902   0.07938   0.00000  Uiso   1.00
N201   N     0.25000   0.83333   0.02561   0.00000  Uiso   1.00
N202   N     0.25000   0.83333   0.30773   0.00000  Uiso   1.00
O203   O     0.25000   0.76280   0.21425   0.00000  Uiso   1.00
O204   O     0.25000   0.90387   0.11908   0.00000  Uiso   1.00
O205   O     0.25000   0.90387   0.21425   0.00000  Uiso   1.00
O206   O     0.25000   0.76280   0.11908   0.00000  Uiso   1.00
O207   O     0.18513   0.83333   0.21427   0.00000  Uiso   1.00
O208   O     0.31487   0.83333   0.11907   0.00000  Uiso   1.00
O209   O     0.31487   0.83333   0.21427   0.00000  Uiso   1.00
O210   O     0.18513   0.83333   0.11907   0.00000  Uiso   1.00
C211   C     0.75000   0.74001   0.16667   0.00000  Uiso   1.00
C212   C     0.61576   0.83333   0.16667   0.00000  Uiso   1.00
C213   C     0.95354   0.81856   0.21620   0.00000  Uiso   1.00
C214   C     0.54646   0.84811   0.11714   0.00000  Uiso   1.00
C215   C     0.95354   0.84811   0.11714   0.00000  Uiso   1.00
C216   C     0.54646   0.81856   0.21620   0.00000  Uiso   1.00
C217   C     0.97676   0.83333   0.16667   0.00000  Uiso   1.00
C218   C     0.52324   0.83333   0.16667   0.00000  Uiso   1.00
C219   C     0.97689   0.80350   0.26499   0.00000  Uiso   1.00
C220   C     0.52311   0.86317   0.06834   0.00000  Uiso   1.00
C221   C     0.97689   0.86317   0.06834   0.00000  Uiso   1.00
C222   C     0.75000   0.92666   0.16667   0.00000  Uiso   1.00
C223   C     0.52311   0.80350   0.26499   0.00000  Uiso   1.00
C224   C     0.75000   0.68846   0.16666   0.00000  Uiso   1.00
C225   C     0.75000   0.97821   0.16667   0.00000  Uiso   1.00
C226   C     0.66410   0.83333   0.16667   0.00000  Uiso   1.00
C227   C     0.83590   0.83333   0.16667   0.00000  Uiso   1.00
C228   C     0.90735   0.84768   0.11736   0.00000  Uiso   1.00
C229   C     0.59265   0.81899   0.21598   0.00000  Uiso   1.00
C230   C     0.90735   0.81899   0.21598   0.00000  Uiso   1.00
C231   C     0.59265   0.84768   0.11736   0.00000  Uiso   1.00
C232   C     0.88424   0.83333   0.16667   0.00000  Uiso   1.00
Cu233  Cu    0.75000   0.83333   0.22303   0.00000  Uiso   1.00
Cu234  Cu    0.75000   0.83333   0.11031   0.00000  Uiso   1.00
H235   H     0.95940   0.79173   0.30311   0.00000  Uiso   1.00
H236   H     0.54060   0.87494   0.03023   0.00000  Uiso   1.00
H237   H     0.95940   0.87494   0.03023   0.00000  Uiso   1.00
H238   H     0.54060   0.79173   0.30311   0.00000  Uiso   1.00
H239   H     0.88939   0.85902   0.07938   0.00000  Uiso   1.00
H240   H     0.61061   0.80765   0.25395   0.00000  Uiso   1.00
H241   H     0.88939   0.80765   0.25395   0.00000  Uiso   1.00
H242   H     0.61061   0.85902   0.07938   0.00000  Uiso   1.00
N243   N     0.75000   0.83333   0.02561   0.00000  Uiso   1.00
N244   N     0.75000   0.83333   0.30773   0.00000  Uiso   1.00
O245   O     0.75000   0.76280   0.21425   0.00000  Uiso   1.00
O246   O     0.75000   0.90387   0.11908   0.00000  Uiso   1.00
O247   O     0.75000   0.90387   0.21425   0.00000  Uiso   1.00
O248   O     0.75000   0.76280   0.11908   0.00000  Uiso   1.00
O249   O     0.68513   0.83333   0.21427   0.00000  Uiso   1.00
O250   O     0.81487   0.83333   0.11907   0.00000  Uiso   1.00
O251   O     0.81487   0.83333   0.21427   0.00000  Uiso   1.00
O252   O     0.68513   0.83333   0.11907   0.00000  Uiso   1.00
C253   C     0.25000   0.07334   0.50000   0.00000  Uiso   1.00
C254   C     0.11576   0.16667   0.50000   0.00000  Uiso   1.00
C255   C     0.45354   0.15189   0.54953   0.00000  Uiso   1.00
C256   C     0.04646   0.18144   0.45047   0.00000  Uiso   1.00
C257   C     0.45354   0.18144   0.45047   0.00000  Uiso   1.00
C258   C     0.04646   0.15189   0.54953   0.00000  Uiso   1.00
C259   C     0.47676   0.16667   0.50000   0.00000  Uiso   1.00
C260   C     0.02324   0.16667   0.50000   0.00000  Uiso   1.00
C261   C     0.47689   0.13683   0.59832   0.00000  Uiso   1.00
C262   C     0.02311   0.19650   0.40168   0.00000  Uiso   1.00
C263   C     0.47689   0.19650   0.40168   0.00000  Uiso   1.00
C264   C     0.25000   0.25999   0.50000   0.00000  Uiso   1.00
C265   C     0.02311   0.13683   0.59832   0.00000  Uiso   1.00
C266   C     0.25000   0.02179   0.50000   0.00000  Uiso   1.00
C267   C     0.25000   0.31154   0.50000   0.00000  Uiso   1.00
C268   C     0.16410   0.16667   0.50000   0.00000  Uiso   1.00
C269   C     0.33590   0.16667   0.50000   0.00000  Uiso   1.00
C270   C     0.40735   0.18101   0.45069   0.00000  Uiso   1.00
C271   C     0.09265   0.15232   0.54931   0.00000  Uiso   1.00
C272   C     0.40735   0.15232   0.54931   0.00000  Uiso   1.00
C273   C     0.09265   0.18101   0.45069   0.00000  Uiso   1.00
C274   C     0.38424   0.16667   0.50000   0.00000  Uiso   1.00
Cu275  Cu    0.25000   0.16667   0.55636   0.00000  Uiso   1.00
Cu276  Cu    0.25000   0.16667   0.44364   0.00000  Uiso   1.00
H277   H     0.45940   0.12506   0.63644   0.00000  Uiso   1.00
H278   H     0.04060   0.20827   0.36356   0.00000  Uiso   1.00
H279   H     0.45940   0.20827   0.36356   0.00000  Uiso   1.00
H280   H     0.04060   0.12506   0.63644   0.00000  Uiso   1.00
H281   H     0.38939   0.19235   0.41272   0.00000  Uiso   1.00
H282   H     0.11061   0.14098   0.58728   0.00000  Uiso   1.00
H283   H     0.38939   0.14098   0.58728   0.00000  Uiso   1.00
H284   H     0.11061   0.19235   0.41271   0.00000  Uiso   1.00
N285   N     0.25000   0.16667   0.35894   0.00000  Uiso   1.00
N286   N     0.25000   0.16667   0.64106   0.00000  Uiso   1.00
O287   O     0.25000   0.09613   0.54759   0.00000  Uiso   1.00
O288   O     0.25000   0.23720   0.45241   0.00000  Uiso   1.00
O289   O     0.25000   0.23720   0.54759   0.00000  Uiso   1.00
O290   O     0.25000   0.09613   0.45241   0.00000  Uiso   1.00
O291   O     0.18513   0.16667   0.54760   0.00000  Uiso   1.00
O292   O     0.31487   0.16667   0.45240   0.00000  Uiso   1.00
O293   O     0.31487   0.16667   0.54760   0.00000  Uiso   1.00
O294   O     0.18513   0.16667   0.45240   0.00000  Uiso   1.00
C295   C     0.75000   0.07334   0.50000   0.00000  Uiso   1.00
C296   C     0.61576   0.16667   0.50000   0.00000  Uiso   1.00
C297   C     0.95354   0.15189   0.54953   0.00000  Uiso   1.00
C298   C     0.54646   0.18144   0.45047   0.00000  Uiso   1.00
C299   C     0.95354   0.18144   0.45047   0.00000  Uiso   1.00
C300   C     0.54646   0.15189   0.54953   0.00000  Uiso   1.00
C301   C     0.97676   0.16667   0.50000   0.00000  Uiso   1.00
C302   C     0.52324   0.16667   0.50000   0.00000  Uiso   1.00
C303   C     0.97689   0.13683   0.59832   0.00000  Uiso   1.00
C304   C     0.52311   0.19650   0.40168   0.00000  Uiso   1.00
C305   C     0.97689   0.19650   0.40168   0.00000  Uiso   1.00
C306   C     0.75000   0.25999   0.50000   0.00000  Uiso   1.00
C307   C     0.52311   0.13683   0.59832   0.00000  Uiso   1.00
C308   C     0.75000   0.02179   0.50000   0.00000  Uiso   1.00
C309   C     0.75000   0.31154   0.50000   0.00000  Uiso   1.00
C310   C     0.66410   0.16667   0.50000   0.00000  Uiso   1.00
C311   C     0.83590   0.16667   0.50000   0.00000  Uiso   1.00
C312   C     0.90735   0.18101   0.45069   0.00000  Uiso   1.00
C313   C     0.59265   0.15232   0.54931   0.00000  Uiso   1.00
C314   C     0.90735   0.15232   0.54931   0.00000  Uiso   1.00
C315   C     0.59265   0.18101   0.45069   0.00000  Uiso   1.00
C316   C     0.88424   0.16667   0.50000   0.00000  Uiso   1.00
Cu317  Cu    0.75000   0.16667   0.55636   0.00000  Uiso   1.00
Cu318  Cu    0.75000   0.16667   0.44364   0.00000  Uiso   1.00
H319   H     0.95940   0.12506   0.63644   0.00000  Uiso   1.00
H320   H     0.54060   0.20827   0.36356   0.00000  Uiso   1.00
H321   H     0.95940   0.20827   0.36356   0.00000  Uiso   1.00
H322   H     0.54060   0.12506   0.63644   0.00000  Uiso   1.00
H323   H     0.88939   0.19235   0.41272   0.00000  Uiso   1.00
H324   H     0.61061   0.14098   0.58728   0.00000  Uiso   1.00
H325   H     0.88939   0.14098   0.58728   0.00000  Uiso   1.00
H326   H     0.61061   0.19235   0.41271   0.00000  Uiso   1.00
N327   N     0.75000   0.16667   0.35894   0.00000  Uiso   1.00
N328   N     0.75000   0.16667   0.64106   0.00000  Uiso   1.00
O329   O     0.75000   0.09613   0.54759   0.00000  Uiso   1.00
O330   O     0.75000   0.23720   0.45241   0.00000  Uiso   1.00
O331   O     0.75000   0.23720   0.54759   0.00000  Uiso   1.00
O332   O     0.75000   0.09613   0.45241   0.00000  Uiso   1.00
O333   O     0.68513   0.16667   0.54760   0.00000  Uiso   1.00
O334   O     0.81487   0.16667   0.45240   0.00000  Uiso   1.00
O335   O     0.81487   0.16667   0.54760   0.00000  Uiso   1.00
O336   O     0.68513   0.16667   0.45240   0.00000  Uiso   1.00
C337   C     0.25000   0.40667   0.50000   0.00000  Uiso   1.00
C338   C     0.11576   0.50000   0.50000   0.00000  Uiso   1.00
C339   C     0.45354   0.48522   0.54953   0.00000  Uiso   1.00
C340   C     0.04646   0.51478   0.45047   0.00000  Uiso   1.00
C341   C     0.45354   0.51478   0.45047   0.00000  Uiso   1.00
C342   C     0.04646   0.48522   0.54953   0.00000  Uiso   1.00
C343   C     0.47676   0.50000   0.50000   0.00000  Uiso   1.00
C344   C     0.02324   0.50000   0.50000   0.00000  Uiso   1.00
C345   C     0.47689   0.47016   0.59832   0.00000  Uiso   1.00
C346   C     0.02311   0.52984   0.40168   0.00000  Uiso   1.00
C347   C     0.47689   0.52984   0.40168   0.00000  Uiso   1.00
C348   C     0.25000   0.59333   0.50000   0.00000  Uiso   1.00
C349   C     0.02311   0.47016   0.59832   0.00000  Uiso   1.00
C350   C     0.25000   0.35512   0.50000   0.00000  Uiso   1.00
C351   C     0.25000   0.64488   0.50000   0.00000  Uiso   1.00
C352   C     0.16410   0.50000   0.50000   0.00000  Uiso   1.00
C353   C     0.33590   0.50000   0.50000   0.00000  Uiso   1.00
C354   C     0.40735   0.51434   0.45069   0.00000  Uiso   1.00
C355   C     0.09265   0.48566   0.54931   0.00000  Uiso   1.00
C356   C     0.40735   0.48566   0.54931   0.00000  Uiso   1.00
C357   C     0.09265   0.51434   0.45069   0.00000  Uiso   1.00
C358   C     0.38424   0.50000   0.50000   0.00000  Uiso   1.00
Cu359  Cu    0.25000   0.50000   0.55636   0.00000  Uiso   1.00
Cu360  Cu    0.25000   0.50000   0.44364   0.00000  Uiso   1.00
H361   H     0.45940   0.45840   0.63644   0.00000  Uiso   1.00
H362   H     0.04060   0.54160   0.36356   0.00000  Uiso   1.00
H363   H     0.45940   0.54160   0.36356   0.00000  Uiso   1.00
H364   H     0.04060   0.45840   0.63644   0.00000  Uiso   1.00
H365   H     0.38939   0.52569   0.41272   0.00000  Uiso   1.00
H366   H     0.11061   0.47431   0.58728   0.00000  Uiso   1.00
H367   H     0.38939   0.47431   0.58728   0.00000  Uiso   1.00
H368   H     0.11061   0.52569   0.41271   0.00000  Uiso   1.00
N369   N     0.25000   0.50000   0.35894   0.00000  Uiso   1.00
N370   N     0.25000   0.50000   0.64106   0.00000  Uiso   1.00
O371   O     0.25000   0.42946   0.54759   0.00000  Uiso   1.00
O372   O     0.25000   0.57054   0.45241   0.00000  Uiso   1.00
O373   O     0.25000   0.57054   0.54759   0.00000  Uiso   1.00
O374   O     0.25000   0.42946   0.45241   0.00000  Uiso   1.00
O375   O     0.18513   0.50000   0.54760   0.00000  Uiso   1.00
O376   O     0.31487   0.50000   0.45240   0.00000  Uiso   1.00
O377   O     0.31487   0.50000   0.54760   0.00000  Uiso   1.00
O378   O     0.18513   0.50000   0.45240   0.00000  Uiso   1.00
C379   C     0.75000   0.40667   0.50000   0.00000  Uiso   1.00
C380   C     0.61576   0.50000   0.50000   0.00000  Uiso   1.00
C381   C     0.95354   0.48522   0.54953   0.00000  Uiso   1.00
C382   C     0.54646   0.51478   0.45047   0.00000  Uiso   1.00
C383   C     0.95354   0.51478   0.45047   0.00000  Uiso   1.00
C384   C     0.54646   0.48522   0.54953   0.00000  Uiso   1.00
C385   C     0.97676   0.50000   0.50000   0.00000  Uiso   1.00
C386   C     0.52324   0.50000   0.50000   0.00000  Uiso   1.00
C387   C     0.97689   0.47016   0.59832   0.00000  Uiso   1.00
C388   C     0.52311   0.52984   0.40168   0.00000  Uiso   1.00
C389   C     0.97689   0.52984   0.40168   0.00000  Uiso   1.00
C390   C     0.75000   0.59333   0.50000   0.00000  Uiso   1.00
C391   C     0.52311   0.47016   0.59832   0.00000  Uiso   1.00
C392   C     0.75000   0.35512   0.50000   0.00000  Uiso   1.00
C393   C     0.75000   0.64488   0.50000   0.00000  Uiso   1.00
C394   C     0.66410   0.50000   0.50000   0.00000  Uiso   1.00
C395   C     0.83590   0.50000   0.50000   0.00000  Uiso   1.00
C396   C     0.90735   0.51434   0.45069   0.00000  Uiso   1.00
C397   C     0.59265   0.48566   0.54931   0.00000  Uiso   1.00
C398   C     0.90735   0.48566   0.54931   0.00000  Uiso   1.00
C399   C     0.59265   0.51434   0.45069   0.00000  Uiso   1.00
C400   C     0.88424   0.50000   0.50000   0.00000  Uiso   1.00
Cu401  Cu    0.75000   0.50000   0.55636   0.00000  Uiso   1.00
Cu402  Cu    0.75000   0.50000   0.44364   0.00000  Uiso   1.00
H403   H     0.95940   0.45840   0.63644   0.00000  Uiso   1.00
H404   H     0.54060   0.54160   0.36356   0.00000  Uiso   1.00
H405   H     0.95940   0.54160   0.36356   0.00000  Uiso   1.00
H406   H     0.54060   0.45840   0.63644   0.00000  Uiso   1.00
H407   H     0.88939   0.52569   0.41272   0.00000  Uiso   1.00
H408   H     0.61061   0.47431   0.58728   0.00000  Uiso   1.00
H409   H     0.88939   0.47431   0.58728   0.00000  Uiso   1.00
H410   H     0.61061   0.52569   0.41271   0.00000  Uiso   1.00
N411   N     0.75000   0.50000   0.35894   0.00000  Uiso   1.00
N412   N     0.75000   0.50000   0.64106   0.00000  Uiso   1.00
O413   O     0.75000   0.42946   0.54759   0.00000  Uiso   1.00
O414   O     0.75000   0.57054   0.45241   0.00000  Uiso   1.00
O415   O     0.75000   0.57054   0.54759   0.00000  Uiso   1.00
O416   O     0.75000   0.42946   0.45241   0.00000  Uiso   1.00
O417   O     0.68513   0.50000   0.54760   0.00000  Uiso   1.00
O418   O     0.81487   0.50000   0.45240   0.00000  Uiso   1.00
O419   O     0.81487   0.50000   0.54760   0.00000  Uiso   1.00
O420   O     0.68513   0.50000   0.45240   0.00000  Uiso   1.00
C421   C     0.25000   0.74001   0.50000   0.00000  Uiso   1.00
C422   C     0.11576   0.83333   0.50000   0.00000  Uiso   1.00
C423   C     0.45354   0.81856   0.54953   0.00000  Uiso   1.00
C424   C     0.04646   0.84811   0.45047   0.00000  Uiso   1.00
C425   C     0.45354   0.84811   0.45047   0.00000  Uiso   1.00
C426   C     0.04646   0.81856   0.54953   0.00000  Uiso   1.00
C427   C     0.47676   0.83333   0.50000   0.00000  Uiso   1.00
C428   C     0.02324   0.83333   0.50000   0.00000  Uiso   1.00
C429   C     0.47689   0.80350   0.59832   0.00000  Uiso   1.00
C430   C     0.02311   0.86317   0.40168   0.00000  Uiso   1.00
C431   C     0.47689   0.86317   0.40168   0.00000  Uiso   1.00
C432   C     0.25000   0.92666   0.50000   0.00000  Uiso   1.00
C433   C     0.02311   0.80350   0.59832   0.00000  Uiso   1.00
C434   C     0.25000   0.68846   0.50000   0.00000  Uiso   1.00
C435   C     0.25000   0.97821   0.50000   0.00000  Uiso   1.00
C436   C     0.16410   0.83333   0.50000   0.00000  Uiso   1.00
C437   C     0.33590   0.83333   0.50000   0.00000  Uiso   1.00
C438   C     0.40735   0.84768   0.45069   0.00000  Uiso   1.00
C439   C     0.09265   0.81899   0.54931   0.00000  Uiso   1.00
C440   C     0.40735   0.81899   0.54931   0.00000  Uiso   1.00
C441   C     0.09265   0.84768   0.45069   0.00000  Uiso   1.00
C442   C     0.38424   0.83333   0.50000   0.00000  Uiso   1.00
Cu443  Cu    0.25000   0.83333   0.55636   0.00000  Uiso   1.00
Cu444  Cu    0.25000   0.83333   0.44364   0.00000  Uiso   1.00
H445   H     0.45940   0.79173   0.63644   0.00000  Uiso   1.00
H446   H     0.04060   0.87494   0.36356   0.00000  Uiso   1.00
H447   H     0.45940   0.87494   0.36356   0.00000  Uiso   1.00
H448   H     0.04060   0.79173   0.63644   0.00000  Uiso   1.00
H449   H     0.38939   0.85902   0.41272   0.00000  Uiso   1.00
H450   H     0.11061   0.80765   0.58728   0.00000  Uiso   1.00
H451   H     0.38939   0.80765   0.58728   0.00000  Uiso   1.00
H452   H     0.11061   0.85902   0.41271   0.00000  Uiso   1.00
N453   N     0.25000   0.83333   0.35894   0.00000  Uiso   1.00
N454   N     0.25000   0.83333   0.64106   0.00000  Uiso   1.00
O455   O     0.25000   0.76280   0.54759   0.00000  Uiso   1.00
O456   O     0.25000   0.90387   0.45241   0.00000  Uiso   1.00
O457   O     0.25000   0.90387   0.54759   0.00000  Uiso   1.00
O458   O     0.25000   0.76280   0.45241   0.00000  Uiso   1.00
O459   O     0.18513   0.83333   0.54760   0.00000  Uiso   1.00
O460   O     0.31487   0.83333   0.45240   0.00000  Uiso   1.00
O461   O     0.31487   0.83333   0.54760   0.00000  Uiso   1.00
O462   O     0.18513   0.83333   0.45240   0.00000  Uiso   1.00
C463   C     0.75000   0.74001   0.50000   0.00000  Uiso   1.00
C464   C     0.61576   0.83333   0.50000   0.00000  Uiso   1.00
C465   C     0.95354   0.81856   0.54953   0.00000  Uiso   1.00
C466   C     0.54646   0.84811   0.45047   0.00000  Uiso   1.00
C467   C     0.95354   0.84811   0.45047   0.00000  Uiso   1.00
C468   C     0.54646   0.81856   0.54953   0.00000  Uiso   1.00
C469   C     0.97676   0.83333   0.50000   0.00000  Uiso   1.00
C470   C     0.52324   0.83333   0.50000   0.00000  Uiso   1.00
C471   C     0.97689   0.80350   0.59832   0.00000  Uiso   1.00
C472   C     0.52311   0.86317   0.40168   0.00000  Uiso   1.00
C473   C     0.97689   0.86317   0.40168   0.00000  Uiso   1.00
C474   C     0.75000   0.92666   0.50000   0.00000  Uiso   1.00
C475   C     0.52311   0.80350   0.59832   0.00000  Uiso   1.00
C476   C     0.75000   0.68846   0.50000   0.00000  Uiso   1.00
C477   C     0.75000   0.97821   0.50000   0.00000  Uiso   1.00
C478   C     0.66410   0.83333   0.50000   0.00000  Uiso   1.00
C479   C     0.83590   0.83333   0.50000   0.00000  Uiso   1.00
C480   C     0.90735   0.84768   0.45069   0.00000  Uiso   1.00
C481   C     0.59265   0.81899   0.54931   0.00000  Uiso   1.00
C482   C     0.90735   0.81899   0.54931   0.00000  Uiso   1.00
C483   C     0.59265   0.84768   0.45069   0.00000  Uiso   1.00
C484   C     0.88424   0.83333   0.50000   0.00000  Uiso   1.00
Cu485  Cu    0.75000   0.83333   0.55636   0.00000  Uiso   1.00
Cu486  Cu    0.75000   0.83333   0.44364   0.00000  Uiso   1.00
H487   H     0.95940   0.79173   0.63644   0.00000  Uiso   1.00
H488   H     0.54060   0.87494   0.36356   0.00000  Uiso   1.00
H489   H     0.95940   0.87494   0.36356   0.00000  Uiso   1.00
H490   H     0.54060   0.79173   0.63644   0.00000  Uiso   1.00
H491   H     0.88939   0.85902   0.41272   0.00000  Uiso   1.00
H492   H     0.61061   0.80765   0.58728   0.00000  Uiso   1.00
H493   H     0.88939   0.80765   0.58728   0.00000  Uiso   1.00
H494   H     0.61061   0.85902   0.41271   0.00000  Uiso   1.00
N495   N     0.75000   0.83333   0.35894   0.00000  Uiso   1.00
N496   N     0.75000   0.83333   0.64106   0.00000  Uiso   1.00
O497   O     0.75000   0.76280   0.54759   0.00000  Uiso   1.00
O498   O     0.75000   0.90387   0.45241   0.00000  Uiso   1.00
O499   O     0.75000   0.90387   0.54759   0.00000  Uiso   1.00
O500   O     0.75000   0.76280   0.45241   0.00000  Uiso   1.00
O501   O     0.68513   0.83333   0.54760   0.00000  Uiso   1.00
O502   O     0.81487   0.83333   0.45240   0.00000  Uiso   1.00
O503   O     0.81487   0.83333   0.54760   0.00000  Uiso   1.00
O504   O     0.68513   0.83333   0.45240   0.00000  Uiso   1.00
C505   C     0.25000   0.07334   0.83333   0.00000  Uiso   1.00
C506   C     0.11576   0.16667   0.83333   0.00000  Uiso   1.00
C507   C     0.45354   0.15189   0.88286   0.00000  Uiso   1.00
C508   C     0.04646   0.18144   0.78380   0.00000  Uiso   1.00
C509   C     0.45354   0.18144   0.78380   0.00000  Uiso   1.00
C510   C     0.04646   0.15189   0.88286   0.00000  Uiso   1.00
C511   C     0.47676   0.16667   0.83333   0.00000  Uiso   1.00
C512   C     0.02324   0.16667   0.83333   0.00000  Uiso   1.00
C513   C     0.47689   0.13683   0.93166   0.00000  Uiso   1.00
C514   C     0.02311   0.19650   0.73501   0.00000  Uiso   1.00
C515   C     0.47689   0.19650   0.73501   0.00000  Uiso   1.00
C516   C     0.25000   0.25999   0.83333   0.00000  Uiso   1.00
C517   C     0.02311   0.13683   0.93166   0.00000  Uiso   1.00
C518   C     0.25000   0.02179   0.83333   0.00000  Uiso   1.00
C519   C     0.25000   0.31154   0.83334   0.00000  Uiso   1.00
C520   C     0.16410   0.16667   0.83333   0.00000  Uiso   1.00
C521   C     0.33590   0.16667   0.83333   0.00000  Uiso   1.00
C522   C     0.40735   0.18101   0.78403   0.00000  Uiso   1.00
C523   C     0.09265   0.15232   0.88264   0.00000  Uiso   1.00
C524   C     0.40735   0.15232   0.88264   0.00000  Uiso   1.00
C525   C     0.09265   0.18101   0.78402   0.00000  Uiso   1.00
C526   C     0.38424   0.16667   0.83333   0.00000  Uiso   1.00
Cu527  Cu    0.25000   0.16667   0.88969   0.00000  Uiso   1.00
Cu528  Cu    0.25000   0.16667   0.77697   0.00000  Uiso   1.00
H529   H     0.45940   0.12506   0.96977   0.00000  Uiso   1.00
H530   H     0.04060   0.20827   0.69689   0.00000  Uiso   1.00
H531   H     0.45940   0.20827   0.69689   0.00000  Uiso   1.00
H532   H     0.04060   0.12506   0.96977   0.00000  Uiso   1.00
H533   H     0.38939   0.19235   0.74605   0.00000  Uiso   1.00
H534   H     0.11061   0.14098   0.92062   0.00000  Uiso   1.00
H535   H     0.38939   0.14098   0.92062   0.00000  Uiso   1.00
H536   H     0.11061   0.19235   0.74605   0.00000  Uiso   1.00
N537   N     0.25000   0.16667   0.69227   0.00000  Uiso   1.00
N538   N     0.25000   0.16667   0.97439   0.00000  Uiso   1.00
O539   O     0.25000   0.09613   0.88092   0.00000  Uiso   1.00
O540   O     0.25000   0.23720   0.78575   0.00000  Uiso   1.00
O541   O     0.25000   0.23720   0.88092   0.00000  Uiso   1.00
O542   O     0.25000   0.09613   0.78575   0.00000  Uiso   1.00
O543   O     0.18513   0.16667   0.88093   0.00000  Uiso   1.00
O544   O     0.31487   0.16667   0.78573   0.00000  Uiso   1.00
O545   O     0.31487   0.16667   0.88093   0.00000  Uiso   1.00
O546   O     0.18513   0.16667   0.78573   0.00000  Uiso   1.00
C547   C     0.75000   0.07334   0.83333   0.00000  Uiso   1.00
C548   C     0.61576   0.16667   0.83333   0.00000  Uiso   1.00
C549   C     0.95354   0.15189   0.88286   0.00000  Uiso   1.00
C550   C     0.54646   0.18144   0.78380   0.00000  Uiso   1.00
C551   C     0.95354   0.18144   0.78380   0.00000  Uiso   1.00
C552   C     0.54646   0.15189   0.88286   0.00000  Uiso   1.00
C553   C     0.97676   0.16667   0.83333   0.00000  Uiso   1.00
C554   C     0.52324   0.16667   0.83333   0.00000  Uiso   1.00
C555   C     0.97689   0.13683   0.93166   0.00000  Uiso   1.00
C556   C     0.52311   0.19650   0.73501   0.00000  Uiso   1.00
C557   C     0.97689   0.19650   0.73501   0.00000  Uiso   1.00
C558   C     0.75000   0.25999   0.83333   0.00000  Uiso   1.00
C559   C     0.52311   0.13683   0.93166   0.00000  Uiso   1.00
C560   C     0.75000   0.02179   0.83333   0.00000  Uiso   1.00
C561   C     0.75000   0.31154   0.83334   0.00000  Uiso   1.00
C562   C     0.66410   0.16667   0.83333   0.00000  Uiso   1.00
C563   C     0.83590   0.16667   0.83333   0.00000  Uiso   1.00
C564   C     0.90735   0.18101   0.78403   0.00000  Uiso   1.00
C565   C     0.59265   0.15232   0.88264   0.00000  Uiso   1.00
C566   C     0.90735   0.15232   0.88264   0.00000  Uiso   1.00
C567   C     0.59265   0.18101   0.78402   0.00000  Uiso   1.00
C568   C     0.88424   0.16667   0.83333   0.00000  Uiso   1.00
Cu569  Cu    0.75000   0.16667   0.88969   0.00000  Uiso   1.00
Cu570  Cu    0.75000   0.16667   0.77697   0.00000  Uiso   1.00
H571   H     0.95940   0.12506   0.96977   0.00000  Uiso   1.00
H572   H     0.54060   0.20827   0.69689   0.00000  Uiso   1.00
H573   H     0.95940   0.20827   0.69689   0.00000  Uiso   1.00
H574   H     0.54060   0.12506   0.96977   0.00000  Uiso   1.00
H575   H     0.88939   0.19235   0.74605   0.00000  Uiso   1.00
H576   H     0.61061   0.14098   0.92062   0.00000  Uiso   1.00
H577   H     0.88939   0.14098   0.92062   0.00000  Uiso   1.00
H578   H     0.61061   0.19235   0.74605   0.00000  Uiso   1.00
N579   N     0.75000   0.16667   0.69227   0.00000  Uiso   1.00
N580   N     0.75000   0.16667   0.97439   0.00000  Uiso   1.00
O581   O     0.75000   0.09613   0.88092   0.00000  Uiso   1.00
O582   O     0.75000   0.23720   0.78575   0.00000  Uiso   1.00
O583   O     0.75000   0.23720   0.88092   0.00000  Uiso   1.00
O584   O     0.75000   0.09613   0.78575   0.00000  Uiso   1.00
O585   O     0.68513   0.16667   0.88093   0.00000  Uiso   1.00
O586   O     0.81487   0.16667   0.78573   0.00000  Uiso   1.00
O587   O     0.81487   0.16667   0.88093   0.00000  Uiso   1.00
O588   O     0.68513   0.16667   0.78573   0.00000  Uiso   1.00
C589   C     0.25000   0.40667   0.83333   0.00000  Uiso   1.00
C590   C     0.11576   0.50000   0.83333   0.00000  Uiso   1.00
C591   C     0.45354   0.48522   0.88286   0.00000  Uiso   1.00
C592   C     0.04646   0.51478   0.78380   0.00000  Uiso   1.00
C593   C     0.45354   0.51478   0.78380   0.00000  Uiso   1.00
C594   C     0.04646   0.48522   0.88286   0.00000  Uiso   1.00
C595   C     0.47676   0.50000   0.83333   0.00000  Uiso   1.00
C596   C     0.02324   0.50000   0.83333   0.00000  Uiso   1.00
C597   C     0.47689   0.47016   0.93166   0.00000  Uiso   1.00
C598   C     0.02311   0.52984   0.73501   0.00000  Uiso   1.00
C599   C     0.47689   0.52984   0.73501   0.00000  Uiso   1.00
C600   C     0.25000   0.59333   0.83333   0.00000  Uiso   1.00
C601   C     0.02311   0.47016   0.93166   0.00000  Uiso   1.00
C602   C     0.25000   0.35512   0.83333   0.00000  Uiso   1.00
C603   C     0.25000   0.64488   0.83334   0.00000  Uiso   1.00
C604   C     0.16410   0.50000   0.83333   0.00000  Uiso   1.00
C605   C     0.33590   0.50000   0.83333   0.00000  Uiso   1.00
C606   C     0.40735   0.51434   0.78403   0.00000  Uiso   1.00
C607   C     0.09265   0.48566   0.88264   0.00000  Uiso   1.00
C608   C     0.40735   0.48566   0.88264   0.00000  Uiso   1.00
C609   C     0.09265   0.51434   0.78402   0.00000  Uiso   1.00
C610   C     0.38424   0.50000   0.83333   0.00000  Uiso   1.00
Cu611  Cu    0.25000   0.50000   0.88969   0.00000  Uiso   1.00
Cu612  Cu    0.25000   0.50000   0.77697   0.00000  Uiso   1.00
H613   H     0.45940   0.45840   0.96977   0.00000  Uiso   1.00
H614   H     0.04060   0.54160   0.69689   0.00000  Uiso   1.00
H615   H     0.45940   0.54160   0.69689   0.00000  Uiso   1.00
H616   H     0.04060   0.45840   0.96977   0.00000  Uiso   1.00
H617   H     0.38939   0.52569   0.74605   0.00000  Uiso   1.00
H618   H     0.11061   0.47431   0.92062   0.00000  Uiso   1.00
H619   H     0.38939   0.47431   0.92062   0.00000  Uiso   1.00
H620   H     0.11061   0.52569   0.74605   0.00000  Uiso   1.00
N621   N     0.25000   0.50000   0.69227   0.00000  Uiso   1.00
N622   N     0.25000   0.50000   0.97439   0.00000  Uiso   1.00
O623   O     0.25000   0.42946   0.88092   0.00000  Uiso   1.00
O624   O     0.25000   0.57054   0.78575   0.00000  Uiso   1.00
O625   O     0.25000   0.57054   0.88092   0.00000  Uiso   1.00
O626   O     0.25000   0.42946   0.78575   0.00000  Uiso   1.00
O627   O     0.18513   0.50000   0.88093   0.00000  Uiso   1.00
O628   O     0.31487   0.50000   0.78573   0.00000  Uiso   1.00
O629   O     0.31487   0.50000   0.88093   0.00000  Uiso   1.00
O630   O     0.18513   0.50000   0.78573   0.00000  Uiso   1.00
C631   C     0.75000   0.40667   0.83333   0.00000  Uiso   1.00
C632   C     0.61576   0.50000   0.83333   0.00000  Uiso   1.00
C633   C     0.95354   0.48522   0.88286   0.00000  Uiso   1.00
C634   C     0.54646   0.51478   0.78380   0.00000  Uiso   1.00
C635   C     0.95354   0.51478   0.78380   0.00000  Uiso   1.00
C636   C     0.54646   0.48522   0.88286   0.00000  Uiso   1.00
C637   C     0.97676   0.50000   0.83333   0.00000  Uiso   1.00
C638   C     0.52324   0.50000   0.83333   0.00000  Uiso   1.00
C639   C     0.97689   0.47016   0.93166   0.00000  Uiso   1.00
C640   C     0.52311   0.52984   0.73501   0.00000  Uiso   1.00
C641   C     0.97689   0.52984   0.73501   0.00000  Uiso   1.00
C642   C     0.75000   0.59333   0.83333   0.00000  Uiso   1.00
C643   C     0.52311   0.47016   0.93166   0.00000  Uiso   1.00
C644   C     0.75000   0.35512   0.83333   0.00000  Uiso   1.00
C645   C     0.75000   0.64488   0.83334   0.00000  Uiso   1.00
C646   C     0.66410   0.50000   0.83333   0.00000  Uiso   1.00
C647   C     0.83590   0.50000   0.83333   0.00000  Uiso   1.00
C648   C     0.90735   0.51434   0.78403   0.00000  Uiso   1.00
C649   C     0.59265   0.48566   0.88264   0.00000  Uiso   1.00
C650   C     0.90735   0.48566   0.88264   0.00000  Uiso   1.00
C651   C     0.59265   0.51434   0.78402   0.00000  Uiso   1.00
C652   C     0.88424   0.50000   0.83333   0.00000  Uiso   1.00
Cu653  Cu    0.75000   0.50000   0.88969   0.00000  Uiso   1.00
Cu654  Cu    0.75000   0.50000   0.77697   0.00000  Uiso   1.00
H655   H     0.95940   0.45840   0.96977   0.00000  Uiso   1.00
H656   H     0.54060   0.54160   0.69689   0.00000  Uiso   1.00
H657   H     0.95940   0.54160   0.69689   0.00000  Uiso   1.00
H658   H     0.54060   0.45840   0.96977   0.00000  Uiso   1.00
H659   H     0.88939   0.52569   0.74605   0.00000  Uiso   1.00
H660   H     0.61061   0.47431   0.92062   0.00000  Uiso   1.00
H661   H     0.88939   0.47431   0.92062   0.00000  Uiso   1.00
H662   H     0.61061   0.52569   0.74605   0.00000  Uiso   1.00
N663   N     0.75000   0.50000   0.69227   0.00000  Uiso   1.00
N664   N     0.75000   0.50000   0.97439   0.00000  Uiso   1.00
O665   O     0.75000   0.42946   0.88092   0.00000  Uiso   1.00
O666   O     0.75000   0.57054   0.78575   0.00000  Uiso   1.00
O667   O     0.75000   0.57054   0.88092   0.00000  Uiso   1.00
O668   O     0.75000   0.42946   0.78575   0.00000  Uiso   1.00
O669   O     0.68513   0.50000   0.88093   0.00000  Uiso   1.00
O670   O     0.81487   0.50000   0.78573   0.00000  Uiso   1.00
O671   O     0.81487   0.50000   0.88093   0.00000  Uiso   1.00
O672   O     0.68513   0.50000   0.78573   0.00000  Uiso   1.00
C673   C     0.25000   0.74001   0.83333   0.00000  Uiso   1.00
C674   C     0.11576   0.83333   0.83333   0.00000  Uiso   1.00
C675   C     0.45354   0.81856   0.88286   0.00000  Uiso   1.00
C676   C     0.04646   0.84811   0.78380   0.00000  Uiso   1.00
C677   C     0.45354   0.84811   0.78380   0.00000  Uiso   1.00
C678   C     0.04646   0.81856   0.88286   0.00000  Uiso   1.00
C679   C     0.47676   0.83333   0.83333   0.00000  Uiso   1.00
C680   C     0.02324   0.83333   0.83333   0.00000  Uiso   1.00
C681   C     0.47689   0.80350   0.93166   0.00000  Uiso   1.00
C682   C     0.02311   0.86317   0.73501   0.00000  Uiso   1.00
C683   C     0.47689   0.86317   0.73501   0.00000  Uiso   1.00
C684   C     0.25000   0.92666   0.83333   0.00000  Uiso   1.00
C685   C     0.02311   0.80350   0.93166   0.00000  Uiso   1.00
C686   C     0.25000   0.68846   0.83333   0.00000  Uiso   1.00
C687   C     0.25000   0.97821   0.83334   0.00000  Uiso   1.00
C688   C     0.16410   0.83333   0.83333   0.00000  Uiso   1.00
C689   C     0.33590   0.83333   0.83333   0.00000  Uiso   1.00
C690   C     0.40735   0.84768   0.78403   0.00000  Uiso   1.00
C691   C     0.09265   0.81899   0.88264   0.00000  Uiso   1.00
C692   C     0.40735   0.81899   0.88264   0.00000  Uiso   1.00
C693   C     0.09265   0.84768   0.78402   0.00000  Uiso   1.00
C694   C     0.38424   0.83333   0.83333   0.00000  Uiso   1.00
Cu695  Cu    0.25000   0.83333   0.88969   0.00000  Uiso   1.00
Cu696  Cu    0.25000   0.83333   0.77697   0.00000  Uiso   1.00
H697   H     0.45940   0.79173   0.96977   0.00000  Uiso   1.00
H698   H     0.04060   0.87494   0.69689   0.00000  Uiso   1.00
H699   H     0.45940   0.87494   0.69689   0.00000  Uiso   1.00
H700   H     0.04060   0.79173   0.96977   0.00000  Uiso   1.00
H701   H     0.38939   0.85902   0.74605   0.00000  Uiso   1.00
H702   H     0.11061   0.80765   0.92062   0.00000  Uiso   1.00
H703   H     0.38939   0.80765   0.92062   0.00000  Uiso   1.00
H704   H     0.11061   0.85902   0.74605   0.00000  Uiso   1.00
N705   N     0.25000   0.83333   0.69227   0.00000  Uiso   1.00
N706   N     0.25000   0.83333   0.97439   0.00000  Uiso   1.00
O707   O     0.25000   0.76280   0.88092   0.00000  Uiso   1.00
O708   O     0.25000   0.90387   0.78575   0.00000  Uiso   1.00
O709   O     0.25000   0.90387   0.88092   0.00000  Uiso   1.00
O710   O     0.25000   0.76280   0.78575   0.00000  Uiso   1.00
O711   O     0.18513   0.83333   0.88093   0.00000  Uiso   1.00
O712   O     0.31487   0.83333   0.78573   0.00000  Uiso   1.00
O713   O     0.31487   0.83333   0.88093   0.00000  Uiso   1.00
O714   O     0.18513   0.83333   0.78573   0.00000  Uiso   1.00
C715   C     0.75000   0.74001   0.83333   0.00000  Uiso   1.00
C716   C     0.61576   0.83333   0.83333   0.00000  Uiso   1.00
C717   C     0.95354   0.81856   0.88286   0.00000  Uiso   1.00
C718   C     0.54646   0.84811   0.78380   0.00000  Uiso   1.00
C719   C     0.95354   0.84811   0.78380   0.00000  Uiso   1.00
C720   C     0.54646   0.81856   0.88286   0.00000  Uiso   1.00
C721   C     0.97676   0.83333   0.83333   0.00000  Uiso   1.00
C722   C     0.52324   0.83333   0.83333   0.00000  Uiso   1.00
C723   C     0.97689   0.80350   0.93166   0.00000  Uiso   1.00
C724   C     0.52311   0.86317   0.73501   0.00000  Uiso   1.00
C725   C     0.97689   0.86317   0.73501   0.00000  Uiso   1.00
C726   C     0.75000   0.92666   0.83333   0.00000  Uiso   1.00
C727   C     0.52311   0.80350   0.93166   0.00000  Uiso   1.00
C728   C     0.75000   0.68846   0.83333   0.00000  Uiso   1.00
C729   C     0.75000   0.97821   0.83334   0.00000  Uiso   1.00
C730   C     0.66410   0.83333   0.83333   0.00000  Uiso   1.00
C731   C     0.83590   0.83333   0.83333   0.00000  Uiso   1.00
C732   C     0.90735   0.84768   0.78403   0.00000  Uiso   1.00
C733   C     0.59265   0.81899   0.88264   0.00000  Uiso   1.00
C734   C     0.90735   0.81899   0.88264   0.00000  Uiso   1.00
C735   C     0.59265   0.84768   0.78402   0.00000  Uiso   1.00
C736   C     0.88424   0.83333   0.83333   0.00000  Uiso   1.00
Cu737  Cu    0.75000   0.83333   0.88969   0.00000  Uiso   1.00
Cu738  Cu    0.75000   0.83333   0.77697   0.00000  Uiso   1.00
H739   H     0.95940   0.79173   0.96977   0.00000  Uiso   1.00
H740   H     0.54060   0.87494   0.69689   0.00000  Uiso   1.00
H741   H     0.95940   0.87494   0.69689   0.00000  Uiso   1.00
H742   H     0.54060   0.79173   0.96977   0.00000  Uiso   1.00
H743   H     0.88939   0.85902   0.74605   0.00000  Uiso   1.00
H744   H     0.61061   0.80765   0.92062   0.00000  Uiso   1.00
H745   H     0.88939   0.80765   0.92062   0.00000  Uiso   1.00
H746   H     0.61061   0.85902   0.74605   0.00000  Uiso   1.00
N747   N     0.75000   0.83333   0.69227   0.00000  Uiso   1.00
N748   N     0.75000   0.83333   0.97439   0.00000  Uiso   1.00
O749   O     0.75000   0.76280   0.88092   0.00000  Uiso   1.00
O750   O     0.75000   0.90387   0.78575   0.00000  Uiso   1.00
O751   O     0.75000   0.90387   0.88092   0.00000  Uiso   1.00
O752   O     0.75000   0.76280   0.78575   0.00000  Uiso   1.00
O753   O     0.68513   0.83333   0.88093   0.00000  Uiso   1.00
O754   O     0.81487   0.83333   0.78573   0.00000  Uiso   1.00
O755   O     0.81487   0.83333   0.88093   0.00000  Uiso   1.00
O756   O     0.68513   0.83333   0.78573   0.00000  Uiso   1.00
loop_
_geom_bond_atom_site_label_1
_geom_bond_atom_site_label_2
_geom_bond_distance
_geom_bond_site_symmetry_2
_ccdc_geom_bond_type
C1     C14     1.407   .     S
C1     O38     1.274   .     A
C1     O35     1.274   .     A
C2     C16     1.458   .     S
C2     C21     1.402   .     A
C2     C19     1.402   .     A
C3     C9      1.402   .     A
C3     C7      1.411   .     A
C3     C20     1.394   .     A
C4     C8      1.411   .     A
C4     C21     1.394   .     A
C4     C10     1.402   .     A
C5     C11     1.402   .     A
C5     C7      1.411   .     A
C5     C18     1.394   .     A
C6     C13     1.402   .     A
C6     C19     1.394   .     A
C6     C8      1.411   .     A
C7     C50     1.402   .     S
C8     C49     1.402   1_455 S
C9     H25     1.084   .     S
C9     C55     1.394   .     S
C10    H26     1.084   .     S
C10    C53     1.394   1_455 S
C11    H27     1.084   .     S
C11    C52     1.394   .     S
C12    O36     1.274   .     A
C12    C15     1.407   .     S
C12    O37     1.274   .     A
C13    H28     1.084   .     S
C13    C51     1.394   1_455 S
C14    C183    1.189   1_545 S
C15    C98     1.189   .     S
C16    O39     1.280   .     A
C16    O42     1.280   .     A
C17    O41     1.280   .     A
C17    C22     1.458   .     S
C17    O40     1.280   .     A
C18    H29     1.085   .     S
C18    C22     1.402   .     A
C19    H30     1.085   .     S
C20    H31     1.085   .     S
C20    C22     1.402   .     A
C21    H32     1.085   .     S
Cu23   Cu24    2.633   .     S
Cu23   O35     1.936   .     S
Cu23   O41     1.967   .     S
Cu23   N34     1.979   .     S
Cu23   O37     1.936   .     S
Cu23   O39     1.967   .     S
Cu24   O38     1.936   .     S
Cu24   N33     1.979   .     S
Cu24   O36     1.936   .     S
Cu24   O40     1.967   .     S
Cu24   O42     1.967   .     S
N33    N538    1.196   1_554 S
N34    N285    1.196   .     S
C43    C56     1.407   .     S
C43    O80     1.274   .     A
C43    O77     1.274   .     A
C44    C58     1.458   .     S
C44    C63     1.402   .     A
C44    C61     1.402   .     A
C45    C51     1.402   .     A
C45    C49     1.411   .     A
C45    C62     1.394   .     A
C46    C50     1.411   .     A
C46    C63     1.394   .     A
C46    C52     1.402   .     A
C47    C53     1.402   .     A
C47    C49     1.411   .     A
C47    C60     1.394   .     A
C48    C55     1.402   .     A
C48    C61     1.394   .     A
C48    C50     1.411   .     A
C49    C8      1.402   1_655 S
C51    H67     1.084   .     S
C51    C13     1.394   1_655 S
C52    H68     1.084   .     S
C53    H69     1.084   .     S
C53    C10     1.394   1_655 S
C54    O78     1.274   .     A
C54    C57     1.407   .     S
C54    O79     1.274   .     A
C55    H70     1.084   .     S
C56    C225    1.189   1_545 S
C57    C140    1.189   .     S
C58    O81     1.280   .     A
C58    O84     1.280   .     A
C59    O83     1.280   .     A
C59    C64     1.458   .     S
C59    O82     1.280   .     A
C60    H71     1.085   .     S
C60    C64     1.402   .     A
C61    H72     1.085   .     S
C62    H73     1.085   .     S
C62    C64     1.402   .     A
C63    H74     1.085   .     S
Cu65   Cu66    2.633   .     S
Cu65   O77     1.936   .     S
Cu65   O83     1.967   .     S
Cu65   N76     1.979   .     S
Cu65   O79     1.936   .     S
Cu65   O81     1.967   .     S
Cu66   O80     1.936   .     S
Cu66   N75     1.979   .     S
Cu66   O78     1.936   .     S
Cu66   O82     1.967   .     S
Cu66   O84     1.967   .     S
N75    N580    1.196   1_554 S
N76    N327    1.196   .     S
C85    C98     1.407   .     S
C85    O122    1.274   .     A
C85    O119    1.274   .     A
C86    C100    1.458   .     S
C86    C105    1.402   .     A
C86    C103    1.402   .     A
C87    C93     1.402   .     A
C87    C91     1.411   .     A
C87    C104    1.394   .     A
C88    C92     1.411   .     A
C88    C105    1.394   .     A
C88    C94     1.402   .     A
C89    C95     1.402   .     A
C89    C91     1.411   .     A
C89    C102    1.394   .     A
C90    C97     1.402   .     A
C90    C103    1.394   .     A
C90    C92     1.411   .     A
C91    C134    1.402   .     S
C92    C133    1.402   1_455 S
C93    H109    1.084   .     S
C93    C139    1.394   .     S
C94    H110    1.084   .     S
C94    C137    1.394   1_455 S
C95    H111    1.084   .     S
C95    C136    1.394   .     S
C96    O120    1.274   .     A
C96    C99     1.407   .     S
C96    O121    1.274   .     A
C97    H112    1.084   .     S
C97    C135    1.394   1_455 S
C99    C182    1.189   .     S
C100   O123    1.280   .     A
C100   O126    1.280   .     A
C101   O125    1.280   .     A
C101   C106    1.458   .     S
C101   O124    1.280   .     A
C102   H113    1.085   .     S
C102   C106    1.402   .     A
C103   H114    1.085   .     S
C104   H115    1.085   .     S
C104   C106    1.402   .     A
C105   H116    1.085   .     S
Cu107  Cu108   2.633   .     S
Cu107  O119    1.936   .     S
Cu107  O125    1.967   .     S
Cu107  N118    1.979   .     S
Cu107  O121    1.936   .     S
Cu107  O123    1.967   .     S
Cu108  O122    1.936   .     S
Cu108  N117    1.979   .     S
Cu108  O120    1.936   .     S
Cu108  O124    1.967   .     S
Cu108  O126    1.967   .     S
N117   N622    1.196   1_554 S
N118   N369    1.196   .     S
C127   C140    1.407   .     S
C127   O164    1.274   .     A
C127   O161    1.274   .     A
C128   C142    1.458   .     S
C128   C147    1.402   .     A
C128   C145    1.402   .     A
C129   C135    1.402   .     A
C129   C133    1.411   .     A
C129   C146    1.394   .     A
C130   C134    1.411   .     A
C130   C147    1.394   .     A
C130   C136    1.402   .     A
C131   C137    1.402   .     A
C131   C133    1.411   .     A
C131   C144    1.394   .     A
C132   C139    1.402   .     A
C132   C145    1.394   .     A
C132   C134    1.411   .     A
C133   C92     1.402   1_655 S
C135   H151    1.084   .     S
C135   C97     1.394   1_655 S
C136   H152    1.084   .     S
C137   H153    1.084   .     S
C137   C94     1.394   1_655 S
C138   O162    1.274   .     A
C138   C141    1.407   .     S
C138   O163    1.274   .     A
C139   H154    1.084   .     S
C141   C224    1.189   .     S
C142   O165    1.280   .     A
C142   O168    1.280   .     A
C143   O167    1.280   .     A
C143   C148    1.458   .     S
C143   O166    1.280   .     A
C144   H155    1.085   .     S
C144   C148    1.402   .     A
C145   H156    1.085   .     S
C146   H157    1.085   .     S
C146   C148    1.402   .     A
C147   H158    1.085   .     S
Cu149  Cu150   2.633   .     S
Cu149  O161    1.936   .     S
Cu149  O167    1.967   .     S
Cu149  N160    1.979   .     S
Cu149  O163    1.936   .     S
Cu149  O165    1.967   .     S
Cu150  O164    1.936   .     S
Cu150  N159    1.979   .     S
Cu150  O162    1.936   .     S
Cu150  O166    1.967   .     S
Cu150  O168    1.967   .     S
N159   N664    1.196   1_554 S
N160   N411    1.196   .     S
C169   C182    1.407   .     S
C169   O206    1.274   .     A
C169   O203    1.274   .     A
C170   C184    1.458   .     S
C170   C189    1.402   .     A
C170   C187    1.402   .     A
C171   C177    1.402   .     A
C171   C175    1.411   .     A
C171   C188    1.394   .     A
C172   C176    1.411   .     A
C172   C189    1.394   .     A
C172   C178    1.402   .     A
C173   C179    1.402   .     A
C173   C175    1.411   .     A
C173   C186    1.394   .     A
C174   C181    1.402   .     A
C174   C187    1.394   .     A
C174   C176    1.411   .     A
C175   C218    1.402   .     S
C176   C217    1.402   1_455 S
C177   H193    1.084   .     S
C177   C223    1.394   .     S
C178   H194    1.084   .     S
C178   C221    1.394   1_455 S
C179   H195    1.084   .     S
C179   C220    1.394   .     S
C180   O204    1.274   .     A
C180   C183    1.407   .     S
C180   O205    1.274   .     A
C181   H196    1.084   .     S
C181   C219    1.394   1_455 S
C183   C14     1.189   1_565 S
C184   O207    1.280   .     A
C184   O210    1.280   .     A
C185   O209    1.280   .     A
C185   C190    1.458   .     S
C185   O208    1.280   .     A
C186   H197    1.085   .     S
C186   C190    1.402   .     A
C187   H198    1.085   .     S
C188   H199    1.085   .     S
C188   C190    1.402   .     A
C189   H200    1.085   .     S
Cu191  Cu192   2.633   .     S
Cu191  O203    1.936   .     S
Cu191  O209    1.967   .     S
Cu191  N202    1.979   .     S
Cu191  O205    1.936   .     S
Cu191  O207    1.967   .     S
Cu192  O206    1.936   .     S
Cu192  N201    1.979   .     S
Cu192  O204    1.936   .     S
Cu192  O208    1.967   .     S
Cu192  O210    1.967   .     S
N201   N706    1.196   1_554 S
N202   N453    1.196   .     S
C211   C224    1.407   .     S
C211   O248    1.274   .     A
C211   O245    1.274   .     A
C212   C226    1.458   .     S
C212   C231    1.402   .     A
C212   C229    1.402   .     A
C213   C219    1.402   .     A
C213   C217    1.411   .     A
C213   C230    1.394   .     A
C214   C218    1.411   .     A
C214   C231    1.394   .     A
C214   C220    1.402   .     A
C215   C221    1.402   .     A
C215   C217    1.411   .     A
C215   C228    1.394   .     A
C216   C223    1.402   .     A
C216   C229    1.394   .     A
C216   C218    1.411   .     A
C217   C176    1.402   1_655 S
C219   H235    1.084   .     S
C219   C181    1.394   1_655 S
C220   H236    1.084   .     S
C221   H237    1.084   .     S
C221   C178    1.394   1_655 S
C222   O246    1.274   .     A
C222   C225    1.407   .     S
C222   O247    1.274   .     A
C223   H238    1.084   .     S
C225   C56     1.189   1_565 S
C226   O249    1.280   .     A
C226   O252    1.280   .     A
C227   O251    1.280   .     A
C227   C232    1.458   .     S
C227   O250    1.280   .     A
C228   H239    1.085   .     S
C228   C232    1.402   .     A
C229   H240    1.085   .     S
C230   H241    1.085   .     S
C230   C232    1.402   .     A
C231   H242    1.085   .     S
Cu233  Cu234   2.633   .     S
Cu233  O245    1.936   .     S
Cu233  O251    1.967   .     S
Cu233  N244    1.979   .     S
Cu233  O247    1.936   .     S
Cu233  O249    1.967   .     S
Cu234  O248    1.936   .     S
Cu234  N243    1.979   .     S
Cu234  O246    1.936   .     S
Cu234  O250    1.967   .     S
Cu234  O252    1.967   .     S
N243   N748    1.196   1_554 S
N244   N495    1.196   .     S
C253   C266    1.407   .     S
C253   O290    1.274   .     A
C253   O287    1.274   .     A
C254   C268    1.458   .     S
C254   C273    1.402   .     A
C254   C271    1.402   .     A
C255   C261    1.402   .     A
C255   C259    1.411   .     A
C255   C272    1.394   .     A
C256   C260    1.411   .     A
C256   C273    1.394   .     A
C256   C262    1.402   .     A
C257   C263    1.402   .     A
C257   C259    1.411   .     A
C257   C270    1.394   .     A
C258   C265    1.402   .     A
C258   C271    1.394   .     A
C258   C260    1.411   .     A
C259   C302    1.402   .     S
C260   C301    1.402   1_455 S
C261   H277    1.084   .     S
C261   C307    1.394   .     S
C262   H278    1.084   .     S
C262   C305    1.394   1_455 S
C263   H279    1.084   .     S
C263   C304    1.394   .     S
C264   O288    1.274   .     A
C264   C267    1.407   .     S
C264   O289    1.274   .     A
C265   H280    1.084   .     S
C265   C303    1.394   1_455 S
C266   C435    1.189   1_545 S
C267   C350    1.189   .     S
C268   O291    1.280   .     A
C268   O294    1.280   .     A
C269   O293    1.280   .     A
C269   C274    1.458   .     S
C269   O292    1.280   .     A
C270   H281    1.085   .     S
C270   C274    1.402   .     A
C271   H282    1.085   .     S
C272   H283    1.085   .     S
C272   C274    1.402   .     A
C273   H284    1.085   .     S
Cu275  Cu276   2.633   .     S
Cu275  O287    1.936   .     S
Cu275  O293    1.967   .     S
Cu275  N286    1.979   .     S
Cu275  O289    1.936   .     S
Cu275  O291    1.967   .     S
Cu276  O290    1.936   .     S
Cu276  N285    1.979   .     S
Cu276  O288    1.936   .     S
Cu276  O292    1.967   .     S
Cu276  O294    1.967   .     S
N286   N537    1.196   .     S
C295   C308    1.407   .     S
C295   O332    1.274   .     A
C295   O329    1.274   .     A
C296   C310    1.458   .     S
C296   C315    1.402   .     A
C296   C313    1.402   .     A
C297   C303    1.402   .     A
C297   C301    1.411   .     A
C297   C314    1.394   .     A
C298   C302    1.411   .     A
C298   C315    1.394   .     A
C298   C304    1.402   .     A
C299   C305    1.402   .     A
C299   C301    1.411   .     A
C299   C312    1.394   .     A
C300   C307    1.402   .     A
C300   C313    1.394   .     A
C300   C302    1.411   .     A
C301   C260    1.402   1_655 S
C303   H319    1.084   .     S
C303   C265    1.394   1_655 S
C304   H320    1.084   .     S
C305   H321    1.084   .     S
C305   C262    1.394   1_655 S
C306   O330    1.274   .     A
C306   C309    1.407   .     S
C306   O331    1.274   .     A
C307   H322    1.084   .     S
C308   C477    1.189   1_545 S
C309   C392    1.189   .     S
C310   O333    1.280   .     A
C310   O336    1.280   .     A
C311   O335    1.280   .     A
C311   C316    1.458   .     S
C311   O334    1.280   .     A
C312   H323    1.085   .     S
C312   C316    1.402   .     A
C313   H324    1.085   .     S
C314   H325    1.085   .     S
C314   C316    1.402   .     A
C315   H326    1.085   .     S
Cu317  Cu318   2.633   .     S
Cu317  O329    1.936   .     S
Cu317  O335    1.967   .     S
Cu317  N328    1.979   .     S
Cu317  O331    1.936   .     S
Cu317  O333    1.967   .     S
Cu318  O332    1.936   .     S
Cu318  N327    1.979   .     S
Cu318  O330    1.936   .     S
Cu318  O334    1.967   .     S
Cu318  O336    1.967   .     S
N328   N579    1.196   .     S
C337   C350    1.407   .     S
C337   O374    1.274   .     A
C337   O371    1.274   .     A
C338   C352    1.458   .     S
C338   C357    1.402   .     A
C338   C355    1.402   .     A
C339   C345    1.402   .     A
C339   C343    1.411   .     A
C339   C356    1.394   .     A
C340   C344    1.411   .     A
C340   C357    1.394   .     A
C340   C346    1.402   .     A
C341   C347    1.402   .     A
C341   C343    1.411   .     A
C341   C354    1.394   .     A
C342   C349    1.402   .     A
C342   C355    1.394   .     A
C342   C344    1.411   .     A
C343   C386    1.402   .     S
C344   C385    1.402   1_455 S
C345   H361    1.084   .     S
C345   C391    1.394   .     S
C346   H362    1.084   .     S
C346   C389    1.394   1_455 S
C347   H363    1.084   .     S
C347   C388    1.394   .     S
C348   O372    1.274   .     A
C348   C351    1.407   .     S
C348   O373    1.274   .     A
C349   H364    1.084   .     S
C349   C387    1.394   1_455 S
C351   C434    1.189   .     S
C352   O375    1.280   .     A
C352   O378    1.280   .     A
C353   O377    1.280   .     A
C353   C358    1.458   .     S
C353   O376    1.280   .     A
C354   H365    1.085   .     S
C354   C358    1.402   .     A
C355   H366    1.085   .     S
C356   H367    1.085   .     S
C356   C358    1.402   .     A
C357   H368    1.085   .     S
Cu359  Cu360   2.633   .     S
Cu359  O371    1.936   .     S
Cu359  O377    1.967   .     S
Cu359  N370    1.979   .     S
Cu359  O373    1.936   .     S
Cu359  O375    1.967   .     S
Cu360  O374    1.936   .     S
Cu360  N369    1.979   .     S
Cu360  O372    1.936   .     S
Cu360  O376    1.967   .     S
Cu360  O378    1.967   .     S
N370   N621    1.196   .     S
C379   C392    1.407   .     S
C379   O416    1.274   .     A
C379   O413    1.274   .     A
C380   C394    1.458   .     S
C380   C399    1.402   .     A
C380   C397    1.402   .     A
C381   C387    1.402   .     A
C381   C385    1.411   .     A
C381   C398    1.394   .     A
C382   C386    1.411   .     A
C382   C399    1.394   .     A
C382   C388    1.402   .     A
C383   C389    1.402   .     A
C383   C385    1.411   .     A
C383   C396    1.394   .     A
C384   C391    1.402   .     A
C384   C397    1.394   .     A
C384   C386    1.411   .     A
C385   C344    1.402   1_655 S
C387   H403    1.084   .     S
C387   C349    1.394   1_655 S
C388   H404    1.084   .     S
C389   H405    1.084   .     S
C389   C346    1.394   1_655 S
C390   O414    1.274   .     A
C390   C393    1.407   .     S
C390   O415    1.274   .     A
C391   H406    1.084   .     S
C393   C476    1.189   .     S
C394   O417    1.280   .     A
C394   O420    1.280   .     A
C395   O419    1.280   .     A
C395   C400    1.458   .     S
C395   O418    1.280   .     A
C396   H407    1.085   .     S
C396   C400    1.402   .     A
C397   H408    1.085   .     S
C398   H409    1.085   .     S
C398   C400    1.402   .     A
C399   H410    1.085   .     S
Cu401  Cu402   2.633   .     S
Cu401  O413    1.936   .     S
Cu401  O419    1.967   .     S
Cu401  N412    1.979   .     S
Cu401  O415    1.936   .     S
Cu401  O417    1.967   .     S
Cu402  O416    1.936   .     S
Cu402  N411    1.979   .     S
Cu402  O414    1.936   .     S
Cu402  O418    1.967   .     S
Cu402  O420    1.967   .     S
N412   N663    1.196   .     S
C421   C434    1.407   .     S
C421   O458    1.274   .     A
C421   O455    1.274   .     A
C422   C436    1.458   .     S
C422   C441    1.402   .     A
C422   C439    1.402   .     A
C423   C429    1.402   .     A
C423   C427    1.411   .     A
C423   C440    1.394   .     A
C424   C428    1.411   .     A
C424   C441    1.394   .     A
C424   C430    1.402   .     A
C425   C431    1.402   .     A
C425   C427    1.411   .     A
C425   C438    1.394   .     A
C426   C433    1.402   .     A
C426   C439    1.394   .     A
C426   C428    1.411   .     A
C427   C470    1.402   .     S
C428   C469    1.402   1_455 S
C429   H445    1.084   .     S
C429   C475    1.394   .     S
C430   H446    1.084   .     S
C430   C473    1.394   1_455 S
C431   H447    1.084   .     S
C431   C472    1.394   .     S
C432   O456    1.274   .     A
C432   C435    1.407   .     S
C432   O457    1.274   .     A
C433   H448    1.084   .     S
C433   C471    1.394   1_455 S
C435   C266    1.189   1_565 S
C436   O459    1.280   .     A
C436   O462    1.280   .     A
C437   O461    1.280   .     A
C437   C442    1.458   .     S
C437   O460    1.280   .     A
C438   H449    1.085   .     S
C438   C442    1.402   .     A
C439   H450    1.085   .     S
C440   H451    1.085   .     S
C440   C442    1.402   .     A
C441   H452    1.085   .     S
Cu443  Cu444   2.633   .     S
Cu443  O455    1.936   .     S
Cu443  O461    1.967   .     S
Cu443  N454    1.979   .     S
Cu443  O457    1.936   .     S
Cu443  O459    1.967   .     S
Cu444  O458    1.936   .     S
Cu444  N453    1.979   .     S
Cu444  O456    1.936   .     S
Cu444  O460    1.967   .     S
Cu444  O462    1.967   .     S
N454   N705    1.196   .     S
C463   C476    1.407   .     S
C463   O500    1.274   .     A
C463   O497    1.274   .     A
C464   C478    1.458   .     S
C464   C483    1.402   .     A
C464   C481    1.402   .     A
C465   C471    1.402   .     A
C465   C469    1.411   .     A
C465   C482    1.394   .     A
C466   C470    1.411   .     A
C466   C483    1.394   .     A
C466   C472    1.402   .     A
C467   C473    1.402   .     A
C467   C469    1.411   .     A
C467   C480    1.394   .     A
C468   C475    1.402   .     A
C468   C481    1.394   .     A
C468   C470    1.411   .     A
C469   C428    1.402   1_655 S
C471   H487    1.084   .     S
C471   C433    1.394   1_655 S
C472   H488    1.084   .     S
C473   H489    1.084   .     S
C473   C430    1.394   1_655 S
C474   O498    1.274   .     A
C474   C477    1.407   .     S
C474   O499    1.274   .     A
C475   H490    1.084   .     S
C477   C308    1.189   1_565 S
C478   O501    1.280   .     A
C478   O504    1.280   .     A
C479   O503    1.280   .     A
C479   C484    1.458   .     S
C479   O502    1.280   .     A
C480   H491    1.085   .     S
C480   C484    1.402   .     A
C481   H492    1.085   .     S
C482   H493    1.085   .     S
C482   C484    1.402   .     A
C483   H494    1.085   .     S
Cu485  Cu486   2.633   .     S
Cu485  O497    1.936   .     S
Cu485  O503    1.967   .     S
Cu485  N496    1.979   .     S
Cu485  O499    1.936   .     S
Cu485  O501    1.967   .     S
Cu486  O500    1.936   .     S
Cu486  N495    1.979   .     S
Cu486  O498    1.936   .     S
Cu486  O502    1.967   .     S
Cu486  O504    1.967   .     S
N496   N747    1.196   .     S
C505   C518    1.407   .     S
C505   O542    1.274   .     A
C505   O539    1.274   .     A
C506   C520    1.458   .     S
C506   C525    1.402   .     A
C506   C523    1.402   .     A
C507   C513    1.402   .     A
C507   C511    1.411   .     A
C507   C524    1.394   .     A
C508   C512    1.411   .     A
C508   C525    1.394   .     A
C508   C514    1.402   .     A
C509   C515    1.402   .     A
C509   C511    1.411   .     A
C509   C522    1.394   .     A
C510   C517    1.402   .     A
C510   C523    1.394   .     A
C510   C512    1.411   .     A
C511   C554    1.402   .     S
C512   C553    1.402   1_455 S
C513   H529    1.084   .     S
C513   C559    1.394   .     S
C514   H530    1.084   .     S
C514   C557    1.394   1_455 S
C515   H531    1.084   .     S
C515   C556    1.394   .     S
C516   O540    1.274   .     A
C516   C519    1.407   .     S
C516   O541    1.274   .     A
C517   H532    1.084   .     S
C517   C555    1.394   1_455 S
C518   C687    1.189   1_545 S
C519   C602    1.189   .     S
C520   O543    1.280   .     A
C520   O546    1.280   .     A
C521   O545    1.280   .     A
C521   C526    1.458   .     S
C521   O544    1.280   .     A
C522   H533    1.085   .     S
C522   C526    1.402   .     A
C523   H534    1.085   .     S
C524   H535    1.085   .     S
C524   C526    1.402   .     A
C525   H536    1.085   .     S
Cu527  Cu528   2.633   .     S
Cu527  O539    1.936   .     S
Cu527  O545    1.967   .     S
Cu527  N538    1.979   .     S
Cu527  O541    1.936   .     S
Cu527  O543    1.967   .     S
Cu528  O542    1.936   .     S
Cu528  N537    1.979   .     S
Cu528  O540    1.936   .     S
Cu528  O544    1.967   .     S
Cu528  O546    1.967   .     S
N538   N33     1.196   1_556 S
C547   C560    1.407   .     S
C547   O584    1.274   .     A
C547   O581    1.274   .     A
C548   C562    1.458   .     S
C548   C567    1.402   .     A
C548   C565    1.402   .     A
C549   C555    1.402   .     A
C549   C553    1.411   .     A
C549   C566    1.394   .     A
C550   C554    1.411   .     A
C550   C567    1.394   .     A
C550   C556    1.402   .     A
C551   C557    1.402   .     A
C551   C553    1.411   .     A
C551   C564    1.394   .     A
C552   C559    1.402   .     A
C552   C565    1.394   .     A
C552   C554    1.411   .     A
C553   C512    1.402   1_655 S
C555   H571    1.084   .     S
C555   C517    1.394   1_655 S
C556   H572    1.084   .     S
C557   H573    1.084   .     S
C557   C514    1.394   1_655 S
C558   O582    1.274   .     A
C558   C561    1.407   .     S
C558   O583    1.274   .     A
C559   H574    1.084   .     S
C560   C729    1.189   1_545 S
C561   C644    1.189   .     S
C562   O585    1.280   .     A
C562   O588    1.280   .     A
C563   O587    1.280   .     A
C563   C568    1.458   .     S
C563   O586    1.280   .     A
C564   H575    1.085   .     S
C564   C568    1.402   .     A
C565   H576    1.085   .     S
C566   H577    1.085   .     S
C566   C568    1.402   .     A
C567   H578    1.085   .     S
Cu569  Cu570   2.633   .     S
Cu569  O581    1.936   .     S
Cu569  O587    1.967   .     S
Cu569  N580    1.979   .     S
Cu569  O583    1.936   .     S
Cu569  O585    1.967   .     S
Cu570  O584    1.936   .     S
Cu570  N579    1.979   .     S
Cu570  O582    1.936   .     S
Cu570  O586    1.967   .     S
Cu570  O588    1.967   .     S
N580   N75     1.196   1_556 S
C589   C602    1.407   .     S
C589   O626    1.274   .     A
C589   O623    1.274   .     A
C590   C604    1.458   .     S
C590   C609    1.402   .     A
C590   C607    1.402   .     A
C591   C597    1.402   .     A
C591   C595    1.411   .     A
C591   C608    1.394   .     A
C592   C596    1.411   .     A
C592   C609    1.394   .     A
C592   C598    1.402   .     A
C593   C599    1.402   .     A
C593   C595    1.411   .     A
C593   C606    1.394   .     A
C594   C601    1.402   .     A
C594   C607    1.394   .     A
C594   C596    1.411   .     A
C595   C638    1.402   .     S
C596   C637    1.402   1_455 S
C597   H613    1.084   .     S
C597   C643    1.394   .     S
C598   H614    1.084   .     S
C598   C641    1.394   1_455 S
C599   H615    1.084   .     S
C599   C640    1.394   .     S
C600   O624    1.274   .     A
C600   C603    1.407   .     S
C600   O625    1.274   .     A
C601   H616    1.084   .     S
C601   C639    1.394   1_455 S
C603   C686    1.189   .     S
C604   O627    1.280   .     A
C604   O630    1.280   .     A
C605   O629    1.280   .     A
C605   C610    1.458   .     S
C605   O628    1.280   .     A
C606   H617    1.085   .     S
C606   C610    1.402   .     A
C607   H618    1.085   .     S
C608   H619    1.085   .     S
C608   C610    1.402   .     A
C609   H620    1.085   .     S
Cu611  Cu612   2.633   .     S
Cu611  O623    1.936   .     S
Cu611  O629    1.967   .     S
Cu611  N622    1.979   .     S
Cu611  O625    1.936   .     S
Cu611  O627    1.967   .     S
Cu612  O626    1.936   .     S
Cu612  N621    1.979   .     S
Cu612  O624    1.936   .     S
Cu612  O628    1.967   .     S
Cu612  O630    1.967   .     S
N622   N117    1.196   1_556 S
C631   C644    1.407   .     S
C631   O668    1.274   .     A
C631   O665    1.274   .     A
C632   C646    1.458   .     S
C632   C651    1.402   .     A
C632   C649    1.402   .     A
C633   C639    1.402   .     A
C633   C637    1.411   .     A
C633   C650    1.394   .     A
C634   C638    1.411   .     A
C634   C651    1.394   .     A
C634   C640    1.402   .     A
C635   C641    1.402   .     A
C635   C637    1.411   .     A
C635   C648    1.394   .     A
C636   C643    1.402   .     A
C636   C649    1.394   .     A
C636   C638    1.411   .     A
C637   C596    1.402   1_655 S
C639   H655    1.084   .     S
C639   C601    1.394   1_655 S
C640   H656    1.084   .     S
C641   H657    1.084   .     S
C641   C598    1.394   1_655 S
C642   O666    1.274   .     A
C642   C645    1.407   .     S
C642   O667    1.274   .     A
C643   H658    1.084   .     S
C645   C728    1.189   .     S
C646   O669    1.280   .     A
C646   O672    1.280   .     A
C647   O671    1.280   .     A
C647   C652    1.458   .     S
C647   O670    1.280   .     A
C648   H659    1.085   .     S
C648   C652    1.402   .     A
C649   H660    1.085   .     S
C650   H661    1.085   .     S
C650   C652    1.402   .     A
C651   H662    1.085   .     S
Cu653  Cu654   2.633   .     S
Cu653  O665    1.936   .     S
Cu653  O671    1.967   .     S
Cu653  N664    1.979   .     S
Cu653  O667    1.936   .     S
Cu653  O669    1.967   .     S
Cu654  O668    1.936   .     S
Cu654  N663    1.979   .     S
Cu654  O666    1.936   .     S
Cu654  O670    1.967   .     S
Cu654  O672    1.967   .     S
N664   N159    1.196   1_556 S
C673   C686    1.407   .     S
C673   O710    1.274   .     A
C673   O707    1.274   .     A
C674   C688    1.458   .     S
C674   C693    1.402   .     A
C674   C691    1.402   .     A
C675   C681    1.402   .     A
C675   C679    1.411   .     A
C675   C692    1.394   .     A
C676   C680    1.411   .     A
C676   C693    1.394   .     A
C676   C682    1.402   .     A
C677   C683    1.402   .     A
C677   C679    1.411   .     A
C677   C690    1.394   .     A
C678   C685    1.402   .     A
C678   C691    1.394   .     A
C678   C680    1.411   .     A
C679   C722    1.402   .     S
C680   C721    1.402   1_455 S
C681   H697    1.084   .     S
C681   C727    1.394   .     S
C682   H698    1.084   .     S
C682   C725    1.394   1_455 S
C683   H699    1.084   .     S
C683   C724    1.394   .     S
C684   O708    1.274   .     A
C684   C687    1.407   .     S
C684   O709    1.274   .     A
C685   H700    1.084   .     S
C685   C723    1.394   1_455 S
C687   C518    1.189   1_565 S
C688   O711    1.280   .     A
C688   O714    1.280   .     A
C689   O713    1.280   .     A
C689   C694    1.458   .     S
C689   O712    1.280   .     A
C690   H701    1.085   .     S
C690   C694    1.402   .     A
C691   H702    1.085   .     S
C692   H703    1.085   .     S
C692   C694    1.402   .     A
C693   H704    1.085   .     S
Cu695  Cu696   2.633   .     S
Cu695  O707    1.936   .     S
Cu695  O713    1.967   .     S
Cu695  N706    1.979   .     S
Cu695  O709    1.936   .     S
Cu695  O711    1.967   .     S
Cu696  O710    1.936   .     S
Cu696  N705    1.979   .     S
Cu696  O708    1.936   .     S
Cu696  O712    1.967   .     S
Cu696  O714    1.967   .     S
N706   N201    1.196   1_556 S
C715   C728    1.407   .     S
C715   O752    1.274   .     A
C715   O749    1.274   .     A
C716   C730    1.458   .     S
C716   C735    1.402   .     A
C716   C733    1.402   .     A
C717   C723    1.402   .     A
C717   C721    1.411   .     A
C717   C734    1.394   .     A
C718   C722    1.411   .     A
C718   C735    1.394   .     A
C718   C724    1.402   .     A
C719   C725    1.402   .     A
C719   C721    1.411   .     A
C719   C732    1.394   .     A
C720   C727    1.402   .     A
C720   C733    1.394   .     A
C720   C722    1.411   .     A
C721   C680    1.402   1_655 S
C723   H739    1.084   .     S
C723   C685    1.394   1_655 S
C724   H740    1.084   .     S
C725   H741    1.084   .     S
C725   C682    1.394   1_655 S
C726   O750    1.274   .     A
C726   C729    1.407   .     S
C726   O751    1.274   .     A
C727   H742    1.084   .     S
C729   C560    1.189   1_565 S
C730   O753    1.280   .     A
C730   O756    1.280   .     A
C731   O755    1.280   .     A
C731   C736    1.458   .     S
C731   O754    1.280   .     A
C732   H743    1.085   .     S
C732   C736    1.402   .     A
C733   H744    1.085   .     S
C734   H745    1.085   .     S
C734   C736    1.402   .     A
C735   H746    1.085   .     S
Cu737  Cu738   2.633   .     S
Cu737  O749    1.936   .     S
Cu737  O755    1.967   .     S
Cu737  N748    1.979   .     S
Cu737  O751    1.936   .     S
Cu737  O753    1.967   .     S
Cu738  O752    1.936   .     S
Cu738  N747    1.979   .     S
Cu738  O750    1.936   .     S
Cu738  O754    1.967   .     S
Cu738  O756    1.967   .     S
N748   N243    1.196   1_556 S
