data_str_m1_o10_o16_pcu_sym.194
_audit_creation_date              2020-01-03
_audit_creation_method            'Materials Studio'
_symmetry_space_group_name_H-M    'P1'
_symmetry_Int_Tables_number       1
_symmetry_cell_setting            triclinic
loop_
_symmetry_equiv_pos_as_xyz
  x,y,z
_cell_length_a                    32.6895
_cell_length_b                    32.4428
_cell_length_c                    31.3051
_cell_angle_alpha                 95.5854
_cell_angle_beta                  74.1003
_cell_angle_gamma                 97.9469
loop_
_atom_site_label
_atom_site_type_symbol
_atom_site_fract_x
_atom_site_fract_y
_atom_site_fract_z
_atom_site_U_iso_or_equiv
_atom_site_adp_type
_atom_site_occupancy
C1     C     0.05297   0.16043   0.26033   0.00000  Uiso   1.00
C2     C     0.17282   0.16859   0.05943   0.00000  Uiso   1.00
C3     C     0.22468   0.12141   0.05881   0.00000  Uiso   1.00
C4     C     0.28086   0.17219   0.23844   0.00000  Uiso   1.00
C5     C     0.13946   0.18902   0.41989   0.00000  Uiso   1.00
C6     C     0.32686   0.16932   0.23033   0.00000  Uiso   1.00
C7     C     0.00810   0.16313   0.26561   0.00000  Uiso   1.00
C8     C     0.18042   0.32248   0.23351   0.00000  Uiso   1.00
C9     C     0.15384   0.01214   0.26379   0.00000  Uiso   1.00
C10    C     0.15560   0.05622   0.26115   0.00000  Uiso   1.00
C11    C     0.17654   0.27796   0.23956   0.00000  Uiso   1.00
C12    C     0.08179   0.19098   0.48856   0.00000  Uiso   1.00
C13    C     0.18447   0.14972   0.12975   0.00000  Uiso   1.00
C14    C     0.14948   0.18522   0.37075   0.00000  Uiso   1.00
C15    C     0.23966   0.12180   0.01269   0.00000  Uiso   1.00
C16    C     0.19221   0.14491   0.08197   0.00000  Uiso   1.00
C17    C     0.09837   0.19872   0.44340   0.00000  Uiso   1.00
C18    C     0.31738   0.17102   0.31305   0.00000  Uiso   1.00
C19    C     0.21363   0.00627   0.19396   0.00000  Uiso   1.00
C20    C     0.25243   0.10540   0.41144   0.00000  Uiso   1.00
C21    C     0.23403   0.08633   0.37290   0.00000  Uiso   1.00
C22    C     0.28345   0.10981   0.49266   0.00000  Uiso   1.00
C23    C     0.10785   0.17543   0.01042   0.00000  Uiso   1.00
C24    C     0.15153   0.20681   0.08364   0.00000  Uiso   1.00
C25    C     0.18335   0.24106   0.09799   0.00000  Uiso   1.00
C26    C     0.03633   0.19719   0.01487   0.00000  Uiso   1.00
C27    C     0.00982   0.21631   0.49021   0.00000  Uiso   1.00
C28    C     0.02400   0.16945   0.18323   0.00000  Uiso   1.00
C29    C     0.00501   0.17580   0.14514   0.00000  Uiso   1.00
C30    C     0.15132   0.17135   0.48953   0.00000  Uiso   1.00
C31    C     0.16665   0.17592   0.44336   0.00000  Uiso   1.00
C32    C     0.17916   0.15963   0.01295   0.00000  Uiso   1.00
C33    C     0.21529   0.13882   0.48864   0.00000  Uiso   1.00
C34    C     0.22598   0.13745   0.44147   0.00000  Uiso   1.00
C35    C     0.20752   0.16414   0.42173   0.00000  Uiso   1.00
H36    H     0.24177   0.10695   0.07748   0.00000  Uiso   1.00
H37    H     0.25120   0.05942   0.35634   0.00000  Uiso   1.00
H38    H     0.28565   0.11981   0.39789   0.00000  Uiso   1.00
H39    H     0.25294   0.07849   0.43048   0.00000  Uiso   1.00
H40    H     0.30410   0.12443   0.46355   0.00000  Uiso   1.00
H41    H     0.18088   0.24027   0.13390   0.00000  Uiso   1.00
H42    H     0.21680   0.23809   0.07821   0.00000  Uiso   1.00
H43    H     0.17566   0.27235   0.09326   0.00000  Uiso   1.00
H44    H     0.13757   0.22263   0.06230   0.00000  Uiso   1.00
H45    H     0.12500   0.19713   0.11291   0.00000  Uiso   1.00
H46    H     0.02546   0.24760   0.47949   0.00000  Uiso   1.00
H47    H     0.13094   0.33188   0.29251   0.00000  Uiso   1.00
H48    H     0.00557   0.19578   0.46086   0.00000  Uiso   1.00
H49    H     0.31092   0.21986   0.01282   0.00000  Uiso   1.00
H50    H     0.01913   0.16655   0.02624   0.00000  Uiso   1.00
H51    H     0.03778   0.21789   0.04502   0.00000  Uiso   1.00
H52    H     0.31056   0.15204   0.14441   0.00000  Uiso   1.00
H53    H     0.32891   0.20775   0.14801   0.00000  Uiso   1.00
H54    H     0.02967   0.17223   0.11303   0.00000  Uiso   1.00
H55    H     0.05118   0.19430   0.18272   0.00000  Uiso   1.00
H56    H     0.03715   0.13900   0.17533   0.00000  Uiso   1.00
H57    H     0.07821   0.20898   0.42530   0.00000  Uiso   1.00
H58    H     0.09388   0.16665   0.04433   0.00000  Uiso   1.00
H59    H     0.22368   0.17148   0.38806   0.00000  Uiso   1.00
H60    H     0.32385   0.15438   0.33836   0.00000  Uiso   1.00
H61    H     0.23086   0.31838   0.16860   0.00000  Uiso   1.00
H62    H     0.19945   0.07513   0.38539   0.00000  Uiso   1.00
H63    H     0.23835   0.10928   0.34754   0.00000  Uiso   1.00
O64    O     0.16667   0.16667   0.25000   0.00000  Uiso   1.00
O65    O     0.15451   0.12637   0.15458   0.00000  Uiso   1.00
O66    O     0.12940   0.20391   0.34968   0.00000  Uiso   1.00
O67    O     0.20824   0.17759   0.14606   0.00000  Uiso   1.00
O68    O     0.17451   0.15880   0.34968   0.00000  Uiso   1.00
O69    O     0.29394   0.19860   0.32446   0.00000  Uiso   1.00
O70    O     0.22263   0.04363   0.18916   0.00000  Uiso   1.00
O71    O     0.29743   0.08415   0.00927   0.00000  Uiso   1.00
O72    O     0.17930   0.08019   0.28213   0.00000  Uiso   1.00
O73    O     0.14632   0.26085   0.27013   0.00000  Uiso   1.00
O74    O     0.07412   0.13291   0.23413   0.00000  Uiso   1.00
O75    O     0.26693   0.19272   0.21360   0.00000  Uiso   1.00
O76    O     0.07071   0.18878   0.28213   0.00000  Uiso   1.00
O77    O     0.25491   0.15226   0.27013   0.00000  Uiso   1.00
O78    O     0.13760   0.06944   0.23413   0.00000  Uiso   1.00
O79    O     0.20345   0.25620   0.21360   0.00000  Uiso   1.00
Zn80   Zn    0.19338   0.13994   0.28734   0.00000  Uiso   1.00
Zn81   Zn    0.13379   0.12458   0.21875   0.00000  Uiso   1.00
Zn82   Zn    0.21056   0.19775   0.20657   0.00000  Uiso   1.00
Zn83   Zn    0.12893   0.20439   0.28733   0.00000  Uiso   1.00
C84    C     0.38630   0.16043   0.26033   0.00000  Uiso   1.00
C85    C     0.50616   0.16859   0.05943   0.00000  Uiso   1.00
C86    C     0.55801   0.12141   0.05881   0.00000  Uiso   1.00
C87    C     0.61419   0.17219   0.23844   0.00000  Uiso   1.00
C88    C     0.47280   0.18902   0.41989   0.00000  Uiso   1.00
C89    C     0.66020   0.16932   0.23033   0.00000  Uiso   1.00
C90    C     0.34143   0.16313   0.26561   0.00000  Uiso   1.00
C91    C     0.51375   0.32248   0.23351   0.00000  Uiso   1.00
C92    C     0.48717   0.01214   0.26379   0.00000  Uiso   1.00
C93    C     0.48893   0.05622   0.26115   0.00000  Uiso   1.00
C94    C     0.50987   0.27796   0.23956   0.00000  Uiso   1.00
C95    C     0.41513   0.19098   0.48856   0.00000  Uiso   1.00
C96    C     0.51780   0.14972   0.12975   0.00000  Uiso   1.00
C97    C     0.48282   0.18522   0.37075   0.00000  Uiso   1.00
C98    C     0.57300   0.12180   0.01269   0.00000  Uiso   1.00
C99    C     0.52555   0.14491   0.08197   0.00000  Uiso   1.00
C100   C     0.43170   0.19872   0.44340   0.00000  Uiso   1.00
C101   C     0.65071   0.17102   0.31305   0.00000  Uiso   1.00
C102   C     0.54696   0.00627   0.19396   0.00000  Uiso   1.00
C103   C     0.58576   0.10540   0.41144   0.00000  Uiso   1.00
C104   C     0.56736   0.08633   0.37290   0.00000  Uiso   1.00
C105   C     0.61678   0.10981   0.49266   0.00000  Uiso   1.00
C106   C     0.44118   0.17543   0.01042   0.00000  Uiso   1.00
C107   C     0.48486   0.20681   0.08364   0.00000  Uiso   1.00
C108   C     0.51668   0.24106   0.09799   0.00000  Uiso   1.00
C109   C     0.36966   0.19719   0.01487   0.00000  Uiso   1.00
C110   C     0.34315   0.21631   0.49021   0.00000  Uiso   1.00
C111   C     0.35733   0.16945   0.18323   0.00000  Uiso   1.00
C112   C     0.33834   0.17580   0.14514   0.00000  Uiso   1.00
C113   C     0.48466   0.17135   0.48953   0.00000  Uiso   1.00
C114   C     0.49999   0.17592   0.44336   0.00000  Uiso   1.00
C115   C     0.51249   0.15963   0.01295   0.00000  Uiso   1.00
C116   C     0.54863   0.13882   0.48864   0.00000  Uiso   1.00
C117   C     0.55931   0.13745   0.44147   0.00000  Uiso   1.00
C118   C     0.54086   0.16414   0.42173   0.00000  Uiso   1.00
H119   H     0.57510   0.10695   0.07748   0.00000  Uiso   1.00
H120   H     0.58453   0.05942   0.35634   0.00000  Uiso   1.00
H121   H     0.61899   0.11981   0.39789   0.00000  Uiso   1.00
H122   H     0.58627   0.07849   0.43048   0.00000  Uiso   1.00
H123   H     0.63744   0.12443   0.46355   0.00000  Uiso   1.00
H124   H     0.51421   0.24027   0.13390   0.00000  Uiso   1.00
H125   H     0.55013   0.23809   0.07821   0.00000  Uiso   1.00
H126   H     0.50899   0.27235   0.09326   0.00000  Uiso   1.00
H127   H     0.47090   0.22263   0.06230   0.00000  Uiso   1.00
H128   H     0.45833   0.19713   0.11291   0.00000  Uiso   1.00
H129   H     0.35880   0.24760   0.47949   0.00000  Uiso   1.00
H130   H     0.46427   0.33188   0.29251   0.00000  Uiso   1.00
H131   H     0.33890   0.19578   0.46086   0.00000  Uiso   1.00
H132   H     0.64425   0.21986   0.01282   0.00000  Uiso   1.00
H133   H     0.35246   0.16655   0.02624   0.00000  Uiso   1.00
H134   H     0.37111   0.21789   0.04502   0.00000  Uiso   1.00
H135   H     0.64389   0.15204   0.14441   0.00000  Uiso   1.00
H136   H     0.66224   0.20775   0.14801   0.00000  Uiso   1.00
H137   H     0.36300   0.17223   0.11303   0.00000  Uiso   1.00
H138   H     0.38451   0.19430   0.18272   0.00000  Uiso   1.00
H139   H     0.37048   0.13900   0.17533   0.00000  Uiso   1.00
H140   H     0.41154   0.20898   0.42530   0.00000  Uiso   1.00
H141   H     0.42721   0.16665   0.04433   0.00000  Uiso   1.00
H142   H     0.55702   0.17148   0.38806   0.00000  Uiso   1.00
H143   H     0.65718   0.15438   0.33836   0.00000  Uiso   1.00
H144   H     0.56419   0.31838   0.16860   0.00000  Uiso   1.00
H145   H     0.53278   0.07513   0.38539   0.00000  Uiso   1.00
H146   H     0.57169   0.10928   0.34754   0.00000  Uiso   1.00
O147   O     0.50000   0.16667   0.25000   0.00000  Uiso   1.00
O148   O     0.48784   0.12637   0.15458   0.00000  Uiso   1.00
O149   O     0.46274   0.20391   0.34968   0.00000  Uiso   1.00
O150   O     0.54157   0.17759   0.14606   0.00000  Uiso   1.00
O151   O     0.50785   0.15880   0.34968   0.00000  Uiso   1.00
O152   O     0.62728   0.19860   0.32446   0.00000  Uiso   1.00
O153   O     0.55596   0.04363   0.18916   0.00000  Uiso   1.00
O154   O     0.63076   0.08415   0.00927   0.00000  Uiso   1.00
O155   O     0.51264   0.08019   0.28213   0.00000  Uiso   1.00
O156   O     0.47965   0.26085   0.27013   0.00000  Uiso   1.00
O157   O     0.40745   0.13291   0.23413   0.00000  Uiso   1.00
O158   O     0.60026   0.19272   0.21360   0.00000  Uiso   1.00
O159   O     0.40405   0.18878   0.28213   0.00000  Uiso   1.00
O160   O     0.58824   0.15226   0.27013   0.00000  Uiso   1.00
O161   O     0.47093   0.06944   0.23413   0.00000  Uiso   1.00
O162   O     0.53678   0.25620   0.21360   0.00000  Uiso   1.00
Zn163  Zn    0.52672   0.13994   0.28734   0.00000  Uiso   1.00
Zn164  Zn    0.46713   0.12458   0.21875   0.00000  Uiso   1.00
Zn165  Zn    0.54389   0.19775   0.20657   0.00000  Uiso   1.00
Zn166  Zn    0.46226   0.20439   0.28733   0.00000  Uiso   1.00
C167   C     0.71964   0.16043   0.26033   0.00000  Uiso   1.00
C168   C     0.83949   0.16859   0.05943   0.00000  Uiso   1.00
C169   C     0.89135   0.12141   0.05881   0.00000  Uiso   1.00
C170   C     0.94753   0.17219   0.23844   0.00000  Uiso   1.00
C171   C     0.80613   0.18902   0.41989   0.00000  Uiso   1.00
C172   C     0.99353   0.16932   0.23033   0.00000  Uiso   1.00
C173   C     0.67477   0.16313   0.26561   0.00000  Uiso   1.00
C174   C     0.84709   0.32248   0.23351   0.00000  Uiso   1.00
C175   C     0.82051   0.01214   0.26379   0.00000  Uiso   1.00
C176   C     0.82227   0.05622   0.26115   0.00000  Uiso   1.00
C177   C     0.84321   0.27796   0.23956   0.00000  Uiso   1.00
C178   C     0.74846   0.19098   0.48856   0.00000  Uiso   1.00
C179   C     0.85113   0.14972   0.12975   0.00000  Uiso   1.00
C180   C     0.81615   0.18522   0.37075   0.00000  Uiso   1.00
C181   C     0.90633   0.12180   0.01269   0.00000  Uiso   1.00
C182   C     0.85888   0.14491   0.08197   0.00000  Uiso   1.00
C183   C     0.76504   0.19872   0.44340   0.00000  Uiso   1.00
C184   C     0.98405   0.17102   0.31305   0.00000  Uiso   1.00
C185   C     0.88030   0.00627   0.19396   0.00000  Uiso   1.00
C186   C     0.91910   0.10540   0.41144   0.00000  Uiso   1.00
C187   C     0.90070   0.08633   0.37290   0.00000  Uiso   1.00
C188   C     0.95012   0.10981   0.49266   0.00000  Uiso   1.00
C189   C     0.77452   0.17543   0.01042   0.00000  Uiso   1.00
C190   C     0.81819   0.20681   0.08364   0.00000  Uiso   1.00
C191   C     0.85002   0.24106   0.09799   0.00000  Uiso   1.00
C192   C     0.70299   0.19719   0.01487   0.00000  Uiso   1.00
C193   C     0.67649   0.21631   0.49021   0.00000  Uiso   1.00
C194   C     0.69067   0.16945   0.18323   0.00000  Uiso   1.00
C195   C     0.67167   0.17580   0.14514   0.00000  Uiso   1.00
C196   C     0.81799   0.17135   0.48953   0.00000  Uiso   1.00
C197   C     0.83332   0.17592   0.44336   0.00000  Uiso   1.00
C198   C     0.84583   0.15963   0.01295   0.00000  Uiso   1.00
C199   C     0.88196   0.13882   0.48864   0.00000  Uiso   1.00
C200   C     0.89265   0.13745   0.44147   0.00000  Uiso   1.00
C201   C     0.87419   0.16414   0.42173   0.00000  Uiso   1.00
H202   H     0.90844   0.10695   0.07748   0.00000  Uiso   1.00
H203   H     0.91787   0.05942   0.35634   0.00000  Uiso   1.00
H204   H     0.95232   0.11981   0.39789   0.00000  Uiso   1.00
H205   H     0.91960   0.07849   0.43048   0.00000  Uiso   1.00
H206   H     0.97077   0.12443   0.46355   0.00000  Uiso   1.00
H207   H     0.84754   0.24027   0.13390   0.00000  Uiso   1.00
H208   H     0.88347   0.23809   0.07821   0.00000  Uiso   1.00
H209   H     0.84232   0.27235   0.09326   0.00000  Uiso   1.00
H210   H     0.80423   0.22263   0.06230   0.00000  Uiso   1.00
H211   H     0.79167   0.19713   0.11291   0.00000  Uiso   1.00
H212   H     0.69213   0.24760   0.47949   0.00000  Uiso   1.00
H213   H     0.79761   0.33188   0.29251   0.00000  Uiso   1.00
H214   H     0.67224   0.19578   0.46086   0.00000  Uiso   1.00
H215   H     0.97758   0.21986   0.01282   0.00000  Uiso   1.00
H216   H     0.68580   0.16655   0.02624   0.00000  Uiso   1.00
H217   H     0.70445   0.21789   0.04502   0.00000  Uiso   1.00
H218   H     0.97722   0.15204   0.14441   0.00000  Uiso   1.00
H219   H     0.99557   0.20775   0.14801   0.00000  Uiso   1.00
H220   H     0.69633   0.17223   0.11303   0.00000  Uiso   1.00
H221   H     0.71785   0.19430   0.18272   0.00000  Uiso   1.00
H222   H     0.70381   0.13900   0.17533   0.00000  Uiso   1.00
H223   H     0.74487   0.20898   0.42530   0.00000  Uiso   1.00
H224   H     0.76055   0.16665   0.04433   0.00000  Uiso   1.00
H225   H     0.89035   0.17148   0.38806   0.00000  Uiso   1.00
H226   H     0.99052   0.15438   0.33836   0.00000  Uiso   1.00
H227   H     0.89752   0.31838   0.16860   0.00000  Uiso   1.00
H228   H     0.86612   0.07513   0.38539   0.00000  Uiso   1.00
H229   H     0.90502   0.10928   0.34754   0.00000  Uiso   1.00
O230   O     0.83333   0.16667   0.25000   0.00000  Uiso   1.00
O231   O     0.82118   0.12637   0.15458   0.00000  Uiso   1.00
O232   O     0.79607   0.20391   0.34968   0.00000  Uiso   1.00
O233   O     0.87491   0.17759   0.14606   0.00000  Uiso   1.00
O234   O     0.84118   0.15880   0.34968   0.00000  Uiso   1.00
O235   O     0.96061   0.19860   0.32446   0.00000  Uiso   1.00
O236   O     0.88930   0.04363   0.18916   0.00000  Uiso   1.00
O237   O     0.96410   0.08415   0.00927   0.00000  Uiso   1.00
O238   O     0.84597   0.08019   0.28213   0.00000  Uiso   1.00
O239   O     0.81298   0.26085   0.27013   0.00000  Uiso   1.00
O240   O     0.74078   0.13291   0.23413   0.00000  Uiso   1.00
O241   O     0.93360   0.19272   0.21360   0.00000  Uiso   1.00
O242   O     0.73738   0.18878   0.28213   0.00000  Uiso   1.00
O243   O     0.92158   0.15226   0.27013   0.00000  Uiso   1.00
O244   O     0.80426   0.06944   0.23413   0.00000  Uiso   1.00
O245   O     0.87012   0.25620   0.21360   0.00000  Uiso   1.00
Zn246  Zn    0.86005   0.13994   0.28734   0.00000  Uiso   1.00
Zn247  Zn    0.80046   0.12458   0.21875   0.00000  Uiso   1.00
Zn248  Zn    0.87723   0.19775   0.20657   0.00000  Uiso   1.00
Zn249  Zn    0.79560   0.20439   0.28733   0.00000  Uiso   1.00
C250   C     0.05297   0.49376   0.26033   0.00000  Uiso   1.00
C251   C     0.17282   0.50192   0.05943   0.00000  Uiso   1.00
C252   C     0.22468   0.45474   0.05881   0.00000  Uiso   1.00
C253   C     0.28086   0.50553   0.23844   0.00000  Uiso   1.00
C254   C     0.13946   0.52235   0.41989   0.00000  Uiso   1.00
C255   C     0.32686   0.50266   0.23033   0.00000  Uiso   1.00
C256   C     0.00810   0.49646   0.26561   0.00000  Uiso   1.00
C257   C     0.18042   0.65581   0.23351   0.00000  Uiso   1.00
C258   C     0.15384   0.34548   0.26379   0.00000  Uiso   1.00
C259   C     0.15560   0.38955   0.26115   0.00000  Uiso   1.00
C260   C     0.17654   0.61129   0.23956   0.00000  Uiso   1.00
C261   C     0.08179   0.52431   0.48856   0.00000  Uiso   1.00
C262   C     0.18447   0.48305   0.12975   0.00000  Uiso   1.00
C263   C     0.14948   0.51856   0.37075   0.00000  Uiso   1.00
C264   C     0.23966   0.45513   0.01269   0.00000  Uiso   1.00
C265   C     0.19221   0.47825   0.08197   0.00000  Uiso   1.00
C266   C     0.09837   0.53205   0.44340   0.00000  Uiso   1.00
C267   C     0.31738   0.50436   0.31305   0.00000  Uiso   1.00
C268   C     0.21363   0.33961   0.19396   0.00000  Uiso   1.00
C269   C     0.25243   0.43873   0.41144   0.00000  Uiso   1.00
C270   C     0.23403   0.41966   0.37290   0.00000  Uiso   1.00
C271   C     0.28345   0.44315   0.49266   0.00000  Uiso   1.00
C272   C     0.10785   0.50876   0.01042   0.00000  Uiso   1.00
C273   C     0.15153   0.54014   0.08364   0.00000  Uiso   1.00
C274   C     0.18335   0.57439   0.09799   0.00000  Uiso   1.00
C275   C     0.03633   0.53052   0.01487   0.00000  Uiso   1.00
C276   C     0.00982   0.54964   0.49021   0.00000  Uiso   1.00
C277   C     0.02400   0.50278   0.18323   0.00000  Uiso   1.00
C278   C     0.00501   0.50914   0.14514   0.00000  Uiso   1.00
C279   C     0.15132   0.50468   0.48953   0.00000  Uiso   1.00
C280   C     0.16665   0.50925   0.44336   0.00000  Uiso   1.00
C281   C     0.17916   0.49297   0.01295   0.00000  Uiso   1.00
C282   C     0.21529   0.47215   0.48864   0.00000  Uiso   1.00
C283   C     0.22598   0.47078   0.44147   0.00000  Uiso   1.00
C284   C     0.20752   0.49748   0.42173   0.00000  Uiso   1.00
H285   H     0.24177   0.44029   0.07748   0.00000  Uiso   1.00
H286   H     0.25120   0.39276   0.35634   0.00000  Uiso   1.00
H287   H     0.28565   0.45314   0.39789   0.00000  Uiso   1.00
H288   H     0.25294   0.41183   0.43048   0.00000  Uiso   1.00
H289   H     0.30410   0.45776   0.46355   0.00000  Uiso   1.00
H290   H     0.18088   0.57361   0.13390   0.00000  Uiso   1.00
H291   H     0.21680   0.57143   0.07821   0.00000  Uiso   1.00
H292   H     0.17566   0.60568   0.09326   0.00000  Uiso   1.00
H293   H     0.13757   0.55596   0.06230   0.00000  Uiso   1.00
H294   H     0.12500   0.53046   0.11291   0.00000  Uiso   1.00
H295   H     0.02546   0.58094   0.47949   0.00000  Uiso   1.00
H296   H     0.13094   0.66521   0.29251   0.00000  Uiso   1.00
H297   H     0.00557   0.52912   0.46086   0.00000  Uiso   1.00
H298   H     0.31092   0.55319   0.01282   0.00000  Uiso   1.00
H299   H     0.01913   0.49988   0.02624   0.00000  Uiso   1.00
H300   H     0.03778   0.55122   0.04502   0.00000  Uiso   1.00
H301   H     0.31056   0.48537   0.14441   0.00000  Uiso   1.00
H302   H     0.32891   0.54109   0.14801   0.00000  Uiso   1.00
H303   H     0.02967   0.50557   0.11303   0.00000  Uiso   1.00
H304   H     0.05118   0.52764   0.18272   0.00000  Uiso   1.00
H305   H     0.03715   0.47233   0.17533   0.00000  Uiso   1.00
H306   H     0.07821   0.54232   0.42530   0.00000  Uiso   1.00
H307   H     0.09388   0.49998   0.04433   0.00000  Uiso   1.00
H308   H     0.22368   0.50481   0.38806   0.00000  Uiso   1.00
H309   H     0.32385   0.48772   0.33836   0.00000  Uiso   1.00
H310   H     0.23086   0.65171   0.16860   0.00000  Uiso   1.00
H311   H     0.19945   0.40847   0.38539   0.00000  Uiso   1.00
H312   H     0.23835   0.44261   0.34754   0.00000  Uiso   1.00
O313   O     0.16667   0.50000   0.25000   0.00000  Uiso   1.00
O314   O     0.15451   0.45970   0.15458   0.00000  Uiso   1.00
O315   O     0.12940   0.53724   0.34968   0.00000  Uiso   1.00
O316   O     0.20824   0.51092   0.14606   0.00000  Uiso   1.00
O317   O     0.17451   0.49213   0.34968   0.00000  Uiso   1.00
O318   O     0.29394   0.53193   0.32446   0.00000  Uiso   1.00
O319   O     0.22263   0.37696   0.18916   0.00000  Uiso   1.00
O320   O     0.29743   0.41748   0.00927   0.00000  Uiso   1.00
O321   O     0.17930   0.41352   0.28213   0.00000  Uiso   1.00
O322   O     0.14632   0.59418   0.27013   0.00000  Uiso   1.00
O323   O     0.07412   0.46625   0.23413   0.00000  Uiso   1.00
O324   O     0.26693   0.52605   0.21360   0.00000  Uiso   1.00
O325   O     0.07071   0.52211   0.28213   0.00000  Uiso   1.00
O326   O     0.25491   0.48559   0.27013   0.00000  Uiso   1.00
O327   O     0.13760   0.40277   0.23413   0.00000  Uiso   1.00
O328   O     0.20345   0.58953   0.21360   0.00000  Uiso   1.00
Zn329  Zn    0.19338   0.47327   0.28734   0.00000  Uiso   1.00
Zn330  Zn    0.13379   0.45791   0.21875   0.00000  Uiso   1.00
Zn331  Zn    0.21056   0.53109   0.20657   0.00000  Uiso   1.00
Zn332  Zn    0.12893   0.53773   0.28733   0.00000  Uiso   1.00
C333   C     0.38630   0.49376   0.26033   0.00000  Uiso   1.00
C334   C     0.50616   0.50192   0.05943   0.00000  Uiso   1.00
C335   C     0.55801   0.45474   0.05881   0.00000  Uiso   1.00
C336   C     0.61419   0.50553   0.23844   0.00000  Uiso   1.00
C337   C     0.47280   0.52235   0.41989   0.00000  Uiso   1.00
C338   C     0.66020   0.50266   0.23033   0.00000  Uiso   1.00
C339   C     0.34143   0.49646   0.26561   0.00000  Uiso   1.00
C340   C     0.51375   0.65581   0.23351   0.00000  Uiso   1.00
C341   C     0.48717   0.34548   0.26379   0.00000  Uiso   1.00
C342   C     0.48893   0.38955   0.26115   0.00000  Uiso   1.00
C343   C     0.50987   0.61129   0.23956   0.00000  Uiso   1.00
C344   C     0.41513   0.52431   0.48856   0.00000  Uiso   1.00
C345   C     0.51780   0.48305   0.12975   0.00000  Uiso   1.00
C346   C     0.48282   0.51856   0.37075   0.00000  Uiso   1.00
C347   C     0.57300   0.45513   0.01269   0.00000  Uiso   1.00
C348   C     0.52555   0.47825   0.08197   0.00000  Uiso   1.00
C349   C     0.43170   0.53205   0.44340   0.00000  Uiso   1.00
C350   C     0.65071   0.50436   0.31305   0.00000  Uiso   1.00
C351   C     0.54696   0.33961   0.19396   0.00000  Uiso   1.00
C352   C     0.58576   0.43873   0.41144   0.00000  Uiso   1.00
C353   C     0.56736   0.41966   0.37290   0.00000  Uiso   1.00
C354   C     0.61678   0.44315   0.49266   0.00000  Uiso   1.00
C355   C     0.44118   0.50876   0.01042   0.00000  Uiso   1.00
C356   C     0.48486   0.54014   0.08364   0.00000  Uiso   1.00
C357   C     0.51668   0.57439   0.09799   0.00000  Uiso   1.00
C358   C     0.36966   0.53052   0.01487   0.00000  Uiso   1.00
C359   C     0.34315   0.54964   0.49021   0.00000  Uiso   1.00
C360   C     0.35733   0.50278   0.18323   0.00000  Uiso   1.00
C361   C     0.33834   0.50914   0.14514   0.00000  Uiso   1.00
C362   C     0.48466   0.50468   0.48953   0.00000  Uiso   1.00
C363   C     0.49999   0.50925   0.44336   0.00000  Uiso   1.00
C364   C     0.51249   0.49297   0.01295   0.00000  Uiso   1.00
C365   C     0.54863   0.47215   0.48864   0.00000  Uiso   1.00
C366   C     0.55931   0.47078   0.44147   0.00000  Uiso   1.00
C367   C     0.54086   0.49748   0.42173   0.00000  Uiso   1.00
H368   H     0.57510   0.44029   0.07748   0.00000  Uiso   1.00
H369   H     0.58453   0.39276   0.35634   0.00000  Uiso   1.00
H370   H     0.61899   0.45314   0.39789   0.00000  Uiso   1.00
H371   H     0.58627   0.41183   0.43048   0.00000  Uiso   1.00
H372   H     0.63744   0.45776   0.46355   0.00000  Uiso   1.00
H373   H     0.51421   0.57361   0.13390   0.00000  Uiso   1.00
H374   H     0.55013   0.57143   0.07821   0.00000  Uiso   1.00
H375   H     0.50899   0.60568   0.09326   0.00000  Uiso   1.00
H376   H     0.47090   0.55596   0.06230   0.00000  Uiso   1.00
H377   H     0.45833   0.53046   0.11291   0.00000  Uiso   1.00
H378   H     0.35880   0.58094   0.47949   0.00000  Uiso   1.00
H379   H     0.46427   0.66521   0.29251   0.00000  Uiso   1.00
H380   H     0.33890   0.52912   0.46086   0.00000  Uiso   1.00
H381   H     0.64425   0.55319   0.01282   0.00000  Uiso   1.00
H382   H     0.35246   0.49988   0.02624   0.00000  Uiso   1.00
H383   H     0.37111   0.55122   0.04502   0.00000  Uiso   1.00
H384   H     0.64389   0.48537   0.14441   0.00000  Uiso   1.00
H385   H     0.66224   0.54109   0.14801   0.00000  Uiso   1.00
H386   H     0.36300   0.50557   0.11303   0.00000  Uiso   1.00
H387   H     0.38451   0.52764   0.18272   0.00000  Uiso   1.00
H388   H     0.37048   0.47233   0.17533   0.00000  Uiso   1.00
H389   H     0.41154   0.54232   0.42530   0.00000  Uiso   1.00
H390   H     0.42721   0.49998   0.04433   0.00000  Uiso   1.00
H391   H     0.55702   0.50481   0.38806   0.00000  Uiso   1.00
H392   H     0.65718   0.48772   0.33836   0.00000  Uiso   1.00
H393   H     0.56419   0.65171   0.16860   0.00000  Uiso   1.00
H394   H     0.53278   0.40847   0.38539   0.00000  Uiso   1.00
H395   H     0.57169   0.44261   0.34754   0.00000  Uiso   1.00
O396   O     0.50000   0.50000   0.25000   0.00000  Uiso   1.00
O397   O     0.48784   0.45970   0.15458   0.00000  Uiso   1.00
O398   O     0.46274   0.53724   0.34968   0.00000  Uiso   1.00
O399   O     0.54157   0.51092   0.14606   0.00000  Uiso   1.00
O400   O     0.50785   0.49213   0.34968   0.00000  Uiso   1.00
O401   O     0.62728   0.53193   0.32446   0.00000  Uiso   1.00
O402   O     0.55596   0.37696   0.18916   0.00000  Uiso   1.00
O403   O     0.63076   0.41748   0.00927   0.00000  Uiso   1.00
O404   O     0.51264   0.41352   0.28213   0.00000  Uiso   1.00
O405   O     0.47965   0.59418   0.27013   0.00000  Uiso   1.00
O406   O     0.40745   0.46625   0.23413   0.00000  Uiso   1.00
O407   O     0.60026   0.52605   0.21360   0.00000  Uiso   1.00
O408   O     0.40405   0.52211   0.28213   0.00000  Uiso   1.00
O409   O     0.58824   0.48559   0.27013   0.00000  Uiso   1.00
O410   O     0.47093   0.40277   0.23413   0.00000  Uiso   1.00
O411   O     0.53678   0.58953   0.21360   0.00000  Uiso   1.00
Zn412  Zn    0.52672   0.47327   0.28734   0.00000  Uiso   1.00
Zn413  Zn    0.46713   0.45791   0.21875   0.00000  Uiso   1.00
Zn414  Zn    0.54389   0.53109   0.20657   0.00000  Uiso   1.00
Zn415  Zn    0.46226   0.53773   0.28733   0.00000  Uiso   1.00
C416   C     0.71964   0.49376   0.26033   0.00000  Uiso   1.00
C417   C     0.83949   0.50192   0.05943   0.00000  Uiso   1.00
C418   C     0.89135   0.45474   0.05881   0.00000  Uiso   1.00
C419   C     0.94753   0.50553   0.23844   0.00000  Uiso   1.00
C420   C     0.80613   0.52235   0.41989   0.00000  Uiso   1.00
C421   C     0.99353   0.50266   0.23033   0.00000  Uiso   1.00
C422   C     0.67477   0.49646   0.26561   0.00000  Uiso   1.00
C423   C     0.84709   0.65581   0.23351   0.00000  Uiso   1.00
C424   C     0.82051   0.34548   0.26379   0.00000  Uiso   1.00
C425   C     0.82227   0.38955   0.26115   0.00000  Uiso   1.00
C426   C     0.84321   0.61129   0.23956   0.00000  Uiso   1.00
C427   C     0.74846   0.52431   0.48856   0.00000  Uiso   1.00
C428   C     0.85113   0.48305   0.12975   0.00000  Uiso   1.00
C429   C     0.81615   0.51856   0.37075   0.00000  Uiso   1.00
C430   C     0.90633   0.45513   0.01269   0.00000  Uiso   1.00
C431   C     0.85888   0.47825   0.08197   0.00000  Uiso   1.00
C432   C     0.76504   0.53205   0.44340   0.00000  Uiso   1.00
C433   C     0.98405   0.50436   0.31305   0.00000  Uiso   1.00
C434   C     0.88030   0.33961   0.19396   0.00000  Uiso   1.00
C435   C     0.91910   0.43873   0.41144   0.00000  Uiso   1.00
C436   C     0.90070   0.41966   0.37290   0.00000  Uiso   1.00
C437   C     0.95012   0.44315   0.49266   0.00000  Uiso   1.00
C438   C     0.77452   0.50876   0.01042   0.00000  Uiso   1.00
C439   C     0.81819   0.54014   0.08364   0.00000  Uiso   1.00
C440   C     0.85002   0.57439   0.09799   0.00000  Uiso   1.00
C441   C     0.70299   0.53052   0.01487   0.00000  Uiso   1.00
C442   C     0.67649   0.54964   0.49021   0.00000  Uiso   1.00
C443   C     0.69067   0.50278   0.18323   0.00000  Uiso   1.00
C444   C     0.67167   0.50914   0.14514   0.00000  Uiso   1.00
C445   C     0.81799   0.50468   0.48953   0.00000  Uiso   1.00
C446   C     0.83332   0.50925   0.44336   0.00000  Uiso   1.00
C447   C     0.84583   0.49297   0.01295   0.00000  Uiso   1.00
C448   C     0.88196   0.47215   0.48864   0.00000  Uiso   1.00
C449   C     0.89265   0.47078   0.44147   0.00000  Uiso   1.00
C450   C     0.87419   0.49748   0.42173   0.00000  Uiso   1.00
H451   H     0.90844   0.44029   0.07748   0.00000  Uiso   1.00
H452   H     0.91787   0.39276   0.35634   0.00000  Uiso   1.00
H453   H     0.95232   0.45314   0.39789   0.00000  Uiso   1.00
H454   H     0.91960   0.41183   0.43048   0.00000  Uiso   1.00
H455   H     0.97077   0.45776   0.46355   0.00000  Uiso   1.00
H456   H     0.84754   0.57361   0.13390   0.00000  Uiso   1.00
H457   H     0.88347   0.57143   0.07821   0.00000  Uiso   1.00
H458   H     0.84232   0.60568   0.09326   0.00000  Uiso   1.00
H459   H     0.80423   0.55596   0.06230   0.00000  Uiso   1.00
H460   H     0.79167   0.53046   0.11291   0.00000  Uiso   1.00
H461   H     0.69213   0.58094   0.47949   0.00000  Uiso   1.00
H462   H     0.79761   0.66521   0.29251   0.00000  Uiso   1.00
H463   H     0.67224   0.52912   0.46086   0.00000  Uiso   1.00
H464   H     0.97758   0.55319   0.01282   0.00000  Uiso   1.00
H465   H     0.68580   0.49988   0.02624   0.00000  Uiso   1.00
H466   H     0.70445   0.55122   0.04502   0.00000  Uiso   1.00
H467   H     0.97722   0.48537   0.14441   0.00000  Uiso   1.00
H468   H     0.99557   0.54109   0.14801   0.00000  Uiso   1.00
H469   H     0.69633   0.50557   0.11303   0.00000  Uiso   1.00
H470   H     0.71785   0.52764   0.18272   0.00000  Uiso   1.00
H471   H     0.70381   0.47233   0.17533   0.00000  Uiso   1.00
H472   H     0.74487   0.54232   0.42530   0.00000  Uiso   1.00
H473   H     0.76055   0.49998   0.04433   0.00000  Uiso   1.00
H474   H     0.89035   0.50481   0.38806   0.00000  Uiso   1.00
H475   H     0.99052   0.48772   0.33836   0.00000  Uiso   1.00
H476   H     0.89752   0.65171   0.16860   0.00000  Uiso   1.00
H477   H     0.86612   0.40847   0.38539   0.00000  Uiso   1.00
H478   H     0.90502   0.44261   0.34754   0.00000  Uiso   1.00
O479   O     0.83333   0.50000   0.25000   0.00000  Uiso   1.00
O480   O     0.82118   0.45970   0.15458   0.00000  Uiso   1.00
O481   O     0.79607   0.53724   0.34968   0.00000  Uiso   1.00
O482   O     0.87491   0.51092   0.14606   0.00000  Uiso   1.00
O483   O     0.84118   0.49213   0.34968   0.00000  Uiso   1.00
O484   O     0.96061   0.53193   0.32446   0.00000  Uiso   1.00
O485   O     0.88930   0.37696   0.18916   0.00000  Uiso   1.00
O486   O     0.96410   0.41748   0.00927   0.00000  Uiso   1.00
O487   O     0.84597   0.41352   0.28213   0.00000  Uiso   1.00
O488   O     0.81298   0.59418   0.27013   0.00000  Uiso   1.00
O489   O     0.74078   0.46625   0.23413   0.00000  Uiso   1.00
O490   O     0.93360   0.52605   0.21360   0.00000  Uiso   1.00
O491   O     0.73738   0.52211   0.28213   0.00000  Uiso   1.00
O492   O     0.92158   0.48559   0.27013   0.00000  Uiso   1.00
O493   O     0.80426   0.40277   0.23413   0.00000  Uiso   1.00
O494   O     0.87012   0.58953   0.21360   0.00000  Uiso   1.00
Zn495  Zn    0.86005   0.47327   0.28734   0.00000  Uiso   1.00
Zn496  Zn    0.80046   0.45791   0.21875   0.00000  Uiso   1.00
Zn497  Zn    0.87723   0.53109   0.20657   0.00000  Uiso   1.00
Zn498  Zn    0.79560   0.53773   0.28733   0.00000  Uiso   1.00
C499   C     0.05297   0.82709   0.26033   0.00000  Uiso   1.00
C500   C     0.17282   0.83525   0.05943   0.00000  Uiso   1.00
C501   C     0.22468   0.78808   0.05881   0.00000  Uiso   1.00
C502   C     0.28086   0.83886   0.23844   0.00000  Uiso   1.00
C503   C     0.13946   0.85569   0.41989   0.00000  Uiso   1.00
C504   C     0.32686   0.83599   0.23033   0.00000  Uiso   1.00
C505   C     0.00810   0.82979   0.26561   0.00000  Uiso   1.00
C506   C     0.18042   0.98915   0.23351   0.00000  Uiso   1.00
C507   C     0.15384   0.67881   0.26379   0.00000  Uiso   1.00
C508   C     0.15560   0.72288   0.26115   0.00000  Uiso   1.00
C509   C     0.17654   0.94462   0.23956   0.00000  Uiso   1.00
C510   C     0.08179   0.85765   0.48856   0.00000  Uiso   1.00
C511   C     0.18447   0.81638   0.12975   0.00000  Uiso   1.00
C512   C     0.14948   0.85189   0.37075   0.00000  Uiso   1.00
C513   C     0.23966   0.78847   0.01269   0.00000  Uiso   1.00
C514   C     0.19221   0.81158   0.08197   0.00000  Uiso   1.00
C515   C     0.09837   0.86539   0.44340   0.00000  Uiso   1.00
C516   C     0.31738   0.83769   0.31305   0.00000  Uiso   1.00
C517   C     0.21363   0.67294   0.19396   0.00000  Uiso   1.00
C518   C     0.25243   0.77207   0.41144   0.00000  Uiso   1.00
C519   C     0.23403   0.75299   0.37290   0.00000  Uiso   1.00
C520   C     0.28345   0.77648   0.49266   0.00000  Uiso   1.00
C521   C     0.10785   0.84209   0.01042   0.00000  Uiso   1.00
C522   C     0.15153   0.87348   0.08364   0.00000  Uiso   1.00
C523   C     0.18335   0.90772   0.09799   0.00000  Uiso   1.00
C524   C     0.03633   0.86385   0.01487   0.00000  Uiso   1.00
C525   C     0.00982   0.88297   0.49021   0.00000  Uiso   1.00
C526   C     0.02400   0.83612   0.18323   0.00000  Uiso   1.00
C527   C     0.00501   0.84247   0.14514   0.00000  Uiso   1.00
C528   C     0.15132   0.83802   0.48953   0.00000  Uiso   1.00
C529   C     0.16665   0.84259   0.44336   0.00000  Uiso   1.00
C530   C     0.17916   0.82630   0.01295   0.00000  Uiso   1.00
C531   C     0.21529   0.80548   0.48864   0.00000  Uiso   1.00
C532   C     0.22598   0.80412   0.44147   0.00000  Uiso   1.00
C533   C     0.20752   0.83081   0.42173   0.00000  Uiso   1.00
H534   H     0.24177   0.77362   0.07748   0.00000  Uiso   1.00
H535   H     0.25120   0.72609   0.35634   0.00000  Uiso   1.00
H536   H     0.28565   0.78647   0.39789   0.00000  Uiso   1.00
H537   H     0.25294   0.74516   0.43048   0.00000  Uiso   1.00
H538   H     0.30410   0.79110   0.46355   0.00000  Uiso   1.00
H539   H     0.18088   0.90694   0.13390   0.00000  Uiso   1.00
H540   H     0.21680   0.90476   0.07821   0.00000  Uiso   1.00
H541   H     0.17566   0.93901   0.09326   0.00000  Uiso   1.00
H542   H     0.13757   0.88929   0.06230   0.00000  Uiso   1.00
H543   H     0.12500   0.86379   0.11291   0.00000  Uiso   1.00
H544   H     0.02546   0.91427   0.47949   0.00000  Uiso   1.00
H545   H     0.13094   0.99854   0.29251   0.00000  Uiso   1.00
H546   H     0.00557   0.86245   0.46086   0.00000  Uiso   1.00
H547   H     0.31092   0.88653   0.01282   0.00000  Uiso   1.00
H548   H     0.01913   0.83321   0.02624   0.00000  Uiso   1.00
H549   H     0.03778   0.88455   0.04502   0.00000  Uiso   1.00
H550   H     0.31056   0.81870   0.14441   0.00000  Uiso   1.00
H551   H     0.32891   0.87442   0.14801   0.00000  Uiso   1.00
H552   H     0.02967   0.83890   0.11303   0.00000  Uiso   1.00
H553   H     0.05118   0.86097   0.18272   0.00000  Uiso   1.00
H554   H     0.03715   0.80566   0.17533   0.00000  Uiso   1.00
H555   H     0.07821   0.87565   0.42530   0.00000  Uiso   1.00
H556   H     0.09388   0.83332   0.04433   0.00000  Uiso   1.00
H557   H     0.22368   0.83815   0.38806   0.00000  Uiso   1.00
H558   H     0.32385   0.82105   0.33836   0.00000  Uiso   1.00
H559   H     0.23086   0.98505   0.16860   0.00000  Uiso   1.00
H560   H     0.19945   0.74180   0.38539   0.00000  Uiso   1.00
H561   H     0.23835   0.77594   0.34754   0.00000  Uiso   1.00
O562   O     0.16667   0.83333   0.25000   0.00000  Uiso   1.00
O563   O     0.15451   0.79304   0.15458   0.00000  Uiso   1.00
O564   O     0.12940   0.87058   0.34968   0.00000  Uiso   1.00
O565   O     0.20824   0.84425   0.14606   0.00000  Uiso   1.00
O566   O     0.17451   0.82546   0.34968   0.00000  Uiso   1.00
O567   O     0.29394   0.86527   0.32446   0.00000  Uiso   1.00
O568   O     0.22263   0.71030   0.18916   0.00000  Uiso   1.00
O569   O     0.29743   0.75081   0.00927   0.00000  Uiso   1.00
O570   O     0.17930   0.74686   0.28213   0.00000  Uiso   1.00
O571   O     0.14632   0.92751   0.27013   0.00000  Uiso   1.00
O572   O     0.07412   0.79958   0.23413   0.00000  Uiso   1.00
O573   O     0.26693   0.85939   0.21360   0.00000  Uiso   1.00
O574   O     0.07071   0.85544   0.28213   0.00000  Uiso   1.00
O575   O     0.25491   0.81892   0.27013   0.00000  Uiso   1.00
O576   O     0.13760   0.73610   0.23413   0.00000  Uiso   1.00
O577   O     0.20345   0.92286   0.21360   0.00000  Uiso   1.00
Zn578  Zn    0.19338   0.80661   0.28734   0.00000  Uiso   1.00
Zn579  Zn    0.13379   0.79124   0.21875   0.00000  Uiso   1.00
Zn580  Zn    0.21056   0.86442   0.20657   0.00000  Uiso   1.00
Zn581  Zn    0.12893   0.87106   0.28733   0.00000  Uiso   1.00
C582   C     0.38630   0.82709   0.26033   0.00000  Uiso   1.00
C583   C     0.50616   0.83525   0.05943   0.00000  Uiso   1.00
C584   C     0.55801   0.78808   0.05881   0.00000  Uiso   1.00
C585   C     0.61419   0.83886   0.23844   0.00000  Uiso   1.00
C586   C     0.47280   0.85569   0.41989   0.00000  Uiso   1.00
C587   C     0.66020   0.83599   0.23033   0.00000  Uiso   1.00
C588   C     0.34143   0.82979   0.26561   0.00000  Uiso   1.00
C589   C     0.51375   0.98915   0.23351   0.00000  Uiso   1.00
C590   C     0.48717   0.67881   0.26379   0.00000  Uiso   1.00
C591   C     0.48893   0.72288   0.26115   0.00000  Uiso   1.00
C592   C     0.50987   0.94462   0.23956   0.00000  Uiso   1.00
C593   C     0.41513   0.85765   0.48856   0.00000  Uiso   1.00
C594   C     0.51780   0.81638   0.12975   0.00000  Uiso   1.00
C595   C     0.48282   0.85189   0.37075   0.00000  Uiso   1.00
C596   C     0.57300   0.78847   0.01269   0.00000  Uiso   1.00
C597   C     0.52555   0.81158   0.08197   0.00000  Uiso   1.00
C598   C     0.43170   0.86539   0.44340   0.00000  Uiso   1.00
C599   C     0.65071   0.83769   0.31305   0.00000  Uiso   1.00
C600   C     0.54696   0.67294   0.19396   0.00000  Uiso   1.00
C601   C     0.58576   0.77207   0.41144   0.00000  Uiso   1.00
C602   C     0.56736   0.75299   0.37290   0.00000  Uiso   1.00
C603   C     0.61678   0.77648   0.49266   0.00000  Uiso   1.00
C604   C     0.44118   0.84209   0.01042   0.00000  Uiso   1.00
C605   C     0.48486   0.87348   0.08364   0.00000  Uiso   1.00
C606   C     0.51668   0.90772   0.09799   0.00000  Uiso   1.00
C607   C     0.36966   0.86385   0.01487   0.00000  Uiso   1.00
C608   C     0.34315   0.88297   0.49021   0.00000  Uiso   1.00
C609   C     0.35733   0.83612   0.18323   0.00000  Uiso   1.00
C610   C     0.33834   0.84247   0.14514   0.00000  Uiso   1.00
C611   C     0.48466   0.83802   0.48953   0.00000  Uiso   1.00
C612   C     0.49999   0.84259   0.44336   0.00000  Uiso   1.00
C613   C     0.51249   0.82630   0.01295   0.00000  Uiso   1.00
C614   C     0.54863   0.80548   0.48864   0.00000  Uiso   1.00
C615   C     0.55931   0.80412   0.44147   0.00000  Uiso   1.00
C616   C     0.54086   0.83081   0.42173   0.00000  Uiso   1.00
H617   H     0.57510   0.77362   0.07748   0.00000  Uiso   1.00
H618   H     0.58453   0.72609   0.35634   0.00000  Uiso   1.00
H619   H     0.61899   0.78647   0.39789   0.00000  Uiso   1.00
H620   H     0.58627   0.74516   0.43048   0.00000  Uiso   1.00
H621   H     0.63744   0.79110   0.46355   0.00000  Uiso   1.00
H622   H     0.51421   0.90694   0.13390   0.00000  Uiso   1.00
H623   H     0.55013   0.90476   0.07821   0.00000  Uiso   1.00
H624   H     0.50899   0.93901   0.09326   0.00000  Uiso   1.00
H625   H     0.47090   0.88929   0.06230   0.00000  Uiso   1.00
H626   H     0.45833   0.86379   0.11291   0.00000  Uiso   1.00
H627   H     0.35880   0.91427   0.47949   0.00000  Uiso   1.00
H628   H     0.46427   0.99854   0.29251   0.00000  Uiso   1.00
H629   H     0.33890   0.86245   0.46086   0.00000  Uiso   1.00
H630   H     0.64425   0.88653   0.01282   0.00000  Uiso   1.00
H631   H     0.35246   0.83321   0.02624   0.00000  Uiso   1.00
H632   H     0.37111   0.88455   0.04502   0.00000  Uiso   1.00
H633   H     0.64389   0.81870   0.14441   0.00000  Uiso   1.00
H634   H     0.66224   0.87442   0.14801   0.00000  Uiso   1.00
H635   H     0.36300   0.83890   0.11303   0.00000  Uiso   1.00
H636   H     0.38451   0.86097   0.18272   0.00000  Uiso   1.00
H637   H     0.37048   0.80566   0.17533   0.00000  Uiso   1.00
H638   H     0.41154   0.87565   0.42530   0.00000  Uiso   1.00
H639   H     0.42721   0.83332   0.04433   0.00000  Uiso   1.00
H640   H     0.55702   0.83815   0.38806   0.00000  Uiso   1.00
H641   H     0.65718   0.82105   0.33836   0.00000  Uiso   1.00
H642   H     0.56419   0.98505   0.16860   0.00000  Uiso   1.00
H643   H     0.53278   0.74180   0.38539   0.00000  Uiso   1.00
H644   H     0.57169   0.77594   0.34754   0.00000  Uiso   1.00
O645   O     0.50000   0.83333   0.25000   0.00000  Uiso   1.00
O646   O     0.48784   0.79304   0.15458   0.00000  Uiso   1.00
O647   O     0.46274   0.87058   0.34968   0.00000  Uiso   1.00
O648   O     0.54157   0.84425   0.14606   0.00000  Uiso   1.00
O649   O     0.50785   0.82546   0.34968   0.00000  Uiso   1.00
O650   O     0.62728   0.86527   0.32446   0.00000  Uiso   1.00
O651   O     0.55596   0.71030   0.18916   0.00000  Uiso   1.00
O652   O     0.63076   0.75081   0.00927   0.00000  Uiso   1.00
O653   O     0.51264   0.74686   0.28213   0.00000  Uiso   1.00
O654   O     0.47965   0.92751   0.27013   0.00000  Uiso   1.00
O655   O     0.40745   0.79958   0.23413   0.00000  Uiso   1.00
O656   O     0.60026   0.85939   0.21360   0.00000  Uiso   1.00
O657   O     0.40405   0.85544   0.28213   0.00000  Uiso   1.00
O658   O     0.58824   0.81892   0.27013   0.00000  Uiso   1.00
O659   O     0.47093   0.73610   0.23413   0.00000  Uiso   1.00
O660   O     0.53678   0.92286   0.21360   0.00000  Uiso   1.00
Zn661  Zn    0.52672   0.80661   0.28734   0.00000  Uiso   1.00
Zn662  Zn    0.46713   0.79124   0.21875   0.00000  Uiso   1.00
Zn663  Zn    0.54389   0.86442   0.20657   0.00000  Uiso   1.00
Zn664  Zn    0.46226   0.87106   0.28733   0.00000  Uiso   1.00
C665   C     0.71964   0.82709   0.26033   0.00000  Uiso   1.00
C666   C     0.83949   0.83525   0.05943   0.00000  Uiso   1.00
C667   C     0.89135   0.78808   0.05881   0.00000  Uiso   1.00
C668   C     0.94753   0.83886   0.23844   0.00000  Uiso   1.00
C669   C     0.80613   0.85569   0.41989   0.00000  Uiso   1.00
C670   C     0.99353   0.83599   0.23033   0.00000  Uiso   1.00
C671   C     0.67477   0.82979   0.26561   0.00000  Uiso   1.00
C672   C     0.84709   0.98915   0.23351   0.00000  Uiso   1.00
C673   C     0.82051   0.67881   0.26379   0.00000  Uiso   1.00
C674   C     0.82227   0.72288   0.26115   0.00000  Uiso   1.00
C675   C     0.84321   0.94462   0.23956   0.00000  Uiso   1.00
C676   C     0.74846   0.85765   0.48856   0.00000  Uiso   1.00
C677   C     0.85113   0.81638   0.12975   0.00000  Uiso   1.00
C678   C     0.81615   0.85189   0.37075   0.00000  Uiso   1.00
C679   C     0.90633   0.78847   0.01269   0.00000  Uiso   1.00
C680   C     0.85888   0.81158   0.08197   0.00000  Uiso   1.00
C681   C     0.76504   0.86539   0.44340   0.00000  Uiso   1.00
C682   C     0.98405   0.83769   0.31305   0.00000  Uiso   1.00
C683   C     0.88030   0.67294   0.19396   0.00000  Uiso   1.00
C684   C     0.91910   0.77207   0.41144   0.00000  Uiso   1.00
C685   C     0.90070   0.75299   0.37290   0.00000  Uiso   1.00
C686   C     0.95012   0.77648   0.49266   0.00000  Uiso   1.00
C687   C     0.77452   0.84209   0.01042   0.00000  Uiso   1.00
C688   C     0.81819   0.87348   0.08364   0.00000  Uiso   1.00
C689   C     0.85002   0.90772   0.09799   0.00000  Uiso   1.00
C690   C     0.70299   0.86385   0.01487   0.00000  Uiso   1.00
C691   C     0.67649   0.88297   0.49021   0.00000  Uiso   1.00
C692   C     0.69067   0.83612   0.18323   0.00000  Uiso   1.00
C693   C     0.67167   0.84247   0.14514   0.00000  Uiso   1.00
C694   C     0.81799   0.83802   0.48953   0.00000  Uiso   1.00
C695   C     0.83332   0.84259   0.44336   0.00000  Uiso   1.00
C696   C     0.84583   0.82630   0.01295   0.00000  Uiso   1.00
C697   C     0.88196   0.80548   0.48864   0.00000  Uiso   1.00
C698   C     0.89265   0.80412   0.44147   0.00000  Uiso   1.00
C699   C     0.87419   0.83081   0.42173   0.00000  Uiso   1.00
H700   H     0.90844   0.77362   0.07748   0.00000  Uiso   1.00
H701   H     0.91787   0.72609   0.35634   0.00000  Uiso   1.00
H702   H     0.95232   0.78647   0.39789   0.00000  Uiso   1.00
H703   H     0.91960   0.74516   0.43048   0.00000  Uiso   1.00
H704   H     0.97077   0.79110   0.46355   0.00000  Uiso   1.00
H705   H     0.84754   0.90694   0.13390   0.00000  Uiso   1.00
H706   H     0.88347   0.90476   0.07821   0.00000  Uiso   1.00
H707   H     0.84232   0.93901   0.09326   0.00000  Uiso   1.00
H708   H     0.80423   0.88929   0.06230   0.00000  Uiso   1.00
H709   H     0.79167   0.86379   0.11291   0.00000  Uiso   1.00
H710   H     0.69213   0.91427   0.47949   0.00000  Uiso   1.00
H711   H     0.79761   0.99854   0.29251   0.00000  Uiso   1.00
H712   H     0.67224   0.86245   0.46086   0.00000  Uiso   1.00
H713   H     0.97758   0.88653   0.01282   0.00000  Uiso   1.00
H714   H     0.68580   0.83321   0.02624   0.00000  Uiso   1.00
H715   H     0.70445   0.88455   0.04502   0.00000  Uiso   1.00
H716   H     0.97722   0.81870   0.14441   0.00000  Uiso   1.00
H717   H     0.99557   0.87442   0.14801   0.00000  Uiso   1.00
H718   H     0.69633   0.83890   0.11303   0.00000  Uiso   1.00
H719   H     0.71785   0.86097   0.18272   0.00000  Uiso   1.00
H720   H     0.70381   0.80566   0.17533   0.00000  Uiso   1.00
H721   H     0.74487   0.87565   0.42530   0.00000  Uiso   1.00
H722   H     0.76055   0.83332   0.04433   0.00000  Uiso   1.00
H723   H     0.89035   0.83815   0.38806   0.00000  Uiso   1.00
H724   H     0.99052   0.82105   0.33836   0.00000  Uiso   1.00
H725   H     0.89752   0.98505   0.16860   0.00000  Uiso   1.00
H726   H     0.86612   0.74180   0.38539   0.00000  Uiso   1.00
H727   H     0.90502   0.77594   0.34754   0.00000  Uiso   1.00
O728   O     0.83333   0.83333   0.25000   0.00000  Uiso   1.00
O729   O     0.82118   0.79304   0.15458   0.00000  Uiso   1.00
O730   O     0.79607   0.87058   0.34968   0.00000  Uiso   1.00
O731   O     0.87491   0.84425   0.14606   0.00000  Uiso   1.00
O732   O     0.84118   0.82546   0.34968   0.00000  Uiso   1.00
O733   O     0.96061   0.86527   0.32446   0.00000  Uiso   1.00
O734   O     0.88930   0.71030   0.18916   0.00000  Uiso   1.00
O735   O     0.96410   0.75081   0.00927   0.00000  Uiso   1.00
O736   O     0.84597   0.74686   0.28213   0.00000  Uiso   1.00
O737   O     0.81298   0.92751   0.27013   0.00000  Uiso   1.00
O738   O     0.74078   0.79958   0.23413   0.00000  Uiso   1.00
O739   O     0.93360   0.85939   0.21360   0.00000  Uiso   1.00
O740   O     0.73738   0.85544   0.28213   0.00000  Uiso   1.00
O741   O     0.92158   0.81892   0.27013   0.00000  Uiso   1.00
O742   O     0.80426   0.73610   0.23413   0.00000  Uiso   1.00
O743   O     0.87012   0.92286   0.21360   0.00000  Uiso   1.00
Zn744  Zn    0.86005   0.80661   0.28734   0.00000  Uiso   1.00
Zn745  Zn    0.80046   0.79124   0.21875   0.00000  Uiso   1.00
Zn746  Zn    0.87723   0.86442   0.20657   0.00000  Uiso   1.00
Zn747  Zn    0.79560   0.87106   0.28733   0.00000  Uiso   1.00
C748   C     0.05297   0.16043   0.76033   0.00000  Uiso   1.00
C749   C     0.17282   0.16859   0.55943   0.00000  Uiso   1.00
C750   C     0.22468   0.12141   0.55881   0.00000  Uiso   1.00
C751   C     0.28086   0.17219   0.73844   0.00000  Uiso   1.00
C752   C     0.13946   0.18902   0.91989   0.00000  Uiso   1.00
C753   C     0.32686   0.16932   0.73033   0.00000  Uiso   1.00
C754   C     0.00810   0.16313   0.76561   0.00000  Uiso   1.00
C755   C     0.18042   0.32248   0.73351   0.00000  Uiso   1.00
C756   C     0.15384   0.01214   0.76379   0.00000  Uiso   1.00
C757   C     0.15560   0.05622   0.76115   0.00000  Uiso   1.00
C758   C     0.17654   0.27796   0.73956   0.00000  Uiso   1.00
C759   C     0.08179   0.19098   0.98856   0.00000  Uiso   1.00
C760   C     0.18447   0.14972   0.62975   0.00000  Uiso   1.00
C761   C     0.14948   0.18522   0.87075   0.00000  Uiso   1.00
C762   C     0.23966   0.12180   0.51269   0.00000  Uiso   1.00
C763   C     0.19221   0.14491   0.58197   0.00000  Uiso   1.00
C764   C     0.09837   0.19872   0.94340   0.00000  Uiso   1.00
C765   C     0.31738   0.17102   0.81305   0.00000  Uiso   1.00
C766   C     0.21363   0.00627   0.69396   0.00000  Uiso   1.00
C767   C     0.25243   0.10540   0.91144   0.00000  Uiso   1.00
C768   C     0.23403   0.08633   0.87290   0.00000  Uiso   1.00
C769   C     0.28345   0.10981   0.99266   0.00000  Uiso   1.00
C770   C     0.10785   0.17543   0.51042   0.00000  Uiso   1.00
C771   C     0.15153   0.20681   0.58364   0.00000  Uiso   1.00
C772   C     0.18335   0.24106   0.59799   0.00000  Uiso   1.00
C773   C     0.03633   0.19719   0.51487   0.00000  Uiso   1.00
C774   C     0.00982   0.21631   0.99021   0.00000  Uiso   1.00
C775   C     0.02400   0.16945   0.68323   0.00000  Uiso   1.00
C776   C     0.00501   0.17580   0.64514   0.00000  Uiso   1.00
C777   C     0.15132   0.17135   0.98953   0.00000  Uiso   1.00
C778   C     0.16665   0.17592   0.94336   0.00000  Uiso   1.00
C779   C     0.17916   0.15963   0.51295   0.00000  Uiso   1.00
C780   C     0.21529   0.13882   0.98864   0.00000  Uiso   1.00
C781   C     0.22598   0.13745   0.94147   0.00000  Uiso   1.00
C782   C     0.20752   0.16414   0.92173   0.00000  Uiso   1.00
H783   H     0.24177   0.10695   0.57748   0.00000  Uiso   1.00
H784   H     0.25120   0.05942   0.85634   0.00000  Uiso   1.00
H785   H     0.28565   0.11981   0.89789   0.00000  Uiso   1.00
H786   H     0.25294   0.07849   0.93048   0.00000  Uiso   1.00
H787   H     0.30410   0.12443   0.96355   0.00000  Uiso   1.00
H788   H     0.18088   0.24027   0.63390   0.00000  Uiso   1.00
H789   H     0.21680   0.23809   0.57821   0.00000  Uiso   1.00
H790   H     0.17566   0.27235   0.59326   0.00000  Uiso   1.00
H791   H     0.13757   0.22263   0.56230   0.00000  Uiso   1.00
H792   H     0.12500   0.19713   0.61291   0.00000  Uiso   1.00
H793   H     0.02546   0.24760   0.97949   0.00000  Uiso   1.00
H794   H     0.13094   0.33188   0.79251   0.00000  Uiso   1.00
H795   H     0.00557   0.19578   0.96086   0.00000  Uiso   1.00
H796   H     0.31092   0.21986   0.51282   0.00000  Uiso   1.00
H797   H     0.01913   0.16655   0.52624   0.00000  Uiso   1.00
H798   H     0.03778   0.21789   0.54502   0.00000  Uiso   1.00
H799   H     0.31056   0.15204   0.64441   0.00000  Uiso   1.00
H800   H     0.32891   0.20775   0.64801   0.00000  Uiso   1.00
H801   H     0.02967   0.17223   0.61303   0.00000  Uiso   1.00
H802   H     0.05118   0.19430   0.68272   0.00000  Uiso   1.00
H803   H     0.03715   0.13900   0.67533   0.00000  Uiso   1.00
H804   H     0.07821   0.20898   0.92530   0.00000  Uiso   1.00
H805   H     0.09388   0.16665   0.54433   0.00000  Uiso   1.00
H806   H     0.22368   0.17148   0.88806   0.00000  Uiso   1.00
H807   H     0.32385   0.15438   0.83836   0.00000  Uiso   1.00
H808   H     0.23086   0.31838   0.66860   0.00000  Uiso   1.00
H809   H     0.19945   0.07513   0.88539   0.00000  Uiso   1.00
H810   H     0.23835   0.10928   0.84754   0.00000  Uiso   1.00
O811   O     0.16667   0.16667   0.75000   0.00000  Uiso   1.00
O812   O     0.15451   0.12637   0.65458   0.00000  Uiso   1.00
O813   O     0.12940   0.20391   0.84968   0.00000  Uiso   1.00
O814   O     0.20824   0.17759   0.64606   0.00000  Uiso   1.00
O815   O     0.17451   0.15880   0.84968   0.00000  Uiso   1.00
O816   O     0.29394   0.19860   0.82446   0.00000  Uiso   1.00
O817   O     0.22263   0.04363   0.68916   0.00000  Uiso   1.00
O818   O     0.29743   0.08415   0.50927   0.00000  Uiso   1.00
O819   O     0.17930   0.08019   0.78213   0.00000  Uiso   1.00
O820   O     0.14632   0.26085   0.77013   0.00000  Uiso   1.00
O821   O     0.07412   0.13291   0.73413   0.00000  Uiso   1.00
O822   O     0.26693   0.19272   0.71360   0.00000  Uiso   1.00
O823   O     0.07071   0.18878   0.78213   0.00000  Uiso   1.00
O824   O     0.25491   0.15226   0.77013   0.00000  Uiso   1.00
O825   O     0.13760   0.06944   0.73413   0.00000  Uiso   1.00
O826   O     0.20345   0.25620   0.71360   0.00000  Uiso   1.00
Zn827  Zn    0.19338   0.13994   0.78734   0.00000  Uiso   1.00
Zn828  Zn    0.13379   0.12458   0.71875   0.00000  Uiso   1.00
Zn829  Zn    0.21056   0.19775   0.70657   0.00000  Uiso   1.00
Zn830  Zn    0.12893   0.20439   0.78733   0.00000  Uiso   1.00
C831   C     0.38630   0.16043   0.76033   0.00000  Uiso   1.00
C832   C     0.50616   0.16859   0.55943   0.00000  Uiso   1.00
C833   C     0.55801   0.12141   0.55881   0.00000  Uiso   1.00
C834   C     0.61419   0.17219   0.73844   0.00000  Uiso   1.00
C835   C     0.47280   0.18902   0.91989   0.00000  Uiso   1.00
C836   C     0.66020   0.16932   0.73033   0.00000  Uiso   1.00
C837   C     0.34143   0.16313   0.76561   0.00000  Uiso   1.00
C838   C     0.51375   0.32248   0.73351   0.00000  Uiso   1.00
C839   C     0.48717   0.01214   0.76379   0.00000  Uiso   1.00
C840   C     0.48893   0.05622   0.76115   0.00000  Uiso   1.00
C841   C     0.50987   0.27796   0.73956   0.00000  Uiso   1.00
C842   C     0.41513   0.19098   0.98856   0.00000  Uiso   1.00
C843   C     0.51780   0.14972   0.62975   0.00000  Uiso   1.00
C844   C     0.48282   0.18522   0.87075   0.00000  Uiso   1.00
C845   C     0.57300   0.12180   0.51269   0.00000  Uiso   1.00
C846   C     0.52555   0.14491   0.58197   0.00000  Uiso   1.00
C847   C     0.43170   0.19872   0.94340   0.00000  Uiso   1.00
C848   C     0.65071   0.17102   0.81305   0.00000  Uiso   1.00
C849   C     0.54696   0.00627   0.69396   0.00000  Uiso   1.00
C850   C     0.58576   0.10540   0.91144   0.00000  Uiso   1.00
C851   C     0.56736   0.08633   0.87290   0.00000  Uiso   1.00
C852   C     0.61678   0.10981   0.99266   0.00000  Uiso   1.00
C853   C     0.44118   0.17543   0.51042   0.00000  Uiso   1.00
C854   C     0.48486   0.20681   0.58364   0.00000  Uiso   1.00
C855   C     0.51668   0.24106   0.59799   0.00000  Uiso   1.00
C856   C     0.36966   0.19719   0.51487   0.00000  Uiso   1.00
C857   C     0.34315   0.21631   0.99021   0.00000  Uiso   1.00
C858   C     0.35733   0.16945   0.68323   0.00000  Uiso   1.00
C859   C     0.33834   0.17580   0.64514   0.00000  Uiso   1.00
C860   C     0.48466   0.17135   0.98953   0.00000  Uiso   1.00
C861   C     0.49999   0.17592   0.94336   0.00000  Uiso   1.00
C862   C     0.51249   0.15963   0.51295   0.00000  Uiso   1.00
C863   C     0.54863   0.13882   0.98864   0.00000  Uiso   1.00
C864   C     0.55931   0.13745   0.94147   0.00000  Uiso   1.00
C865   C     0.54086   0.16414   0.92173   0.00000  Uiso   1.00
H866   H     0.57510   0.10695   0.57748   0.00000  Uiso   1.00
H867   H     0.58453   0.05942   0.85634   0.00000  Uiso   1.00
H868   H     0.61899   0.11981   0.89789   0.00000  Uiso   1.00
H869   H     0.58627   0.07849   0.93048   0.00000  Uiso   1.00
H870   H     0.63744   0.12443   0.96355   0.00000  Uiso   1.00
H871   H     0.51421   0.24027   0.63390   0.00000  Uiso   1.00
H872   H     0.55013   0.23809   0.57821   0.00000  Uiso   1.00
H873   H     0.50899   0.27235   0.59326   0.00000  Uiso   1.00
H874   H     0.47090   0.22263   0.56230   0.00000  Uiso   1.00
H875   H     0.45833   0.19713   0.61291   0.00000  Uiso   1.00
H876   H     0.35880   0.24760   0.97949   0.00000  Uiso   1.00
H877   H     0.46427   0.33188   0.79251   0.00000  Uiso   1.00
H878   H     0.33890   0.19578   0.96086   0.00000  Uiso   1.00
H879   H     0.64425   0.21986   0.51282   0.00000  Uiso   1.00
H880   H     0.35246   0.16655   0.52624   0.00000  Uiso   1.00
H881   H     0.37111   0.21789   0.54502   0.00000  Uiso   1.00
H882   H     0.64389   0.15204   0.64441   0.00000  Uiso   1.00
H883   H     0.66224   0.20775   0.64801   0.00000  Uiso   1.00
H884   H     0.36300   0.17223   0.61303   0.00000  Uiso   1.00
H885   H     0.38451   0.19430   0.68272   0.00000  Uiso   1.00
H886   H     0.37048   0.13900   0.67533   0.00000  Uiso   1.00
H887   H     0.41154   0.20898   0.92530   0.00000  Uiso   1.00
H888   H     0.42721   0.16665   0.54433   0.00000  Uiso   1.00
H889   H     0.55702   0.17148   0.88806   0.00000  Uiso   1.00
H890   H     0.65718   0.15438   0.83836   0.00000  Uiso   1.00
H891   H     0.56419   0.31838   0.66860   0.00000  Uiso   1.00
H892   H     0.53278   0.07513   0.88539   0.00000  Uiso   1.00
H893   H     0.57169   0.10928   0.84754   0.00000  Uiso   1.00
O894   O     0.50000   0.16667   0.75000   0.00000  Uiso   1.00
O895   O     0.48784   0.12637   0.65458   0.00000  Uiso   1.00
O896   O     0.46274   0.20391   0.84968   0.00000  Uiso   1.00
O897   O     0.54157   0.17759   0.64606   0.00000  Uiso   1.00
O898   O     0.50785   0.15880   0.84968   0.00000  Uiso   1.00
O899   O     0.62728   0.19860   0.82446   0.00000  Uiso   1.00
O900   O     0.55596   0.04363   0.68916   0.00000  Uiso   1.00
O901   O     0.63076   0.08415   0.50927   0.00000  Uiso   1.00
O902   O     0.51264   0.08019   0.78213   0.00000  Uiso   1.00
O903   O     0.47965   0.26085   0.77013   0.00000  Uiso   1.00
O904   O     0.40745   0.13291   0.73413   0.00000  Uiso   1.00
O905   O     0.60026   0.19272   0.71360   0.00000  Uiso   1.00
O906   O     0.40405   0.18878   0.78213   0.00000  Uiso   1.00
O907   O     0.58824   0.15226   0.77013   0.00000  Uiso   1.00
O908   O     0.47093   0.06944   0.73413   0.00000  Uiso   1.00
O909   O     0.53678   0.25620   0.71360   0.00000  Uiso   1.00
Zn910  Zn    0.52672   0.13994   0.78734   0.00000  Uiso   1.00
Zn911  Zn    0.46713   0.12458   0.71875   0.00000  Uiso   1.00
Zn912  Zn    0.54389   0.19775   0.70657   0.00000  Uiso   1.00
Zn913  Zn    0.46226   0.20439   0.78733   0.00000  Uiso   1.00
C914   C     0.71964   0.16043   0.76033   0.00000  Uiso   1.00
C915   C     0.83949   0.16859   0.55943   0.00000  Uiso   1.00
C916   C     0.89135   0.12141   0.55881   0.00000  Uiso   1.00
C917   C     0.94753   0.17219   0.73844   0.00000  Uiso   1.00
C918   C     0.80613   0.18902   0.91989   0.00000  Uiso   1.00
C919   C     0.99353   0.16932   0.73033   0.00000  Uiso   1.00
C920   C     0.67477   0.16313   0.76561   0.00000  Uiso   1.00
C921   C     0.84709   0.32248   0.73351   0.00000  Uiso   1.00
C922   C     0.82051   0.01214   0.76379   0.00000  Uiso   1.00
C923   C     0.82227   0.05622   0.76115   0.00000  Uiso   1.00
C924   C     0.84321   0.27796   0.73956   0.00000  Uiso   1.00
C925   C     0.74846   0.19098   0.98856   0.00000  Uiso   1.00
C926   C     0.85113   0.14972   0.62975   0.00000  Uiso   1.00
C927   C     0.81615   0.18522   0.87075   0.00000  Uiso   1.00
C928   C     0.90633   0.12180   0.51269   0.00000  Uiso   1.00
C929   C     0.85888   0.14491   0.58197   0.00000  Uiso   1.00
C930   C     0.76504   0.19872   0.94340   0.00000  Uiso   1.00
C931   C     0.98405   0.17102   0.81305   0.00000  Uiso   1.00
C932   C     0.88030   0.00627   0.69396   0.00000  Uiso   1.00
C933   C     0.91910   0.10540   0.91144   0.00000  Uiso   1.00
C934   C     0.90070   0.08633   0.87290   0.00000  Uiso   1.00
C935   C     0.95012   0.10981   0.99266   0.00000  Uiso   1.00
C936   C     0.77452   0.17543   0.51042   0.00000  Uiso   1.00
C937   C     0.81819   0.20681   0.58364   0.00000  Uiso   1.00
C938   C     0.85002   0.24106   0.59799   0.00000  Uiso   1.00
C939   C     0.70299   0.19719   0.51487   0.00000  Uiso   1.00
C940   C     0.67649   0.21631   0.99021   0.00000  Uiso   1.00
C941   C     0.69067   0.16945   0.68323   0.00000  Uiso   1.00
C942   C     0.67167   0.17580   0.64514   0.00000  Uiso   1.00
C943   C     0.81799   0.17135   0.98953   0.00000  Uiso   1.00
C944   C     0.83332   0.17592   0.94336   0.00000  Uiso   1.00
C945   C     0.84583   0.15963   0.51295   0.00000  Uiso   1.00
C946   C     0.88196   0.13882   0.98864   0.00000  Uiso   1.00
C947   C     0.89265   0.13745   0.94147   0.00000  Uiso   1.00
C948   C     0.87419   0.16414   0.92173   0.00000  Uiso   1.00
H949   H     0.90844   0.10695   0.57748   0.00000  Uiso   1.00
H950   H     0.91787   0.05942   0.85634   0.00000  Uiso   1.00
H951   H     0.95232   0.11981   0.89789   0.00000  Uiso   1.00
H952   H     0.91960   0.07849   0.93048   0.00000  Uiso   1.00
H953   H     0.97077   0.12443   0.96355   0.00000  Uiso   1.00
H954   H     0.84754   0.24027   0.63390   0.00000  Uiso   1.00
H955   H     0.88347   0.23809   0.57821   0.00000  Uiso   1.00
H956   H     0.84232   0.27235   0.59326   0.00000  Uiso   1.00
H957   H     0.80423   0.22263   0.56230   0.00000  Uiso   1.00
H958   H     0.79167   0.19713   0.61291   0.00000  Uiso   1.00
H959   H     0.69213   0.24760   0.97949   0.00000  Uiso   1.00
H960   H     0.79761   0.33188   0.79251   0.00000  Uiso   1.00
H961   H     0.67224   0.19578   0.96086   0.00000  Uiso   1.00
H962   H     0.97758   0.21986   0.51282   0.00000  Uiso   1.00
H963   H     0.68580   0.16655   0.52624   0.00000  Uiso   1.00
H964   H     0.70445   0.21789   0.54502   0.00000  Uiso   1.00
H965   H     0.97722   0.15204   0.64441   0.00000  Uiso   1.00
H966   H     0.99557   0.20775   0.64801   0.00000  Uiso   1.00
H967   H     0.69633   0.17223   0.61303   0.00000  Uiso   1.00
H968   H     0.71785   0.19430   0.68272   0.00000  Uiso   1.00
H969   H     0.70381   0.13900   0.67533   0.00000  Uiso   1.00
H970   H     0.74487   0.20898   0.92530   0.00000  Uiso   1.00
H971   H     0.76055   0.16665   0.54433   0.00000  Uiso   1.00
H972   H     0.89035   0.17148   0.88806   0.00000  Uiso   1.00
H973   H     0.99052   0.15438   0.83836   0.00000  Uiso   1.00
H974   H     0.89752   0.31838   0.66860   0.00000  Uiso   1.00
H975   H     0.86612   0.07513   0.88539   0.00000  Uiso   1.00
H976   H     0.90502   0.10928   0.84754   0.00000  Uiso   1.00
O977   O     0.83333   0.16667   0.75000   0.00000  Uiso   1.00
O978   O     0.82118   0.12637   0.65458   0.00000  Uiso   1.00
O979   O     0.79607   0.20391   0.84968   0.00000  Uiso   1.00
O980   O     0.87491   0.17759   0.64606   0.00000  Uiso   1.00
O981   O     0.84118   0.15880   0.84968   0.00000  Uiso   1.00
O982   O     0.96061   0.19860   0.82446   0.00000  Uiso   1.00
O983   O     0.88930   0.04363   0.68916   0.00000  Uiso   1.00
O984   O     0.96410   0.08415   0.50927   0.00000  Uiso   1.00
O985   O     0.84597   0.08019   0.78213   0.00000  Uiso   1.00
O986   O     0.81298   0.26085   0.77013   0.00000  Uiso   1.00
O987   O     0.74078   0.13291   0.73413   0.00000  Uiso   1.00
O988   O     0.93360   0.19272   0.71360   0.00000  Uiso   1.00
O989   O     0.73738   0.18878   0.78213   0.00000  Uiso   1.00
O990   O     0.92158   0.15226   0.77013   0.00000  Uiso   1.00
O991   O     0.80426   0.06944   0.73413   0.00000  Uiso   1.00
O992   O     0.87012   0.25620   0.71360   0.00000  Uiso   1.00
Zn993  Zn    0.86005   0.13994   0.78734   0.00000  Uiso   1.00
Zn994  Zn    0.80046   0.12458   0.71875   0.00000  Uiso   1.00
Zn995  Zn    0.87723   0.19775   0.70657   0.00000  Uiso   1.00
Zn996  Zn    0.79560   0.20439   0.78733   0.00000  Uiso   1.00
C997   C     0.05297   0.49376   0.76033   0.00000  Uiso   1.00
C998   C     0.17282   0.50192   0.55943   0.00000  Uiso   1.00
C999   C     0.22468   0.45474   0.55881   0.00000  Uiso   1.00
C1000  C     0.28086   0.50553   0.73844   0.00000  Uiso   1.00
C1001  C     0.13946   0.52235   0.91989   0.00000  Uiso   1.00
C1002  C     0.32686   0.50266   0.73033   0.00000  Uiso   1.00
C1003  C     0.00810   0.49646   0.76561   0.00000  Uiso   1.00
C1004  C     0.18042   0.65581   0.73351   0.00000  Uiso   1.00
C1005  C     0.15384   0.34548   0.76379   0.00000  Uiso   1.00
C1006  C     0.15560   0.38955   0.76115   0.00000  Uiso   1.00
C1007  C     0.17654   0.61129   0.73956   0.00000  Uiso   1.00
C1008  C     0.08179   0.52431   0.98856   0.00000  Uiso   1.00
C1009  C     0.18447   0.48305   0.62975   0.00000  Uiso   1.00
C1010  C     0.14948   0.51856   0.87075   0.00000  Uiso   1.00
C1011  C     0.23966   0.45513   0.51269   0.00000  Uiso   1.00
C1012  C     0.19221   0.47825   0.58197   0.00000  Uiso   1.00
C1013  C     0.09837   0.53205   0.94340   0.00000  Uiso   1.00
C1014  C     0.31738   0.50436   0.81305   0.00000  Uiso   1.00
C1015  C     0.21363   0.33961   0.69396   0.00000  Uiso   1.00
C1016  C     0.25243   0.43873   0.91144   0.00000  Uiso   1.00
C1017  C     0.23403   0.41966   0.87290   0.00000  Uiso   1.00
C1018  C     0.28345   0.44315   0.99266   0.00000  Uiso   1.00
C1019  C     0.10785   0.50876   0.51042   0.00000  Uiso   1.00
C1020  C     0.15153   0.54014   0.58364   0.00000  Uiso   1.00
C1021  C     0.18335   0.57439   0.59799   0.00000  Uiso   1.00
C1022  C     0.03633   0.53052   0.51487   0.00000  Uiso   1.00
C1023  C     0.00982   0.54964   0.99021   0.00000  Uiso   1.00
C1024  C     0.02400   0.50278   0.68323   0.00000  Uiso   1.00
C1025  C     0.00501   0.50914   0.64514   0.00000  Uiso   1.00
C1026  C     0.15132   0.50468   0.98953   0.00000  Uiso   1.00
C1027  C     0.16665   0.50925   0.94336   0.00000  Uiso   1.00
C1028  C     0.17916   0.49297   0.51295   0.00000  Uiso   1.00
C1029  C     0.21529   0.47215   0.98864   0.00000  Uiso   1.00
C1030  C     0.22598   0.47078   0.94147   0.00000  Uiso   1.00
C1031  C     0.20752   0.49748   0.92173   0.00000  Uiso   1.00
H1032  H     0.24177   0.44029   0.57748   0.00000  Uiso   1.00
H1033  H     0.25120   0.39276   0.85634   0.00000  Uiso   1.00
H1034  H     0.28565   0.45314   0.89789   0.00000  Uiso   1.00
H1035  H     0.25294   0.41183   0.93048   0.00000  Uiso   1.00
H1036  H     0.30410   0.45776   0.96355   0.00000  Uiso   1.00
H1037  H     0.18088   0.57361   0.63390   0.00000  Uiso   1.00
H1038  H     0.21680   0.57143   0.57821   0.00000  Uiso   1.00
H1039  H     0.17566   0.60568   0.59326   0.00000  Uiso   1.00
H1040  H     0.13757   0.55596   0.56230   0.00000  Uiso   1.00
H1041  H     0.12500   0.53046   0.61291   0.00000  Uiso   1.00
H1042  H     0.02546   0.58094   0.97949   0.00000  Uiso   1.00
H1043  H     0.13094   0.66521   0.79251   0.00000  Uiso   1.00
H1044  H     0.00557   0.52912   0.96086   0.00000  Uiso   1.00
H1045  H     0.31092   0.55319   0.51282   0.00000  Uiso   1.00
H1046  H     0.01913   0.49988   0.52624   0.00000  Uiso   1.00
H1047  H     0.03778   0.55122   0.54502   0.00000  Uiso   1.00
H1048  H     0.31056   0.48537   0.64441   0.00000  Uiso   1.00
H1049  H     0.32891   0.54109   0.64801   0.00000  Uiso   1.00
H1050  H     0.02967   0.50557   0.61303   0.00000  Uiso   1.00
H1051  H     0.05118   0.52764   0.68272   0.00000  Uiso   1.00
H1052  H     0.03715   0.47233   0.67533   0.00000  Uiso   1.00
H1053  H     0.07821   0.54232   0.92530   0.00000  Uiso   1.00
H1054  H     0.09388   0.49998   0.54433   0.00000  Uiso   1.00
H1055  H     0.22368   0.50481   0.88806   0.00000  Uiso   1.00
H1056  H     0.32385   0.48772   0.83836   0.00000  Uiso   1.00
H1057  H     0.23086   0.65171   0.66860   0.00000  Uiso   1.00
H1058  H     0.19945   0.40847   0.88539   0.00000  Uiso   1.00
H1059  H     0.23835   0.44261   0.84754   0.00000  Uiso   1.00
O1060  O     0.16667   0.50000   0.75000   0.00000  Uiso   1.00
O1061  O     0.15451   0.45970   0.65458   0.00000  Uiso   1.00
O1062  O     0.12940   0.53724   0.84968   0.00000  Uiso   1.00
O1063  O     0.20824   0.51092   0.64606   0.00000  Uiso   1.00
O1064  O     0.17451   0.49213   0.84968   0.00000  Uiso   1.00
O1065  O     0.29394   0.53193   0.82446   0.00000  Uiso   1.00
O1066  O     0.22263   0.37696   0.68916   0.00000  Uiso   1.00
O1067  O     0.29743   0.41748   0.50927   0.00000  Uiso   1.00
O1068  O     0.17930   0.41352   0.78213   0.00000  Uiso   1.00
O1069  O     0.14632   0.59418   0.77013   0.00000  Uiso   1.00
O1070  O     0.07412   0.46625   0.73413   0.00000  Uiso   1.00
O1071  O     0.26693   0.52605   0.71360   0.00000  Uiso   1.00
O1072  O     0.07071   0.52211   0.78213   0.00000  Uiso   1.00
O1073  O     0.25491   0.48559   0.77013   0.00000  Uiso   1.00
O1074  O     0.13760   0.40277   0.73413   0.00000  Uiso   1.00
O1075  O     0.20345   0.58953   0.71360   0.00000  Uiso   1.00
Zn1076 Zn    0.19338   0.47327   0.78734   0.00000  Uiso   1.00
Zn1077 Zn    0.13379   0.45791   0.71875   0.00000  Uiso   1.00
Zn1078 Zn    0.21056   0.53109   0.70657   0.00000  Uiso   1.00
Zn1079 Zn    0.12893   0.53773   0.78733   0.00000  Uiso   1.00
C1080  C     0.38630   0.49376   0.76033   0.00000  Uiso   1.00
C1081  C     0.50616   0.50192   0.55943   0.00000  Uiso   1.00
C1082  C     0.55801   0.45474   0.55881   0.00000  Uiso   1.00
C1083  C     0.61419   0.50553   0.73844   0.00000  Uiso   1.00
C1084  C     0.47280   0.52235   0.91989   0.00000  Uiso   1.00
C1085  C     0.66020   0.50266   0.73033   0.00000  Uiso   1.00
C1086  C     0.34143   0.49646   0.76561   0.00000  Uiso   1.00
C1087  C     0.51375   0.65581   0.73351   0.00000  Uiso   1.00
C1088  C     0.48717   0.34548   0.76379   0.00000  Uiso   1.00
C1089  C     0.48893   0.38955   0.76115   0.00000  Uiso   1.00
C1090  C     0.50987   0.61129   0.73956   0.00000  Uiso   1.00
C1091  C     0.41513   0.52431   0.98856   0.00000  Uiso   1.00
C1092  C     0.51780   0.48305   0.62975   0.00000  Uiso   1.00
C1093  C     0.48282   0.51856   0.87075   0.00000  Uiso   1.00
C1094  C     0.57300   0.45513   0.51269   0.00000  Uiso   1.00
C1095  C     0.52555   0.47825   0.58197   0.00000  Uiso   1.00
C1096  C     0.43170   0.53205   0.94340   0.00000  Uiso   1.00
C1097  C     0.65071   0.50436   0.81305   0.00000  Uiso   1.00
C1098  C     0.54696   0.33961   0.69396   0.00000  Uiso   1.00
C1099  C     0.58576   0.43873   0.91144   0.00000  Uiso   1.00
C1100  C     0.56736   0.41966   0.87290   0.00000  Uiso   1.00
C1101  C     0.61678   0.44315   0.99266   0.00000  Uiso   1.00
C1102  C     0.44118   0.50876   0.51042   0.00000  Uiso   1.00
C1103  C     0.48486   0.54014   0.58364   0.00000  Uiso   1.00
C1104  C     0.51668   0.57439   0.59799   0.00000  Uiso   1.00
C1105  C     0.36966   0.53052   0.51487   0.00000  Uiso   1.00
C1106  C     0.34315   0.54964   0.99021   0.00000  Uiso   1.00
C1107  C     0.35733   0.50278   0.68323   0.00000  Uiso   1.00
C1108  C     0.33834   0.50914   0.64514   0.00000  Uiso   1.00
C1109  C     0.48466   0.50468   0.98953   0.00000  Uiso   1.00
C1110  C     0.49999   0.50925   0.94336   0.00000  Uiso   1.00
C1111  C     0.51249   0.49297   0.51295   0.00000  Uiso   1.00
C1112  C     0.54863   0.47215   0.98864   0.00000  Uiso   1.00
C1113  C     0.55931   0.47078   0.94147   0.00000  Uiso   1.00
C1114  C     0.54086   0.49748   0.92173   0.00000  Uiso   1.00
H1115  H     0.57510   0.44029   0.57748   0.00000  Uiso   1.00
H1116  H     0.58453   0.39276   0.85634   0.00000  Uiso   1.00
H1117  H     0.61899   0.45314   0.89789   0.00000  Uiso   1.00
H1118  H     0.58627   0.41183   0.93048   0.00000  Uiso   1.00
H1119  H     0.63744   0.45776   0.96355   0.00000  Uiso   1.00
H1120  H     0.51421   0.57361   0.63390   0.00000  Uiso   1.00
H1121  H     0.55013   0.57143   0.57821   0.00000  Uiso   1.00
H1122  H     0.50899   0.60568   0.59326   0.00000  Uiso   1.00
H1123  H     0.47090   0.55596   0.56230   0.00000  Uiso   1.00
H1124  H     0.45833   0.53046   0.61291   0.00000  Uiso   1.00
H1125  H     0.35880   0.58094   0.97949   0.00000  Uiso   1.00
H1126  H     0.46427   0.66521   0.79251   0.00000  Uiso   1.00
H1127  H     0.33890   0.52912   0.96086   0.00000  Uiso   1.00
H1128  H     0.64425   0.55319   0.51282   0.00000  Uiso   1.00
H1129  H     0.35246   0.49988   0.52624   0.00000  Uiso   1.00
H1130  H     0.37111   0.55122   0.54502   0.00000  Uiso   1.00
H1131  H     0.64389   0.48537   0.64441   0.00000  Uiso   1.00
H1132  H     0.66224   0.54109   0.64801   0.00000  Uiso   1.00
H1133  H     0.36300   0.50557   0.61303   0.00000  Uiso   1.00
H1134  H     0.38451   0.52764   0.68272   0.00000  Uiso   1.00
H1135  H     0.37048   0.47233   0.67533   0.00000  Uiso   1.00
H1136  H     0.41154   0.54232   0.92530   0.00000  Uiso   1.00
H1137  H     0.42721   0.49998   0.54433   0.00000  Uiso   1.00
H1138  H     0.55702   0.50481   0.88806   0.00000  Uiso   1.00
H1139  H     0.65718   0.48772   0.83836   0.00000  Uiso   1.00
H1140  H     0.56419   0.65171   0.66860   0.00000  Uiso   1.00
H1141  H     0.53278   0.40847   0.88539   0.00000  Uiso   1.00
H1142  H     0.57169   0.44261   0.84754   0.00000  Uiso   1.00
O1143  O     0.50000   0.50000   0.75000   0.00000  Uiso   1.00
O1144  O     0.48784   0.45970   0.65458   0.00000  Uiso   1.00
O1145  O     0.46274   0.53724   0.84968   0.00000  Uiso   1.00
O1146  O     0.54157   0.51092   0.64606   0.00000  Uiso   1.00
O1147  O     0.50785   0.49213   0.84968   0.00000  Uiso   1.00
O1148  O     0.62728   0.53193   0.82446   0.00000  Uiso   1.00
O1149  O     0.55596   0.37696   0.68916   0.00000  Uiso   1.00
O1150  O     0.63076   0.41748   0.50927   0.00000  Uiso   1.00
O1151  O     0.51264   0.41352   0.78213   0.00000  Uiso   1.00
O1152  O     0.47965   0.59418   0.77013   0.00000  Uiso   1.00
O1153  O     0.40745   0.46625   0.73413   0.00000  Uiso   1.00
O1154  O     0.60026   0.52605   0.71360   0.00000  Uiso   1.00
O1155  O     0.40405   0.52211   0.78213   0.00000  Uiso   1.00
O1156  O     0.58824   0.48559   0.77013   0.00000  Uiso   1.00
O1157  O     0.47093   0.40277   0.73413   0.00000  Uiso   1.00
O1158  O     0.53678   0.58953   0.71360   0.00000  Uiso   1.00
Zn1159 Zn    0.52672   0.47327   0.78734   0.00000  Uiso   1.00
Zn1160 Zn    0.46713   0.45791   0.71875   0.00000  Uiso   1.00
Zn1161 Zn    0.54389   0.53109   0.70657   0.00000  Uiso   1.00
Zn1162 Zn    0.46226   0.53773   0.78733   0.00000  Uiso   1.00
C1163  C     0.71964   0.49376   0.76033   0.00000  Uiso   1.00
C1164  C     0.83949   0.50192   0.55943   0.00000  Uiso   1.00
C1165  C     0.89135   0.45474   0.55881   0.00000  Uiso   1.00
C1166  C     0.94753   0.50553   0.73844   0.00000  Uiso   1.00
C1167  C     0.80613   0.52235   0.91989   0.00000  Uiso   1.00
C1168  C     0.99353   0.50266   0.73033   0.00000  Uiso   1.00
C1169  C     0.67477   0.49646   0.76561   0.00000  Uiso   1.00
C1170  C     0.84709   0.65581   0.73351   0.00000  Uiso   1.00
C1171  C     0.82051   0.34548   0.76379   0.00000  Uiso   1.00
C1172  C     0.82227   0.38955   0.76115   0.00000  Uiso   1.00
C1173  C     0.84321   0.61129   0.73956   0.00000  Uiso   1.00
C1174  C     0.74846   0.52431   0.98856   0.00000  Uiso   1.00
C1175  C     0.85113   0.48305   0.62975   0.00000  Uiso   1.00
C1176  C     0.81615   0.51856   0.87075   0.00000  Uiso   1.00
C1177  C     0.90633   0.45513   0.51269   0.00000  Uiso   1.00
C1178  C     0.85888   0.47825   0.58197   0.00000  Uiso   1.00
C1179  C     0.76504   0.53205   0.94340   0.00000  Uiso   1.00
C1180  C     0.98405   0.50436   0.81305   0.00000  Uiso   1.00
C1181  C     0.88030   0.33961   0.69396   0.00000  Uiso   1.00
C1182  C     0.91910   0.43873   0.91144   0.00000  Uiso   1.00
C1183  C     0.90070   0.41966   0.87290   0.00000  Uiso   1.00
C1184  C     0.95012   0.44315   0.99266   0.00000  Uiso   1.00
C1185  C     0.77452   0.50876   0.51042   0.00000  Uiso   1.00
C1186  C     0.81819   0.54014   0.58364   0.00000  Uiso   1.00
C1187  C     0.85002   0.57439   0.59799   0.00000  Uiso   1.00
C1188  C     0.70299   0.53052   0.51487   0.00000  Uiso   1.00
C1189  C     0.67649   0.54964   0.99021   0.00000  Uiso   1.00
C1190  C     0.69067   0.50278   0.68323   0.00000  Uiso   1.00
C1191  C     0.67167   0.50914   0.64514   0.00000  Uiso   1.00
C1192  C     0.81799   0.50468   0.98953   0.00000  Uiso   1.00
C1193  C     0.83332   0.50925   0.94336   0.00000  Uiso   1.00
C1194  C     0.84583   0.49297   0.51295   0.00000  Uiso   1.00
C1195  C     0.88196   0.47215   0.98864   0.00000  Uiso   1.00
C1196  C     0.89265   0.47078   0.94147   0.00000  Uiso   1.00
C1197  C     0.87419   0.49748   0.92173   0.00000  Uiso   1.00
H1198  H     0.90844   0.44029   0.57748   0.00000  Uiso   1.00
H1199  H     0.91787   0.39276   0.85634   0.00000  Uiso   1.00
H1200  H     0.95232   0.45314   0.89789   0.00000  Uiso   1.00
H1201  H     0.91960   0.41183   0.93048   0.00000  Uiso   1.00
H1202  H     0.97077   0.45776   0.96355   0.00000  Uiso   1.00
H1203  H     0.84754   0.57361   0.63390   0.00000  Uiso   1.00
H1204  H     0.88347   0.57143   0.57821   0.00000  Uiso   1.00
H1205  H     0.84232   0.60568   0.59326   0.00000  Uiso   1.00
H1206  H     0.80423   0.55596   0.56230   0.00000  Uiso   1.00
H1207  H     0.79167   0.53046   0.61291   0.00000  Uiso   1.00
H1208  H     0.69213   0.58094   0.97949   0.00000  Uiso   1.00
H1209  H     0.79761   0.66521   0.79251   0.00000  Uiso   1.00
H1210  H     0.67224   0.52912   0.96086   0.00000  Uiso   1.00
H1211  H     0.97758   0.55319   0.51282   0.00000  Uiso   1.00
H1212  H     0.68580   0.49988   0.52624   0.00000  Uiso   1.00
H1213  H     0.70445   0.55122   0.54502   0.00000  Uiso   1.00
H1214  H     0.97722   0.48537   0.64441   0.00000  Uiso   1.00
H1215  H     0.99557   0.54109   0.64801   0.00000  Uiso   1.00
H1216  H     0.69633   0.50557   0.61303   0.00000  Uiso   1.00
H1217  H     0.71785   0.52764   0.68272   0.00000  Uiso   1.00
H1218  H     0.70381   0.47233   0.67533   0.00000  Uiso   1.00
H1219  H     0.74487   0.54232   0.92530   0.00000  Uiso   1.00
H1220  H     0.76055   0.49998   0.54433   0.00000  Uiso   1.00
H1221  H     0.89035   0.50481   0.88806   0.00000  Uiso   1.00
H1222  H     0.99052   0.48772   0.83836   0.00000  Uiso   1.00
H1223  H     0.89752   0.65171   0.66860   0.00000  Uiso   1.00
H1224  H     0.86612   0.40847   0.88539   0.00000  Uiso   1.00
H1225  H     0.90502   0.44261   0.84754   0.00000  Uiso   1.00
O1226  O     0.83333   0.50000   0.75000   0.00000  Uiso   1.00
O1227  O     0.82118   0.45970   0.65458   0.00000  Uiso   1.00
O1228  O     0.79607   0.53724   0.84968   0.00000  Uiso   1.00
O1229  O     0.87491   0.51092   0.64606   0.00000  Uiso   1.00
O1230  O     0.84118   0.49213   0.84968   0.00000  Uiso   1.00
O1231  O     0.96061   0.53193   0.82446   0.00000  Uiso   1.00
O1232  O     0.88930   0.37696   0.68916   0.00000  Uiso   1.00
O1233  O     0.96410   0.41748   0.50927   0.00000  Uiso   1.00
O1234  O     0.84597   0.41352   0.78213   0.00000  Uiso   1.00
O1235  O     0.81298   0.59418   0.77013   0.00000  Uiso   1.00
O1236  O     0.74078   0.46625   0.73413   0.00000  Uiso   1.00
O1237  O     0.93360   0.52605   0.71360   0.00000  Uiso   1.00
O1238  O     0.73738   0.52211   0.78213   0.00000  Uiso   1.00
O1239  O     0.92158   0.48559   0.77013   0.00000  Uiso   1.00
O1240  O     0.80426   0.40277   0.73413   0.00000  Uiso   1.00
O1241  O     0.87012   0.58953   0.71360   0.00000  Uiso   1.00
Zn1242 Zn    0.86005   0.47327   0.78734   0.00000  Uiso   1.00
Zn1243 Zn    0.80046   0.45791   0.71875   0.00000  Uiso   1.00
Zn1244 Zn    0.87723   0.53109   0.70657   0.00000  Uiso   1.00
Zn1245 Zn    0.79560   0.53773   0.78733   0.00000  Uiso   1.00
C1246  C     0.05297   0.82709   0.76033   0.00000  Uiso   1.00
C1247  C     0.17282   0.83525   0.55943   0.00000  Uiso   1.00
C1248  C     0.22468   0.78808   0.55881   0.00000  Uiso   1.00
C1249  C     0.28086   0.83886   0.73844   0.00000  Uiso   1.00
C1250  C     0.13946   0.85569   0.91989   0.00000  Uiso   1.00
C1251  C     0.32686   0.83599   0.73033   0.00000  Uiso   1.00
C1252  C     0.00810   0.82979   0.76561   0.00000  Uiso   1.00
C1253  C     0.18042   0.98915   0.73351   0.00000  Uiso   1.00
C1254  C     0.15384   0.67881   0.76379   0.00000  Uiso   1.00
C1255  C     0.15560   0.72288   0.76115   0.00000  Uiso   1.00
C1256  C     0.17654   0.94462   0.73956   0.00000  Uiso   1.00
C1257  C     0.08179   0.85765   0.98856   0.00000  Uiso   1.00
C1258  C     0.18447   0.81638   0.62975   0.00000  Uiso   1.00
C1259  C     0.14948   0.85189   0.87075   0.00000  Uiso   1.00
C1260  C     0.23966   0.78847   0.51269   0.00000  Uiso   1.00
C1261  C     0.19221   0.81158   0.58197   0.00000  Uiso   1.00
C1262  C     0.09837   0.86539   0.94340   0.00000  Uiso   1.00
C1263  C     0.31738   0.83769   0.81305   0.00000  Uiso   1.00
C1264  C     0.21363   0.67294   0.69396   0.00000  Uiso   1.00
C1265  C     0.25243   0.77207   0.91144   0.00000  Uiso   1.00
C1266  C     0.23403   0.75299   0.87290   0.00000  Uiso   1.00
C1267  C     0.28345   0.77648   0.99266   0.00000  Uiso   1.00
C1268  C     0.10785   0.84209   0.51042   0.00000  Uiso   1.00
C1269  C     0.15153   0.87348   0.58364   0.00000  Uiso   1.00
C1270  C     0.18335   0.90772   0.59799   0.00000  Uiso   1.00
C1271  C     0.03633   0.86385   0.51487   0.00000  Uiso   1.00
C1272  C     0.00982   0.88297   0.99021   0.00000  Uiso   1.00
C1273  C     0.02400   0.83612   0.68323   0.00000  Uiso   1.00
C1274  C     0.00501   0.84247   0.64514   0.00000  Uiso   1.00
C1275  C     0.15132   0.83802   0.98953   0.00000  Uiso   1.00
C1276  C     0.16665   0.84259   0.94336   0.00000  Uiso   1.00
C1277  C     0.17916   0.82630   0.51295   0.00000  Uiso   1.00
C1278  C     0.21529   0.80548   0.98864   0.00000  Uiso   1.00
C1279  C     0.22598   0.80412   0.94147   0.00000  Uiso   1.00
C1280  C     0.20752   0.83081   0.92173   0.00000  Uiso   1.00
H1281  H     0.24177   0.77362   0.57748   0.00000  Uiso   1.00
H1282  H     0.25120   0.72609   0.85634   0.00000  Uiso   1.00
H1283  H     0.28565   0.78647   0.89789   0.00000  Uiso   1.00
H1284  H     0.25294   0.74516   0.93048   0.00000  Uiso   1.00
H1285  H     0.30410   0.79110   0.96355   0.00000  Uiso   1.00
H1286  H     0.18088   0.90694   0.63390   0.00000  Uiso   1.00
H1287  H     0.21680   0.90476   0.57821   0.00000  Uiso   1.00
H1288  H     0.17566   0.93901   0.59326   0.00000  Uiso   1.00
H1289  H     0.13757   0.88929   0.56230   0.00000  Uiso   1.00
H1290  H     0.12500   0.86379   0.61291   0.00000  Uiso   1.00
H1291  H     0.02546   0.91427   0.97949   0.00000  Uiso   1.00
H1292  H     0.13094   0.99854   0.79251   0.00000  Uiso   1.00
H1293  H     0.00557   0.86245   0.96086   0.00000  Uiso   1.00
H1294  H     0.31092   0.88653   0.51282   0.00000  Uiso   1.00
H1295  H     0.01913   0.83321   0.52624   0.00000  Uiso   1.00
H1296  H     0.03778   0.88455   0.54502   0.00000  Uiso   1.00
H1297  H     0.31056   0.81870   0.64441   0.00000  Uiso   1.00
H1298  H     0.32891   0.87442   0.64801   0.00000  Uiso   1.00
H1299  H     0.02967   0.83890   0.61303   0.00000  Uiso   1.00
H1300  H     0.05118   0.86097   0.68272   0.00000  Uiso   1.00
H1301  H     0.03715   0.80566   0.67533   0.00000  Uiso   1.00
H1302  H     0.07821   0.87565   0.92530   0.00000  Uiso   1.00
H1303  H     0.09388   0.83332   0.54433   0.00000  Uiso   1.00
H1304  H     0.22368   0.83815   0.88806   0.00000  Uiso   1.00
H1305  H     0.32385   0.82105   0.83836   0.00000  Uiso   1.00
H1306  H     0.23086   0.98505   0.66860   0.00000  Uiso   1.00
H1307  H     0.19945   0.74180   0.88539   0.00000  Uiso   1.00
H1308  H     0.23835   0.77594   0.84754   0.00000  Uiso   1.00
O1309  O     0.16667   0.83333   0.75000   0.00000  Uiso   1.00
O1310  O     0.15451   0.79304   0.65458   0.00000  Uiso   1.00
O1311  O     0.12940   0.87058   0.84968   0.00000  Uiso   1.00
O1312  O     0.20824   0.84425   0.64606   0.00000  Uiso   1.00
O1313  O     0.17451   0.82546   0.84968   0.00000  Uiso   1.00
O1314  O     0.29394   0.86527   0.82446   0.00000  Uiso   1.00
O1315  O     0.22263   0.71030   0.68916   0.00000  Uiso   1.00
O1316  O     0.29743   0.75081   0.50927   0.00000  Uiso   1.00
O1317  O     0.17930   0.74686   0.78213   0.00000  Uiso   1.00
O1318  O     0.14632   0.92751   0.77013   0.00000  Uiso   1.00
O1319  O     0.07412   0.79958   0.73413   0.00000  Uiso   1.00
O1320  O     0.26693   0.85939   0.71360   0.00000  Uiso   1.00
O1321  O     0.07071   0.85544   0.78213   0.00000  Uiso   1.00
O1322  O     0.25491   0.81892   0.77013   0.00000  Uiso   1.00
O1323  O     0.13760   0.73610   0.73413   0.00000  Uiso   1.00
O1324  O     0.20345   0.92286   0.71360   0.00000  Uiso   1.00
Zn1325 Zn    0.19338   0.80661   0.78734   0.00000  Uiso   1.00
Zn1326 Zn    0.13379   0.79124   0.71875   0.00000  Uiso   1.00
Zn1327 Zn    0.21056   0.86442   0.70657   0.00000  Uiso   1.00
Zn1328 Zn    0.12893   0.87106   0.78733   0.00000  Uiso   1.00
C1329  C     0.38630   0.82709   0.76033   0.00000  Uiso   1.00
C1330  C     0.50616   0.83525   0.55943   0.00000  Uiso   1.00
C1331  C     0.55801   0.78808   0.55881   0.00000  Uiso   1.00
C1332  C     0.61419   0.83886   0.73844   0.00000  Uiso   1.00
C1333  C     0.47280   0.85569   0.91989   0.00000  Uiso   1.00
C1334  C     0.66020   0.83599   0.73033   0.00000  Uiso   1.00
C1335  C     0.34143   0.82979   0.76561   0.00000  Uiso   1.00
C1336  C     0.51375   0.98915   0.73351   0.00000  Uiso   1.00
C1337  C     0.48717   0.67881   0.76379   0.00000  Uiso   1.00
C1338  C     0.48893   0.72288   0.76115   0.00000  Uiso   1.00
C1339  C     0.50987   0.94462   0.73956   0.00000  Uiso   1.00
C1340  C     0.41513   0.85765   0.98856   0.00000  Uiso   1.00
C1341  C     0.51780   0.81638   0.62975   0.00000  Uiso   1.00
C1342  C     0.48282   0.85189   0.87075   0.00000  Uiso   1.00
C1343  C     0.57300   0.78847   0.51269   0.00000  Uiso   1.00
C1344  C     0.52555   0.81158   0.58197   0.00000  Uiso   1.00
C1345  C     0.43170   0.86539   0.94340   0.00000  Uiso   1.00
C1346  C     0.65071   0.83769   0.81305   0.00000  Uiso   1.00
C1347  C     0.54696   0.67294   0.69396   0.00000  Uiso   1.00
C1348  C     0.58576   0.77207   0.91144   0.00000  Uiso   1.00
C1349  C     0.56736   0.75299   0.87290   0.00000  Uiso   1.00
C1350  C     0.61678   0.77648   0.99266   0.00000  Uiso   1.00
C1351  C     0.44118   0.84209   0.51042   0.00000  Uiso   1.00
C1352  C     0.48486   0.87348   0.58364   0.00000  Uiso   1.00
C1353  C     0.51668   0.90772   0.59799   0.00000  Uiso   1.00
C1354  C     0.36966   0.86385   0.51487   0.00000  Uiso   1.00
C1355  C     0.34315   0.88297   0.99021   0.00000  Uiso   1.00
C1356  C     0.35733   0.83612   0.68323   0.00000  Uiso   1.00
C1357  C     0.33834   0.84247   0.64514   0.00000  Uiso   1.00
C1358  C     0.48466   0.83802   0.98953   0.00000  Uiso   1.00
C1359  C     0.49999   0.84259   0.94336   0.00000  Uiso   1.00
C1360  C     0.51249   0.82630   0.51295   0.00000  Uiso   1.00
C1361  C     0.54863   0.80548   0.98864   0.00000  Uiso   1.00
C1362  C     0.55931   0.80412   0.94147   0.00000  Uiso   1.00
C1363  C     0.54086   0.83081   0.92173   0.00000  Uiso   1.00
H1364  H     0.57510   0.77362   0.57748   0.00000  Uiso   1.00
H1365  H     0.58453   0.72609   0.85634   0.00000  Uiso   1.00
H1366  H     0.61899   0.78647   0.89789   0.00000  Uiso   1.00
H1367  H     0.58627   0.74516   0.93048   0.00000  Uiso   1.00
H1368  H     0.63744   0.79110   0.96355   0.00000  Uiso   1.00
H1369  H     0.51421   0.90694   0.63390   0.00000  Uiso   1.00
H1370  H     0.55013   0.90476   0.57821   0.00000  Uiso   1.00
H1371  H     0.50899   0.93901   0.59326   0.00000  Uiso   1.00
H1372  H     0.47090   0.88929   0.56230   0.00000  Uiso   1.00
H1373  H     0.45833   0.86379   0.61291   0.00000  Uiso   1.00
H1374  H     0.35880   0.91427   0.97949   0.00000  Uiso   1.00
H1375  H     0.46427   0.99854   0.79251   0.00000  Uiso   1.00
H1376  H     0.33890   0.86245   0.96086   0.00000  Uiso   1.00
H1377  H     0.64425   0.88653   0.51282   0.00000  Uiso   1.00
H1378  H     0.35246   0.83321   0.52624   0.00000  Uiso   1.00
H1379  H     0.37111   0.88455   0.54502   0.00000  Uiso   1.00
H1380  H     0.64389   0.81870   0.64441   0.00000  Uiso   1.00
H1381  H     0.66224   0.87442   0.64801   0.00000  Uiso   1.00
H1382  H     0.36300   0.83890   0.61303   0.00000  Uiso   1.00
H1383  H     0.38451   0.86097   0.68272   0.00000  Uiso   1.00
H1384  H     0.37048   0.80566   0.67533   0.00000  Uiso   1.00
H1385  H     0.41154   0.87565   0.92530   0.00000  Uiso   1.00
H1386  H     0.42721   0.83332   0.54433   0.00000  Uiso   1.00
H1387  H     0.55702   0.83815   0.88806   0.00000  Uiso   1.00
H1388  H     0.65718   0.82105   0.83836   0.00000  Uiso   1.00
H1389  H     0.56419   0.98505   0.66860   0.00000  Uiso   1.00
H1390  H     0.53278   0.74180   0.88539   0.00000  Uiso   1.00
H1391  H     0.57169   0.77594   0.84754   0.00000  Uiso   1.00
O1392  O     0.50000   0.83333   0.75000   0.00000  Uiso   1.00
O1393  O     0.48784   0.79304   0.65458   0.00000  Uiso   1.00
O1394  O     0.46274   0.87058   0.84968   0.00000  Uiso   1.00
O1395  O     0.54157   0.84425   0.64606   0.00000  Uiso   1.00
O1396  O     0.50785   0.82546   0.84968   0.00000  Uiso   1.00
O1397  O     0.62728   0.86527   0.82446   0.00000  Uiso   1.00
O1398  O     0.55596   0.71030   0.68916   0.00000  Uiso   1.00
O1399  O     0.63076   0.75081   0.50927   0.00000  Uiso   1.00
O1400  O     0.51264   0.74686   0.78213   0.00000  Uiso   1.00
O1401  O     0.47965   0.92751   0.77013   0.00000  Uiso   1.00
O1402  O     0.40745   0.79958   0.73413   0.00000  Uiso   1.00
O1403  O     0.60026   0.85939   0.71360   0.00000  Uiso   1.00
O1404  O     0.40405   0.85544   0.78213   0.00000  Uiso   1.00
O1405  O     0.58824   0.81892   0.77013   0.00000  Uiso   1.00
O1406  O     0.47093   0.73610   0.73413   0.00000  Uiso   1.00
O1407  O     0.53678   0.92286   0.71360   0.00000  Uiso   1.00
Zn1408 Zn    0.52672   0.80661   0.78734   0.00000  Uiso   1.00
Zn1409 Zn    0.46713   0.79124   0.71875   0.00000  Uiso   1.00
Zn1410 Zn    0.54389   0.86442   0.70657   0.00000  Uiso   1.00
Zn1411 Zn    0.46226   0.87106   0.78733   0.00000  Uiso   1.00
C1412  C     0.71964   0.82709   0.76033   0.00000  Uiso   1.00
C1413  C     0.83949   0.83525   0.55943   0.00000  Uiso   1.00
C1414  C     0.89135   0.78808   0.55881   0.00000  Uiso   1.00
C1415  C     0.94753   0.83886   0.73844   0.00000  Uiso   1.00
C1416  C     0.80613   0.85569   0.91989   0.00000  Uiso   1.00
C1417  C     0.99353   0.83599   0.73033   0.00000  Uiso   1.00
C1418  C     0.67477   0.82979   0.76561   0.00000  Uiso   1.00
C1419  C     0.84709   0.98915   0.73351   0.00000  Uiso   1.00
C1420  C     0.82051   0.67881   0.76379   0.00000  Uiso   1.00
C1421  C     0.82227   0.72288   0.76115   0.00000  Uiso   1.00
C1422  C     0.84321   0.94462   0.73956   0.00000  Uiso   1.00
C1423  C     0.74846   0.85765   0.98856   0.00000  Uiso   1.00
C1424  C     0.85113   0.81638   0.62975   0.00000  Uiso   1.00
C1425  C     0.81615   0.85189   0.87075   0.00000  Uiso   1.00
C1426  C     0.90633   0.78847   0.51269   0.00000  Uiso   1.00
C1427  C     0.85888   0.81158   0.58197   0.00000  Uiso   1.00
C1428  C     0.76504   0.86539   0.94340   0.00000  Uiso   1.00
C1429  C     0.98405   0.83769   0.81305   0.00000  Uiso   1.00
C1430  C     0.88030   0.67294   0.69396   0.00000  Uiso   1.00
C1431  C     0.91910   0.77207   0.91144   0.00000  Uiso   1.00
C1432  C     0.90070   0.75299   0.87290   0.00000  Uiso   1.00
C1433  C     0.95012   0.77648   0.99266   0.00000  Uiso   1.00
C1434  C     0.77452   0.84209   0.51042   0.00000  Uiso   1.00
C1435  C     0.81819   0.87348   0.58364   0.00000  Uiso   1.00
C1436  C     0.85002   0.90772   0.59799   0.00000  Uiso   1.00
C1437  C     0.70299   0.86385   0.51487   0.00000  Uiso   1.00
C1438  C     0.67649   0.88297   0.99021   0.00000  Uiso   1.00
C1439  C     0.69067   0.83612   0.68323   0.00000  Uiso   1.00
C1440  C     0.67167   0.84247   0.64514   0.00000  Uiso   1.00
C1441  C     0.81799   0.83802   0.98953   0.00000  Uiso   1.00
C1442  C     0.83332   0.84259   0.94336   0.00000  Uiso   1.00
C1443  C     0.84583   0.82630   0.51295   0.00000  Uiso   1.00
C1444  C     0.88196   0.80548   0.98864   0.00000  Uiso   1.00
C1445  C     0.89265   0.80412   0.94147   0.00000  Uiso   1.00
C1446  C     0.87419   0.83081   0.92173   0.00000  Uiso   1.00
H1447  H     0.90844   0.77362   0.57748   0.00000  Uiso   1.00
H1448  H     0.91787   0.72609   0.85634   0.00000  Uiso   1.00
H1449  H     0.95232   0.78647   0.89789   0.00000  Uiso   1.00
H1450  H     0.91960   0.74516   0.93048   0.00000  Uiso   1.00
H1451  H     0.97077   0.79110   0.96355   0.00000  Uiso   1.00
H1452  H     0.84754   0.90694   0.63390   0.00000  Uiso   1.00
H1453  H     0.88347   0.90476   0.57821   0.00000  Uiso   1.00
H1454  H     0.84232   0.93901   0.59326   0.00000  Uiso   1.00
H1455  H     0.80423   0.88929   0.56230   0.00000  Uiso   1.00
H1456  H     0.79167   0.86379   0.61291   0.00000  Uiso   1.00
H1457  H     0.69213   0.91427   0.97949   0.00000  Uiso   1.00
H1458  H     0.79761   0.99854   0.79251   0.00000  Uiso   1.00
H1459  H     0.67224   0.86245   0.96086   0.00000  Uiso   1.00
H1460  H     0.97758   0.88653   0.51282   0.00000  Uiso   1.00
H1461  H     0.68580   0.83321   0.52624   0.00000  Uiso   1.00
H1462  H     0.70445   0.88455   0.54502   0.00000  Uiso   1.00
H1463  H     0.97722   0.81870   0.64441   0.00000  Uiso   1.00
H1464  H     0.99557   0.87442   0.64801   0.00000  Uiso   1.00
H1465  H     0.69633   0.83890   0.61303   0.00000  Uiso   1.00
H1466  H     0.71785   0.86097   0.68272   0.00000  Uiso   1.00
H1467  H     0.70381   0.80566   0.67533   0.00000  Uiso   1.00
H1468  H     0.74487   0.87565   0.92530   0.00000  Uiso   1.00
H1469  H     0.76055   0.83332   0.54433   0.00000  Uiso   1.00
H1470  H     0.89035   0.83815   0.88806   0.00000  Uiso   1.00
H1471  H     0.99052   0.82105   0.83836   0.00000  Uiso   1.00
H1472  H     0.89752   0.98505   0.66860   0.00000  Uiso   1.00
H1473  H     0.86612   0.74180   0.88539   0.00000  Uiso   1.00
H1474  H     0.90502   0.77594   0.84754   0.00000  Uiso   1.00
O1475  O     0.83333   0.83333   0.75000   0.00000  Uiso   1.00
O1476  O     0.82118   0.79304   0.65458   0.00000  Uiso   1.00
O1477  O     0.79607   0.87058   0.84968   0.00000  Uiso   1.00
O1478  O     0.87491   0.84425   0.64606   0.00000  Uiso   1.00
O1479  O     0.84118   0.82546   0.84968   0.00000  Uiso   1.00
O1480  O     0.96061   0.86527   0.82446   0.00000  Uiso   1.00
O1481  O     0.88930   0.71030   0.68916   0.00000  Uiso   1.00
O1482  O     0.96410   0.75081   0.50927   0.00000  Uiso   1.00
O1483  O     0.84597   0.74686   0.78213   0.00000  Uiso   1.00
O1484  O     0.81298   0.92751   0.77013   0.00000  Uiso   1.00
O1485  O     0.74078   0.79958   0.73413   0.00000  Uiso   1.00
O1486  O     0.93360   0.85939   0.71360   0.00000  Uiso   1.00
O1487  O     0.73738   0.85544   0.78213   0.00000  Uiso   1.00
O1488  O     0.92158   0.81892   0.77013   0.00000  Uiso   1.00
O1489  O     0.80426   0.73610   0.73413   0.00000  Uiso   1.00
O1490  O     0.87012   0.92286   0.71360   0.00000  Uiso   1.00
Zn1491 Zn    0.86005   0.80661   0.78734   0.00000  Uiso   1.00
Zn1492 Zn    0.80046   0.79124   0.71875   0.00000  Uiso   1.00
Zn1493 Zn    0.87723   0.86442   0.70657   0.00000  Uiso   1.00
Zn1494 Zn    0.79560   0.87106   0.78733   0.00000  Uiso   1.00
loop_
_geom_bond_atom_site_label_1
_geom_bond_atom_site_label_2
_geom_bond_distance
_geom_bond_site_symmetry_2
_ccdc_geom_bond_type
C1     O74     1.290   .     A
C1     C7      1.444   .     S
C1     O76     1.263   .     A
C2     C32     1.419   .     A
C2     C16     1.405   .     A
C2     C24     1.537   .     S
C3     C15     1.392   .     A
C3     H36     1.086   .     S
C3     C16     1.388   .     A
C4     O75     1.278   .     A
C4     C6      1.469   .     S
C4     O77     1.278   .     A
C5     C17     1.405   .     A
C5     C14     1.479   .     S
C5     C31     1.426   .     A
C6     C90     1.358   .     S
C6     C111    1.537   .     S
C7     C172    1.358   1_455 S
C7     C184    1.494   1_455 S
C8     C11     1.459   .     S
C8     C258    1.342   .     S
C8     C268    1.500   .     S
C9     C10     1.433   .     S
C9     C506    1.342   1_545 S
C9     H545    1.086   1_545 S
C10    O78     1.288   .     A
C10    O72     1.284   .     A
C11    O73     1.278   .     A
C11    O79     1.265   .     A
C12    C17     1.403   .     A
C12    C770    1.398   .     S
C12    C773    1.519   .     S
C13    O65     1.277   .     A
C13    O67     1.271   .     A
C13    C16     1.444   .     S
C14    O66     1.288   .     A
C14    O68     1.276   .     A
C15    C769    1.486   1_554 S
C15    C780    1.427   1_554 S
C17    H57     1.081   .     S
C18    O69     1.222   .     D
C18    H60     1.082   .     S
C18    C90     1.494   .     S
C19    O70     1.221   .     D
C19    C506    1.500   1_545 S
C19    H559    1.085   1_545 S
C20    C34     1.525   .     S
C20    H39     1.108   .     S
C20    H38     1.106   .     S
C20    C21     1.533   .     S
C21    H62     1.111   .     S
C21    H63     1.109   .     S
C21    H37     1.111   .     S
C22    H40     1.082   .     S
C22    C762    1.486   .     S
C22    O818    1.222   .     S
C23    H58     1.083   .     S
C23    C759    1.398   1_554 S
C23    C777    1.411   1_554 S
C24    C25     1.535   .     S
C24    H44     1.103   .     S
C24    H45     1.111   .     S
C25    H43     1.112   .     S
C25    H41     1.107   .     S
C25    H42     1.111   .     S
C26    H50     1.111   .     S
C26    H51     1.112   .     S
C26    C759    1.519   1_554 S
C26    C774    1.530   1_554 S
C27    H48     1.110   .     S
C27    H46     1.111   .     S
C27    C773    1.530   .     S
C27    H962    1.111   1_455 S
C28    C29     1.529   .     S
C28    H55     1.112   .     S
C28    H56     1.111   .     S
C28    C172    1.537   1_455 S
C29    H54     1.110   .     S
C29    H218    1.111   1_455 S
C29    H219    1.110   1_455 S
C30    C31     1.409   .     A
C30    C770    1.411   .     S
C30    C779    1.423   .     S
C31    C35     1.409   .     A
C32    C777    1.423   1_554 S
C32    C780    1.435   1_554 S
C33    C34     1.419   .     A
C33    C762    1.427   .     S
C33    C779    1.435   .     S
C34    C35     1.396   .     A
C35    H59     1.075   .     S
H47    C258    1.086   .     S
H49    C857    1.111   1_554 S
H52    C112    1.111   .     S
H53    C112    1.110   .     S
H61    C268    1.085   .     S
O64    Zn80    1.961   .     S
O64    Zn83    1.933   .     S
O64    Zn82    1.929   .     S
O64    Zn81    1.971   .     S
O65    Zn81    1.940   .     S
O66    Zn83    1.958   .     S
O67    Zn82    1.961   .     S
O68    Zn80    1.943   .     S
O71    C769    1.222   1_554 S
O72    Zn80    1.931   .     S
O73    Zn83    1.925   .     S
O74    Zn81    1.928   .     S
O75    Zn82    1.945   .     S
O76    Zn83    1.947   .     S
O77    Zn80    1.929   .     S
O78    Zn81    1.926   .     S
O79    Zn82    1.926   .     S
C84    O157    1.290   .     A
C84    C90     1.444   .     S
C84    O159    1.263   .     A
C85    C115    1.419   .     A
C85    C99     1.405   .     A
C85    C107    1.537   .     S
C86    C98     1.392   .     A
C86    H119    1.086   .     S
C86    C99     1.388   .     A
C87    O158    1.278   .     A
C87    C89     1.469   .     S
C87    O160    1.278   .     A
C88    C100    1.405   .     A
C88    C97     1.479   .     S
C88    C114    1.426   .     A
C89    C173    1.358   .     S
C89    C194    1.537   .     S
C91    C94     1.459   .     S
C91    C341    1.342   .     S
C91    C351    1.500   .     S
C92    C93     1.433   .     S
C92    C589    1.342   1_545 S
C92    H628    1.086   1_545 S
C93    O161    1.288   .     A
C93    O155    1.284   .     A
C94    O156    1.278   .     A
C94    O162    1.265   .     A
C95    C100    1.403   .     A
C95    C853    1.398   .     S
C95    C856    1.519   .     S
C96    O148    1.277   .     A
C96    O150    1.271   .     A
C96    C99     1.444   .     S
C97    O149    1.288   .     A
C97    O151    1.276   .     A
C98    C852    1.486   1_554 S
C98    C863    1.427   1_554 S
C100   H140    1.081   .     S
C101   O152    1.222   .     D
C101   H143    1.082   .     S
C101   C173    1.494   .     S
C102   O153    1.221   .     D
C102   C589    1.500   1_545 S
C102   H642    1.085   1_545 S
C103   C117    1.525   .     S
C103   H122    1.108   .     S
C103   H121    1.106   .     S
C103   C104    1.533   .     S
C104   H145    1.111   .     S
C104   H146    1.109   .     S
C104   H120    1.111   .     S
C105   H123    1.082   .     S
C105   C845    1.486   .     S
C105   O901    1.222   .     S
C106   H141    1.083   .     S
C106   C842    1.398   1_554 S
C106   C860    1.411   1_554 S
C107   C108    1.535   .     S
C107   H127    1.103   .     S
C107   H128    1.111   .     S
C108   H126    1.112   .     S
C108   H124    1.107   .     S
C108   H125    1.111   .     S
C109   H133    1.111   .     S
C109   H134    1.112   .     S
C109   C842    1.519   1_554 S
C109   C857    1.530   1_554 S
C110   H131    1.110   .     S
C110   H129    1.111   .     S
C110   C856    1.530   .     S
C110   H796    1.111   .     S
C111   C112    1.529   .     S
C111   H138    1.112   .     S
C111   H139    1.111   .     S
C112   H137    1.110   .     S
C113   C114    1.409   .     A
C113   C853    1.411   .     S
C113   C862    1.423   .     S
C114   C118    1.409   .     A
C115   C860    1.423   1_554 S
C115   C863    1.435   1_554 S
C116   C117    1.419   .     A
C116   C845    1.427   .     S
C116   C862    1.435   .     S
C117   C118    1.396   .     A
C118   H142    1.075   .     S
H130   C341    1.086   .     S
H132   C940    1.111   1_554 S
H135   C195    1.111   .     S
H136   C195    1.110   .     S
H144   C351    1.085   .     S
O147   Zn163   1.961   .     S
O147   Zn166   1.933   .     S
O147   Zn165   1.929   .     S
O147   Zn164   1.971   .     S
O148   Zn164   1.940   .     S
O149   Zn166   1.958   .     S
O150   Zn165   1.961   .     S
O151   Zn163   1.943   .     S
O154   C852    1.222   1_554 S
O155   Zn163   1.931   .     S
O156   Zn166   1.925   .     S
O157   Zn164   1.928   .     S
O158   Zn165   1.945   .     S
O159   Zn166   1.947   .     S
O160   Zn163   1.929   .     S
O161   Zn164   1.926   .     S
O162   Zn165   1.926   .     S
C167   O240    1.290   .     A
C167   C173    1.444   .     S
C167   O242    1.263   .     A
C168   C198    1.419   .     A
C168   C182    1.405   .     A
C168   C190    1.537   .     S
C169   C181    1.392   .     A
C169   H202    1.086   .     S
C169   C182    1.388   .     A
C170   O241    1.278   .     A
C170   C172    1.469   .     S
C170   O243    1.278   .     A
C171   C183    1.405   .     A
C171   C180    1.479   .     S
C171   C197    1.426   .     A
C172   C7      1.358   1_655 S
C172   C28     1.537   1_655 S
C174   C177    1.459   .     S
C174   C424    1.342   .     S
C174   C434    1.500   .     S
C175   C176    1.433   .     S
C175   C672    1.342   1_545 S
C175   H711    1.086   1_545 S
C176   O244    1.288   .     A
C176   O238    1.284   .     A
C177   O239    1.278   .     A
C177   O245    1.265   .     A
C178   C183    1.403   .     A
C178   C936    1.398   .     S
C178   C939    1.519   .     S
C179   O231    1.277   .     A
C179   O233    1.271   .     A
C179   C182    1.444   .     S
C180   O232    1.288   .     A
C180   O234    1.276   .     A
C181   C935    1.486   1_554 S
C181   C946    1.427   1_554 S
C183   H223    1.081   .     S
C184   O235    1.222   .     D
C184   H226    1.082   .     S
C184   C7      1.494   1_655 S
C185   O236    1.221   .     D
C185   C672    1.500   1_545 S
C185   H725    1.085   1_545 S
C186   C200    1.525   .     S
C186   H205    1.108   .     S
C186   H204    1.106   .     S
C186   C187    1.533   .     S
C187   H228    1.111   .     S
C187   H229    1.109   .     S
C187   H203    1.111   .     S
C188   H206    1.082   .     S
C188   C928    1.486   .     S
C188   O984    1.222   .     S
C189   H224    1.083   .     S
C189   C925    1.398   1_554 S
C189   C943    1.411   1_554 S
C190   C191    1.535   .     S
C190   H210    1.103   .     S
C190   H211    1.111   .     S
C191   H209    1.112   .     S
C191   H207    1.107   .     S
C191   H208    1.111   .     S
C192   H216    1.111   .     S
C192   H217    1.112   .     S
C192   C925    1.519   1_554 S
C192   C940    1.530   1_554 S
C193   H214    1.110   .     S
C193   H212    1.111   .     S
C193   C939    1.530   .     S
C193   H879    1.111   .     S
C194   C195    1.529   .     S
C194   H221    1.112   .     S
C194   H222    1.111   .     S
C195   H220    1.110   .     S
C196   C197    1.409   .     A
C196   C936    1.411   .     S
C196   C945    1.423   .     S
C197   C201    1.409   .     A
C198   C943    1.423   1_554 S
C198   C946    1.435   1_554 S
C199   C200    1.419   .     A
C199   C928    1.427   .     S
C199   C945    1.435   .     S
C200   C201    1.396   .     A
C201   H225    1.075   .     S
H213   C424    1.086   .     S
H215   C774    1.111   1_654 S
H218   C29     1.111   1_655 S
H219   C29     1.110   1_655 S
H227   C434    1.085   .     S
O230   Zn246   1.961   .     S
O230   Zn249   1.933   .     S
O230   Zn248   1.929   .     S
O230   Zn247   1.971   .     S
O231   Zn247   1.940   .     S
O232   Zn249   1.958   .     S
O233   Zn248   1.961   .     S
O234   Zn246   1.943   .     S
O237   C935    1.222   1_554 S
O238   Zn246   1.931   .     S
O239   Zn249   1.925   .     S
O240   Zn247   1.928   .     S
O241   Zn248   1.945   .     S
O242   Zn249   1.947   .     S
O243   Zn246   1.929   .     S
O244   Zn247   1.926   .     S
O245   Zn248   1.926   .     S
C250   O323    1.290   .     A
C250   C256    1.444   .     S
C250   O325    1.263   .     A
C251   C281    1.419   .     A
C251   C265    1.405   .     A
C251   C273    1.537   .     S
C252   C264    1.392   .     A
C252   H285    1.086   .     S
C252   C265    1.388   .     A
C253   O324    1.278   .     A
C253   C255    1.469   .     S
C253   O326    1.278   .     A
C254   C266    1.405   .     A
C254   C263    1.479   .     S
C254   C280    1.426   .     A
C255   C339    1.358   .     S
C255   C360    1.537   .     S
C256   C421    1.358   1_455 S
C256   C433    1.494   1_455 S
C257   C260    1.459   .     S
C257   C507    1.342   .     S
C257   C517    1.500   .     S
C258   C259    1.433   .     S
C259   O327    1.288   .     A
C259   O321    1.284   .     A
C260   O322    1.278   .     A
C260   O328    1.265   .     A
C261   C266    1.403   .     A
C261   C1019   1.398   .     S
C261   C1022   1.519   .     S
C262   O314    1.277   .     A
C262   O316    1.271   .     A
C262   C265    1.444   .     S
C263   O315    1.288   .     A
C263   O317    1.276   .     A
C264   C1018   1.486   1_554 S
C264   C1029   1.427   1_554 S
C266   H306    1.081   .     S
C267   O318    1.222   .     D
C267   H309    1.082   .     S
C267   C339    1.494   .     S
C268   O319    1.221   .     D
C269   C283    1.525   .     S
C269   H288    1.108   .     S
C269   H287    1.106   .     S
C269   C270    1.533   .     S
C270   H311    1.111   .     S
C270   H312    1.109   .     S
C270   H286    1.111   .     S
C271   H289    1.082   .     S
C271   C1011   1.486   .     S
C271   O1067   1.222   .     S
C272   H307    1.083   .     S
C272   C1008   1.398   1_554 S
C272   C1026   1.411   1_554 S
C273   C274    1.535   .     S
C273   H293    1.103   .     S
C273   H294    1.111   .     S
C274   H292    1.112   .     S
C274   H290    1.107   .     S
C274   H291    1.111   .     S
C275   H299    1.111   .     S
C275   H300    1.112   .     S
C275   C1008   1.519   1_554 S
C275   C1023   1.530   1_554 S
C276   H297    1.110   .     S
C276   H295    1.111   .     S
C276   C1022   1.530   .     S
C276   H1211   1.111   1_455 S
C277   C278    1.529   .     S
C277   H304    1.112   .     S
C277   H305    1.111   .     S
C277   C421    1.537   1_455 S
C278   H303    1.110   .     S
C278   H467    1.111   1_455 S
C278   H468    1.110   1_455 S
C279   C280    1.409   .     A
C279   C1019   1.411   .     S
C279   C1028   1.423   .     S
C280   C284    1.409   .     A
C281   C1026   1.423   1_554 S
C281   C1029   1.435   1_554 S
C282   C283    1.419   .     A
C282   C1011   1.427   .     S
C282   C1028   1.435   .     S
C283   C284    1.396   .     A
C284   H308    1.075   .     S
H296   C507    1.086   .     S
H298   C1106   1.111   1_554 S
H301   C361    1.111   .     S
H302   C361    1.110   .     S
H310   C517    1.085   .     S
O313   Zn329   1.961   .     S
O313   Zn332   1.933   .     S
O313   Zn331   1.929   .     S
O313   Zn330   1.971   .     S
O314   Zn330   1.940   .     S
O315   Zn332   1.958   .     S
O316   Zn331   1.961   .     S
O317   Zn329   1.943   .     S
O320   C1018   1.222   1_554 S
O321   Zn329   1.931   .     S
O322   Zn332   1.925   .     S
O323   Zn330   1.928   .     S
O324   Zn331   1.945   .     S
O325   Zn332   1.947   .     S
O326   Zn329   1.929   .     S
O327   Zn330   1.926   .     S
O328   Zn331   1.926   .     S
C333   O406    1.290   .     A
C333   C339    1.444   .     S
C333   O408    1.263   .     A
C334   C364    1.419   .     A
C334   C348    1.405   .     A
C334   C356    1.537   .     S
C335   C347    1.392   .     A
C335   H368    1.086   .     S
C335   C348    1.388   .     A
C336   O407    1.278   .     A
C336   C338    1.469   .     S
C336   O409    1.278   .     A
C337   C349    1.405   .     A
C337   C346    1.479   .     S
C337   C363    1.426   .     A
C338   C422    1.358   .     S
C338   C443    1.537   .     S
C340   C343    1.459   .     S
C340   C590    1.342   .     S
C340   C600    1.500   .     S
C341   C342    1.433   .     S
C342   O410    1.288   .     A
C342   O404    1.284   .     A
C343   O405    1.278   .     A
C343   O411    1.265   .     A
C344   C349    1.403   .     A
C344   C1102   1.398   .     S
C344   C1105   1.519   .     S
C345   O397    1.277   .     A
C345   O399    1.271   .     A
C345   C348    1.444   .     S
C346   O398    1.288   .     A
C346   O400    1.276   .     A
C347   C1101   1.486   1_554 S
C347   C1112   1.427   1_554 S
C349   H389    1.081   .     S
C350   O401    1.222   .     D
C350   H392    1.082   .     S
C350   C422    1.494   .     S
C351   O402    1.221   .     D
C352   C366    1.525   .     S
C352   H371    1.108   .     S
C352   H370    1.106   .     S
C352   C353    1.533   .     S
C353   H394    1.111   .     S
C353   H395    1.109   .     S
C353   H369    1.111   .     S
C354   H372    1.082   .     S
C354   C1094   1.486   .     S
C354   O1150   1.222   .     S
C355   H390    1.083   .     S
C355   C1091   1.398   1_554 S
C355   C1109   1.411   1_554 S
C356   C357    1.535   .     S
C356   H376    1.103   .     S
C356   H377    1.111   .     S
C357   H375    1.112   .     S
C357   H373    1.107   .     S
C357   H374    1.111   .     S
C358   H382    1.111   .     S
C358   H383    1.112   .     S
C358   C1091   1.519   1_554 S
C358   C1106   1.530   1_554 S
C359   H380    1.110   .     S
C359   H378    1.111   .     S
C359   C1105   1.530   .     S
C359   H1045   1.111   .     S
C360   C361    1.529   .     S
C360   H387    1.112   .     S
C360   H388    1.111   .     S
C361   H386    1.110   .     S
C362   C363    1.409   .     A
C362   C1102   1.411   .     S
C362   C1111   1.423   .     S
C363   C367    1.409   .     A
C364   C1109   1.423   1_554 S
C364   C1112   1.435   1_554 S
C365   C366    1.419   .     A
C365   C1094   1.427   .     S
C365   C1111   1.435   .     S
C366   C367    1.396   .     A
C367   H391    1.075   .     S
H379   C590    1.086   .     S
H381   C1189   1.111   1_554 S
H384   C444    1.111   .     S
H385   C444    1.110   .     S
H393   C600    1.085   .     S
O396   Zn412   1.961   .     S
O396   Zn415   1.933   .     S
O396   Zn414   1.929   .     S
O396   Zn413   1.971   .     S
O397   Zn413   1.940   .     S
O398   Zn415   1.958   .     S
O399   Zn414   1.961   .     S
O400   Zn412   1.943   .     S
O403   C1101   1.222   1_554 S
O404   Zn412   1.931   .     S
O405   Zn415   1.925   .     S
O406   Zn413   1.928   .     S
O407   Zn414   1.945   .     S
O408   Zn415   1.947   .     S
O409   Zn412   1.929   .     S
O410   Zn413   1.926   .     S
O411   Zn414   1.926   .     S
C416   O489    1.290   .     A
C416   C422    1.444   .     S
C416   O491    1.263   .     A
C417   C447    1.419   .     A
C417   C431    1.405   .     A
C417   C439    1.537   .     S
C418   C430    1.392   .     A
C418   H451    1.086   .     S
C418   C431    1.388   .     A
C419   O490    1.278   .     A
C419   C421    1.469   .     S
C419   O492    1.278   .     A
C420   C432    1.405   .     A
C420   C429    1.479   .     S
C420   C446    1.426   .     A
C421   C256    1.358   1_655 S
C421   C277    1.537   1_655 S
C423   C426    1.459   .     S
C423   C673    1.342   .     S
C423   C683    1.500   .     S
C424   C425    1.433   .     S
C425   O493    1.288   .     A
C425   O487    1.284   .     A
C426   O488    1.278   .     A
C426   O494    1.265   .     A
C427   C432    1.403   .     A
C427   C1185   1.398   .     S
C427   C1188   1.519   .     S
C428   O480    1.277   .     A
C428   O482    1.271   .     A
C428   C431    1.444   .     S
C429   O481    1.288   .     A
C429   O483    1.276   .     A
C430   C1184   1.486   1_554 S
C430   C1195   1.427   1_554 S
C432   H472    1.081   .     S
C433   O484    1.222   .     D
C433   H475    1.082   .     S
C433   C256    1.494   1_655 S
C434   O485    1.221   .     D
C435   C449    1.525   .     S
C435   H454    1.108   .     S
C435   H453    1.106   .     S
C435   C436    1.533   .     S
C436   H477    1.111   .     S
C436   H478    1.109   .     S
C436   H452    1.111   .     S
C437   H455    1.082   .     S
C437   C1177   1.486   .     S
C437   O1233   1.222   .     S
C438   H473    1.083   .     S
C438   C1174   1.398   1_554 S
C438   C1192   1.411   1_554 S
C439   C440    1.535   .     S
C439   H459    1.103   .     S
C439   H460    1.111   .     S
C440   H458    1.112   .     S
C440   H456    1.107   .     S
C440   H457    1.111   .     S
C441   H465    1.111   .     S
C441   H466    1.112   .     S
C441   C1174   1.519   1_554 S
C441   C1189   1.530   1_554 S
C442   H463    1.110   .     S
C442   H461    1.111   .     S
C442   C1188   1.530   .     S
C442   H1128   1.111   .     S
C443   C444    1.529   .     S
C443   H470    1.112   .     S
C443   H471    1.111   .     S
C444   H469    1.110   .     S
C445   C446    1.409   .     A
C445   C1185   1.411   .     S
C445   C1194   1.423   .     S
C446   C450    1.409   .     A
C447   C1192   1.423   1_554 S
C447   C1195   1.435   1_554 S
C448   C449    1.419   .     A
C448   C1177   1.427   .     S
C448   C1194   1.435   .     S
C449   C450    1.396   .     A
C450   H474    1.075   .     S
H462   C673    1.086   .     S
H464   C1023   1.111   1_654 S
H467   C278    1.111   1_655 S
H468   C278    1.110   1_655 S
H476   C683    1.085   .     S
O479   Zn495   1.961   .     S
O479   Zn498   1.933   .     S
O479   Zn497   1.929   .     S
O479   Zn496   1.971   .     S
O480   Zn496   1.940   .     S
O481   Zn498   1.958   .     S
O482   Zn497   1.961   .     S
O483   Zn495   1.943   .     S
O486   C1184   1.222   1_554 S
O487   Zn495   1.931   .     S
O488   Zn498   1.925   .     S
O489   Zn496   1.928   .     S
O490   Zn497   1.945   .     S
O491   Zn498   1.947   .     S
O492   Zn495   1.929   .     S
O493   Zn496   1.926   .     S
O494   Zn497   1.926   .     S
C499   O572    1.290   .     A
C499   C505    1.444   .     S
C499   O574    1.263   .     A
C500   C530    1.419   .     A
C500   C514    1.405   .     A
C500   C522    1.537   .     S
C501   C513    1.392   .     A
C501   H534    1.086   .     S
C501   C514    1.388   .     A
C502   O573    1.278   .     A
C502   C504    1.469   .     S
C502   O575    1.278   .     A
C503   C515    1.405   .     A
C503   C512    1.479   .     S
C503   C529    1.426   .     A
C504   C588    1.358   .     S
C504   C609    1.537   .     S
C505   C670    1.358   1_455 S
C505   C682    1.494   1_455 S
C506   C509    1.459   .     S
C506   C9      1.342   1_565 S
C506   C19     1.500   1_565 S
C507   C508    1.433   .     S
C508   O576    1.288   .     A
C508   O570    1.284   .     A
C509   O571    1.278   .     A
C509   O577    1.265   .     A
C510   C515    1.403   .     A
C510   C1268   1.398   .     S
C510   C1271   1.519   .     S
C511   O563    1.277   .     A
C511   O565    1.271   .     A
C511   C514    1.444   .     S
C512   O564    1.288   .     A
C512   O566    1.276   .     A
C513   C1267   1.486   1_554 S
C513   C1278   1.427   1_554 S
C515   H555    1.081   .     S
C516   O567    1.222   .     D
C516   H558    1.082   .     S
C516   C588    1.494   .     S
C517   O568    1.221   .     D
C518   C532    1.525   .     S
C518   H537    1.108   .     S
C518   H536    1.106   .     S
C518   C519    1.533   .     S
C519   H560    1.111   .     S
C519   H561    1.109   .     S
C519   H535    1.111   .     S
C520   H538    1.082   .     S
C520   C1260   1.486   .     S
C520   O1316   1.222   .     S
C521   H556    1.083   .     S
C521   C1257   1.398   1_554 S
C521   C1275   1.411   1_554 S
C522   C523    1.535   .     S
C522   H542    1.103   .     S
C522   H543    1.111   .     S
C523   H541    1.112   .     S
C523   H539    1.107   .     S
C523   H540    1.111   .     S
C524   H548    1.111   .     S
C524   H549    1.112   .     S
C524   C1257   1.519   1_554 S
C524   C1272   1.530   1_554 S
C525   H546    1.110   .     S
C525   H544    1.111   .     S
C525   C1271   1.530   .     S
C525   H1460   1.111   1_455 S
C526   C527    1.529   .     S
C526   H553    1.112   .     S
C526   H554    1.111   .     S
C526   C670    1.537   1_455 S
C527   H552    1.110   .     S
C527   H716    1.111   1_455 S
C527   H717    1.110   1_455 S
C528   C529    1.409   .     A
C528   C1268   1.411   .     S
C528   C1277   1.423   .     S
C529   C533    1.409   .     A
C530   C1275   1.423   1_554 S
C530   C1278   1.435   1_554 S
C531   C532    1.419   .     A
C531   C1260   1.427   .     S
C531   C1277   1.435   .     S
C532   C533    1.396   .     A
C533   H557    1.075   .     S
H545   C9      1.086   1_565 S
H547   C1355   1.111   1_554 S
H550   C610    1.111   .     S
H551   C610    1.110   .     S
H559   C19     1.085   1_565 S
O562   Zn578   1.961   .     S
O562   Zn581   1.933   .     S
O562   Zn580   1.929   .     S
O562   Zn579   1.971   .     S
O563   Zn579   1.940   .     S
O564   Zn581   1.958   .     S
O565   Zn580   1.961   .     S
O566   Zn578   1.943   .     S
O569   C1267   1.222   1_554 S
O570   Zn578   1.931   .     S
O571   Zn581   1.925   .     S
O572   Zn579   1.928   .     S
O573   Zn580   1.945   .     S
O574   Zn581   1.947   .     S
O575   Zn578   1.929   .     S
O576   Zn579   1.926   .     S
O577   Zn580   1.926   .     S
C582   O655    1.290   .     A
C582   C588    1.444   .     S
C582   O657    1.263   .     A
C583   C613    1.419   .     A
C583   C597    1.405   .     A
C583   C605    1.537   .     S
C584   C596    1.392   .     A
C584   H617    1.086   .     S
C584   C597    1.388   .     A
C585   O656    1.278   .     A
C585   C587    1.469   .     S
C585   O658    1.278   .     A
C586   C598    1.405   .     A
C586   C595    1.479   .     S
C586   C612    1.426   .     A
C587   C671    1.358   .     S
C587   C692    1.537   .     S
C589   C592    1.459   .     S
C589   C92     1.342   1_565 S
C589   C102    1.500   1_565 S
C590   C591    1.433   .     S
C591   O659    1.288   .     A
C591   O653    1.284   .     A
C592   O654    1.278   .     A
C592   O660    1.265   .     A
C593   C598    1.403   .     A
C593   C1351   1.398   .     S
C593   C1354   1.519   .     S
C594   O646    1.277   .     A
C594   O648    1.271   .     A
C594   C597    1.444   .     S
C595   O647    1.288   .     A
C595   O649    1.276   .     A
C596   C1350   1.486   1_554 S
C596   C1361   1.427   1_554 S
C598   H638    1.081   .     S
C599   O650    1.222   .     D
C599   H641    1.082   .     S
C599   C671    1.494   .     S
C600   O651    1.221   .     D
C601   C615    1.525   .     S
C601   H620    1.108   .     S
C601   H619    1.106   .     S
C601   C602    1.533   .     S
C602   H643    1.111   .     S
C602   H644    1.109   .     S
C602   H618    1.111   .     S
C603   H621    1.082   .     S
C603   C1343   1.486   .     S
C603   O1399   1.222   .     S
C604   H639    1.083   .     S
C604   C1340   1.398   1_554 S
C604   C1358   1.411   1_554 S
C605   C606    1.535   .     S
C605   H625    1.103   .     S
C605   H626    1.111   .     S
C606   H624    1.112   .     S
C606   H622    1.107   .     S
C606   H623    1.111   .     S
C607   H631    1.111   .     S
C607   H632    1.112   .     S
C607   C1340   1.519   1_554 S
C607   C1355   1.530   1_554 S
C608   H629    1.110   .     S
C608   H627    1.111   .     S
C608   C1354   1.530   .     S
C608   H1294   1.111   .     S
C609   C610    1.529   .     S
C609   H636    1.112   .     S
C609   H637    1.111   .     S
C610   H635    1.110   .     S
C611   C612    1.409   .     A
C611   C1351   1.411   .     S
C611   C1360   1.423   .     S
C612   C616    1.409   .     A
C613   C1358   1.423   1_554 S
C613   C1361   1.435   1_554 S
C614   C615    1.419   .     A
C614   C1343   1.427   .     S
C614   C1360   1.435   .     S
C615   C616    1.396   .     A
C616   H640    1.075   .     S
H628   C92     1.086   1_565 S
H630   C1438   1.111   1_554 S
H633   C693    1.111   .     S
H634   C693    1.110   .     S
H642   C102    1.085   1_565 S
O645   Zn661   1.961   .     S
O645   Zn664   1.933   .     S
O645   Zn663   1.929   .     S
O645   Zn662   1.971   .     S
O646   Zn662   1.940   .     S
O647   Zn664   1.958   .     S
O648   Zn663   1.961   .     S
O649   Zn661   1.943   .     S
O652   C1350   1.222   1_554 S
O653   Zn661   1.931   .     S
O654   Zn664   1.925   .     S
O655   Zn662   1.928   .     S
O656   Zn663   1.945   .     S
O657   Zn664   1.947   .     S
O658   Zn661   1.929   .     S
O659   Zn662   1.926   .     S
O660   Zn663   1.926   .     S
C665   O738    1.290   .     A
C665   C671    1.444   .     S
C665   O740    1.263   .     A
C666   C696    1.419   .     A
C666   C680    1.405   .     A
C666   C688    1.537   .     S
C667   C679    1.392   .     A
C667   H700    1.086   .     S
C667   C680    1.388   .     A
C668   O739    1.278   .     A
C668   C670    1.469   .     S
C668   O741    1.278   .     A
C669   C681    1.405   .     A
C669   C678    1.479   .     S
C669   C695    1.426   .     A
C670   C505    1.358   1_655 S
C670   C526    1.537   1_655 S
C672   C675    1.459   .     S
C672   C175    1.342   1_565 S
C672   C185    1.500   1_565 S
C673   C674    1.433   .     S
C674   O742    1.288   .     A
C674   O736    1.284   .     A
C675   O737    1.278   .     A
C675   O743    1.265   .     A
C676   C681    1.403   .     A
C676   C1434   1.398   .     S
C676   C1437   1.519   .     S
C677   O729    1.277   .     A
C677   O731    1.271   .     A
C677   C680    1.444   .     S
C678   O730    1.288   .     A
C678   O732    1.276   .     A
C679   C1433   1.486   1_554 S
C679   C1444   1.427   1_554 S
C681   H721    1.081   .     S
C682   O733    1.222   .     D
C682   H724    1.082   .     S
C682   C505    1.494   1_655 S
C683   O734    1.221   .     D
C684   C698    1.525   .     S
C684   H703    1.108   .     S
C684   H702    1.106   .     S
C684   C685    1.533   .     S
C685   H726    1.111   .     S
C685   H727    1.109   .     S
C685   H701    1.111   .     S
C686   H704    1.082   .     S
C686   C1426   1.486   .     S
C686   O1482   1.222   .     S
C687   H722    1.083   .     S
C687   C1423   1.398   1_554 S
C687   C1441   1.411   1_554 S
C688   C689    1.535   .     S
C688   H708    1.103   .     S
C688   H709    1.111   .     S
C689   H707    1.112   .     S
C689   H705    1.107   .     S
C689   H706    1.111   .     S
C690   H714    1.111   .     S
C690   H715    1.112   .     S
C690   C1423   1.519   1_554 S
C690   C1438   1.530   1_554 S
C691   H712    1.110   .     S
C691   H710    1.111   .     S
C691   C1437   1.530   .     S
C691   H1377   1.111   .     S
C692   C693    1.529   .     S
C692   H719    1.112   .     S
C692   H720    1.111   .     S
C693   H718    1.110   .     S
C694   C695    1.409   .     A
C694   C1434   1.411   .     S
C694   C1443   1.423   .     S
C695   C699    1.409   .     A
C696   C1441   1.423   1_554 S
C696   C1444   1.435   1_554 S
C697   C698    1.419   .     A
C697   C1426   1.427   .     S
C697   C1443   1.435   .     S
C698   C699    1.396   .     A
C699   H723    1.075   .     S
H711   C175    1.086   1_565 S
H713   C1272   1.111   1_654 S
H716   C527    1.111   1_655 S
H717   C527    1.110   1_655 S
H725   C185    1.085   1_565 S
O728   Zn744   1.961   .     S
O728   Zn747   1.933   .     S
O728   Zn746   1.929   .     S
O728   Zn745   1.971   .     S
O729   Zn745   1.940   .     S
O730   Zn747   1.958   .     S
O731   Zn746   1.961   .     S
O732   Zn744   1.943   .     S
O735   C1433   1.222   1_554 S
O736   Zn744   1.931   .     S
O737   Zn747   1.925   .     S
O738   Zn745   1.928   .     S
O739   Zn746   1.945   .     S
O740   Zn747   1.947   .     S
O741   Zn744   1.929   .     S
O742   Zn745   1.926   .     S
O743   Zn746   1.926   .     S
C748   O821    1.290   .     A
C748   C754    1.444   .     S
C748   O823    1.263   .     A
C749   C779    1.419   .     A
C749   C763    1.405   .     A
C749   C771    1.537   .     S
C750   C762    1.392   .     A
C750   H783    1.086   .     S
C750   C763    1.388   .     A
C751   O822    1.278   .     A
C751   C753    1.469   .     S
C751   O824    1.278   .     A
C752   C764    1.405   .     A
C752   C761    1.479   .     S
C752   C778    1.426   .     A
C753   C837    1.358   .     S
C753   C858    1.537   .     S
C754   C919    1.358   1_455 S
C754   C931    1.494   1_455 S
C755   C758    1.459   .     S
C755   C1005   1.342   .     S
C755   C1015   1.500   .     S
C756   C757    1.433   .     S
C756   C1253   1.342   1_545 S
C756   H1292   1.086   1_545 S
C757   O825    1.288   .     A
C757   O819    1.284   .     A
C758   O820    1.278   .     A
C758   O826    1.265   .     A
C759   C764    1.403   .     A
C759   C23     1.398   1_556 S
C759   C26     1.519   1_556 S
C760   O812    1.277   .     A
C760   O814    1.271   .     A
C760   C763    1.444   .     S
C761   O813    1.288   .     A
C761   O815    1.276   .     A
C764   H804    1.081   .     S
C765   O816    1.222   .     D
C765   H807    1.082   .     S
C765   C837    1.494   .     S
C766   O817    1.221   .     D
C766   C1253   1.500   1_545 S
C766   H1306   1.085   1_545 S
C767   C781    1.525   .     S
C767   H786    1.108   .     S
C767   H785    1.106   .     S
C767   C768    1.533   .     S
C768   H809    1.111   .     S
C768   H810    1.109   .     S
C768   H784    1.111   .     S
C769   H787    1.082   .     S
C769   C15     1.486   1_556 S
C769   O71     1.222   1_556 S
C770   H805    1.083   .     S
C771   C772    1.535   .     S
C771   H791    1.103   .     S
C771   H792    1.111   .     S
C772   H790    1.112   .     S
C772   H788    1.107   .     S
C772   H789    1.111   .     S
C773   H797    1.111   .     S
C773   H798    1.112   .     S
C774   H795    1.110   .     S
C774   H793    1.111   .     S
C774   C26     1.530   1_556 S
C774   H215    1.111   1_456 S
C775   C776    1.529   .     S
C775   H802    1.112   .     S
C775   H803    1.111   .     S
C775   C919    1.537   1_455 S
C776   H801    1.110   .     S
C776   H965    1.111   1_455 S
C776   H966    1.110   1_455 S
C777   C778    1.409   .     A
C777   C23     1.411   1_556 S
C777   C32     1.423   1_556 S
C778   C782    1.409   .     A
C780   C781    1.419   .     A
C780   C15     1.427   1_556 S
C780   C32     1.435   1_556 S
C781   C782    1.396   .     A
C782   H806    1.075   .     S
H794   C1005   1.086   .     S
H799   C859    1.111   .     S
H800   C859    1.110   .     S
H808   C1015   1.085   .     S
O811   Zn827   1.961   .     S
O811   Zn830   1.933   .     S
O811   Zn829   1.929   .     S
O811   Zn828   1.971   .     S
O812   Zn828   1.940   .     S
O813   Zn830   1.958   .     S
O814   Zn829   1.961   .     S
O815   Zn827   1.943   .     S
O819   Zn827   1.931   .     S
O820   Zn830   1.925   .     S
O821   Zn828   1.928   .     S
O822   Zn829   1.945   .     S
O823   Zn830   1.947   .     S
O824   Zn827   1.929   .     S
O825   Zn828   1.926   .     S
O826   Zn829   1.926   .     S
C831   O904    1.290   .     A
C831   C837    1.444   .     S
C831   O906    1.263   .     A
C832   C862    1.419   .     A
C832   C846    1.405   .     A
C832   C854    1.537   .     S
C833   C845    1.392   .     A
C833   H866    1.086   .     S
C833   C846    1.388   .     A
C834   O905    1.278   .     A
C834   C836    1.469   .     S
C834   O907    1.278   .     A
C835   C847    1.405   .     A
C835   C844    1.479   .     S
C835   C861    1.426   .     A
C836   C920    1.358   .     S
C836   C941    1.537   .     S
C838   C841    1.459   .     S
C838   C1088   1.342   .     S
C838   C1098   1.500   .     S
C839   C840    1.433   .     S
C839   C1336   1.342   1_545 S
C839   H1375   1.086   1_545 S
C840   O908    1.288   .     A
C840   O902    1.284   .     A
C841   O903    1.278   .     A
C841   O909    1.265   .     A
C842   C847    1.403   .     A
C842   C106    1.398   1_556 S
C842   C109    1.519   1_556 S
C843   O895    1.277   .     A
C843   O897    1.271   .     A
C843   C846    1.444   .     S
C844   O896    1.288   .     A
C844   O898    1.276   .     A
C847   H887    1.081   .     S
C848   O899    1.222   .     D
C848   H890    1.082   .     S
C848   C920    1.494   .     S
C849   O900    1.221   .     D
C849   C1336   1.500   1_545 S
C849   H1389   1.085   1_545 S
C850   C864    1.525   .     S
C850   H869    1.108   .     S
C850   H868    1.106   .     S
C850   C851    1.533   .     S
C851   H892    1.111   .     S
C851   H893    1.109   .     S
C851   H867    1.111   .     S
C852   H870    1.082   .     S
C852   C98     1.486   1_556 S
C852   O154    1.222   1_556 S
C853   H888    1.083   .     S
C854   C855    1.535   .     S
C854   H874    1.103   .     S
C854   H875    1.111   .     S
C855   H873    1.112   .     S
C855   H871    1.107   .     S
C855   H872    1.111   .     S
C856   H880    1.111   .     S
C856   H881    1.112   .     S
C857   H878    1.110   .     S
C857   H876    1.111   .     S
C857   C109    1.530   1_556 S
C857   H49     1.111   1_556 S
C858   C859    1.529   .     S
C858   H885    1.112   .     S
C858   H886    1.111   .     S
C859   H884    1.110   .     S
C860   C861    1.409   .     A
C860   C106    1.411   1_556 S
C860   C115    1.423   1_556 S
C861   C865    1.409   .     A
C863   C864    1.419   .     A
C863   C98     1.427   1_556 S
C863   C115    1.435   1_556 S
C864   C865    1.396   .     A
C865   H889    1.075   .     S
H877   C1088   1.086   .     S
H882   C942    1.111   .     S
H883   C942    1.110   .     S
H891   C1098   1.085   .     S
O894   Zn910   1.961   .     S
O894   Zn913   1.933   .     S
O894   Zn912   1.929   .     S
O894   Zn911   1.971   .     S
O895   Zn911   1.940   .     S
O896   Zn913   1.958   .     S
O897   Zn912   1.961   .     S
O898   Zn910   1.943   .     S
O902   Zn910   1.931   .     S
O903   Zn913   1.925   .     S
O904   Zn911   1.928   .     S
O905   Zn912   1.945   .     S
O906   Zn913   1.947   .     S
O907   Zn910   1.929   .     S
O908   Zn911   1.926   .     S
O909   Zn912   1.926   .     S
C914   O987    1.290   .     A
C914   C920    1.444   .     S
C914   O989    1.263   .     A
C915   C945    1.419   .     A
C915   C929    1.405   .     A
C915   C937    1.537   .     S
C916   C928    1.392   .     A
C916   H949    1.086   .     S
C916   C929    1.388   .     A
C917   O988    1.278   .     A
C917   C919    1.469   .     S
C917   O990    1.278   .     A
C918   C930    1.405   .     A
C918   C927    1.479   .     S
C918   C944    1.426   .     A
C919   C754    1.358   1_655 S
C919   C775    1.537   1_655 S
C921   C924    1.459   .     S
C921   C1171   1.342   .     S
C921   C1181   1.500   .     S
C922   C923    1.433   .     S
C922   C1419   1.342   1_545 S
C922   H1458   1.086   1_545 S
C923   O991    1.288   .     A
C923   O985    1.284   .     A
C924   O986    1.278   .     A
C924   O992    1.265   .     A
C925   C930    1.403   .     A
C925   C189    1.398   1_556 S
C925   C192    1.519   1_556 S
C926   O978    1.277   .     A
C926   O980    1.271   .     A
C926   C929    1.444   .     S
C927   O979    1.288   .     A
C927   O981    1.276   .     A
C930   H970    1.081   .     S
C931   O982    1.222   .     D
C931   H973    1.082   .     S
C931   C754    1.494   1_655 S
C932   O983    1.221   .     D
C932   C1419   1.500   1_545 S
C932   H1472   1.085   1_545 S
C933   C947    1.525   .     S
C933   H952    1.108   .     S
C933   H951    1.106   .     S
C933   C934    1.533   .     S
C934   H975    1.111   .     S
C934   H976    1.109   .     S
C934   H950    1.111   .     S
C935   H953    1.082   .     S
C935   C181    1.486   1_556 S
C935   O237    1.222   1_556 S
C936   H971    1.083   .     S
C937   C938    1.535   .     S
C937   H957    1.103   .     S
C937   H958    1.111   .     S
C938   H956    1.112   .     S
C938   H954    1.107   .     S
C938   H955    1.111   .     S
C939   H963    1.111   .     S
C939   H964    1.112   .     S
C940   H961    1.110   .     S
C940   H959    1.111   .     S
C940   C192    1.530   1_556 S
C940   H132    1.111   1_556 S
C941   C942    1.529   .     S
C941   H968    1.112   .     S
C941   H969    1.111   .     S
C942   H967    1.110   .     S
C943   C944    1.409   .     A
C943   C189    1.411   1_556 S
C943   C198    1.423   1_556 S
C944   C948    1.409   .     A
C946   C947    1.419   .     A
C946   C181    1.427   1_556 S
C946   C198    1.435   1_556 S
C947   C948    1.396   .     A
C948   H972    1.075   .     S
H960   C1171   1.086   .     S
H962   C27     1.111   1_655 S
H965   C776    1.111   1_655 S
H966   C776    1.110   1_655 S
H974   C1181   1.085   .     S
O977   Zn993   1.961   .     S
O977   Zn996   1.933   .     S
O977   Zn995   1.929   .     S
O977   Zn994   1.971   .     S
O978   Zn994   1.940   .     S
O979   Zn996   1.958   .     S
O980   Zn995   1.961   .     S
O981   Zn993   1.943   .     S
O985   Zn993   1.931   .     S
O986   Zn996   1.925   .     S
O987   Zn994   1.928   .     S
O988   Zn995   1.945   .     S
O989   Zn996   1.947   .     S
O990   Zn993   1.929   .     S
O991   Zn994   1.926   .     S
O992   Zn995   1.926   .     S
C997   O1070   1.290   .     A
C997   C1003   1.444   .     S
C997   O1072   1.263   .     A
C998   C1028   1.419   .     A
C998   C1012   1.405   .     A
C998   C1020   1.537   .     S
C999   C1011   1.392   .     A
C999   H1032   1.086   .     S
C999   C1012   1.388   .     A
C1000  O1071   1.278   .     A
C1000  C1002   1.469   .     S
C1000  O1073   1.278   .     A
C1001  C1013   1.405   .     A
C1001  C1010   1.479   .     S
C1001  C1027   1.426   .     A
C1002  C1086   1.358   .     S
C1002  C1107   1.537   .     S
C1003  C1168   1.358   1_455 S
C1003  C1180   1.494   1_455 S
C1004  C1007   1.459   .     S
C1004  C1254   1.342   .     S
C1004  C1264   1.500   .     S
C1005  C1006   1.433   .     S
C1006  O1074   1.288   .     A
C1006  O1068   1.284   .     A
C1007  O1069   1.278   .     A
C1007  O1075   1.265   .     A
C1008  C1013   1.403   .     A
C1008  C272    1.398   1_556 S
C1008  C275    1.519   1_556 S
C1009  O1061   1.277   .     A
C1009  O1063   1.271   .     A
C1009  C1012   1.444   .     S
C1010  O1062   1.288   .     A
C1010  O1064   1.276   .     A
C1013  H1053   1.081   .     S
C1014  O1065   1.222   .     D
C1014  H1056   1.082   .     S
C1014  C1086   1.494   .     S
C1015  O1066   1.221   .     D
C1016  C1030   1.525   .     S
C1016  H1035   1.108   .     S
C1016  H1034   1.106   .     S
C1016  C1017   1.533   .     S
C1017  H1058   1.111   .     S
C1017  H1059   1.109   .     S
C1017  H1033   1.111   .     S
C1018  H1036   1.082   .     S
C1018  C264    1.486   1_556 S
C1018  O320    1.222   1_556 S
C1019  H1054   1.083   .     S
C1020  C1021   1.535   .     S
C1020  H1040   1.103   .     S
C1020  H1041   1.111   .     S
C1021  H1039   1.112   .     S
C1021  H1037   1.107   .     S
C1021  H1038   1.111   .     S
C1022  H1046   1.111   .     S
C1022  H1047   1.112   .     S
C1023  H1044   1.110   .     S
C1023  H1042   1.111   .     S
C1023  C275    1.530   1_556 S
C1023  H464    1.111   1_456 S
C1024  C1025   1.529   .     S
C1024  H1051   1.112   .     S
C1024  H1052   1.111   .     S
C1024  C1168   1.537   1_455 S
C1025  H1050   1.110   .     S
C1025  H1214   1.111   1_455 S
C1025  H1215   1.110   1_455 S
C1026  C1027   1.409   .     A
C1026  C272    1.411   1_556 S
C1026  C281    1.423   1_556 S
C1027  C1031   1.409   .     A
C1029  C1030   1.419   .     A
C1029  C264    1.427   1_556 S
C1029  C281    1.435   1_556 S
C1030  C1031   1.396   .     A
C1031  H1055   1.075   .     S
H1043  C1254   1.086   .     S
H1048  C1108   1.111   .     S
H1049  C1108   1.110   .     S
H1057  C1264   1.085   .     S
O1060  Zn1076  1.961   .     S
O1060  Zn1079  1.933   .     S
O1060  Zn1078  1.929   .     S
O1060  Zn1077  1.971   .     S
O1061  Zn1077  1.940   .     S
O1062  Zn1079  1.958   .     S
O1063  Zn1078  1.961   .     S
O1064  Zn1076  1.943   .     S
O1068  Zn1076  1.931   .     S
O1069  Zn1079  1.925   .     S
O1070  Zn1077  1.928   .     S
O1071  Zn1078  1.945   .     S
O1072  Zn1079  1.947   .     S
O1073  Zn1076  1.929   .     S
O1074  Zn1077  1.926   .     S
O1075  Zn1078  1.926   .     S
C1080  O1153   1.290   .     A
C1080  C1086   1.444   .     S
C1080  O1155   1.263   .     A
C1081  C1111   1.419   .     A
C1081  C1095   1.405   .     A
C1081  C1103   1.537   .     S
C1082  C1094   1.392   .     A
C1082  H1115   1.086   .     S
C1082  C1095   1.388   .     A
C1083  O1154   1.278   .     A
C1083  C1085   1.469   .     S
C1083  O1156   1.278   .     A
C1084  C1096   1.405   .     A
C1084  C1093   1.479   .     S
C1084  C1110   1.426   .     A
C1085  C1169   1.358   .     S
C1085  C1190   1.537   .     S
C1087  C1090   1.459   .     S
C1087  C1337   1.342   .     S
C1087  C1347   1.500   .     S
C1088  C1089   1.433   .     S
C1089  O1157   1.288   .     A
C1089  O1151   1.284   .     A
C1090  O1152   1.278   .     A
C1090  O1158   1.265   .     A
C1091  C1096   1.403   .     A
C1091  C355    1.398   1_556 S
C1091  C358    1.519   1_556 S
C1092  O1144   1.277   .     A
C1092  O1146   1.271   .     A
C1092  C1095   1.444   .     S
C1093  O1145   1.288   .     A
C1093  O1147   1.276   .     A
C1096  H1136   1.081   .     S
C1097  O1148   1.222   .     D
C1097  H1139   1.082   .     S
C1097  C1169   1.494   .     S
C1098  O1149   1.221   .     D
C1099  C1113   1.525   .     S
C1099  H1118   1.108   .     S
C1099  H1117   1.106   .     S
C1099  C1100   1.533   .     S
C1100  H1141   1.111   .     S
C1100  H1142   1.109   .     S
C1100  H1116   1.111   .     S
C1101  H1119   1.082   .     S
C1101  C347    1.486   1_556 S
C1101  O403    1.222   1_556 S
C1102  H1137   1.083   .     S
C1103  C1104   1.535   .     S
C1103  H1123   1.103   .     S
C1103  H1124   1.111   .     S
C1104  H1122   1.112   .     S
C1104  H1120   1.107   .     S
C1104  H1121   1.111   .     S
C1105  H1129   1.111   .     S
C1105  H1130   1.112   .     S
C1106  H1127   1.110   .     S
C1106  H1125   1.111   .     S
C1106  C358    1.530   1_556 S
C1106  H298    1.111   1_556 S
C1107  C1108   1.529   .     S
C1107  H1134   1.112   .     S
C1107  H1135   1.111   .     S
C1108  H1133   1.110   .     S
C1109  C1110   1.409   .     A
C1109  C355    1.411   1_556 S
C1109  C364    1.423   1_556 S
C1110  C1114   1.409   .     A
C1112  C1113   1.419   .     A
C1112  C347    1.427   1_556 S
C1112  C364    1.435   1_556 S
C1113  C1114   1.396   .     A
C1114  H1138   1.075   .     S
H1126  C1337   1.086   .     S
H1131  C1191   1.111   .     S
H1132  C1191   1.110   .     S
H1140  C1347   1.085   .     S
O1143  Zn1159  1.961   .     S
O1143  Zn1162  1.933   .     S
O1143  Zn1161  1.929   .     S
O1143  Zn1160  1.971   .     S
O1144  Zn1160  1.940   .     S
O1145  Zn1162  1.958   .     S
O1146  Zn1161  1.961   .     S
O1147  Zn1159  1.943   .     S
O1151  Zn1159  1.931   .     S
O1152  Zn1162  1.925   .     S
O1153  Zn1160  1.928   .     S
O1154  Zn1161  1.945   .     S
O1155  Zn1162  1.947   .     S
O1156  Zn1159  1.929   .     S
O1157  Zn1160  1.926   .     S
O1158  Zn1161  1.926   .     S
C1163  O1236   1.290   .     A
C1163  C1169   1.444   .     S
C1163  O1238   1.263   .     A
C1164  C1194   1.419   .     A
C1164  C1178   1.405   .     A
C1164  C1186   1.537   .     S
C1165  C1177   1.392   .     A
C1165  H1198   1.086   .     S
C1165  C1178   1.388   .     A
C1166  O1237   1.278   .     A
C1166  C1168   1.469   .     S
C1166  O1239   1.278   .     A
C1167  C1179   1.405   .     A
C1167  C1176   1.479   .     S
C1167  C1193   1.426   .     A
C1168  C1003   1.358   1_655 S
C1168  C1024   1.537   1_655 S
C1170  C1173   1.459   .     S
C1170  C1420   1.342   .     S
C1170  C1430   1.500   .     S
C1171  C1172   1.433   .     S
C1172  O1240   1.288   .     A
C1172  O1234   1.284   .     A
C1173  O1235   1.278   .     A
C1173  O1241   1.265   .     A
C1174  C1179   1.403   .     A
C1174  C438    1.398   1_556 S
C1174  C441    1.519   1_556 S
C1175  O1227   1.277   .     A
C1175  O1229   1.271   .     A
C1175  C1178   1.444   .     S
C1176  O1228   1.288   .     A
C1176  O1230   1.276   .     A
C1179  H1219   1.081   .     S
C1180  O1231   1.222   .     D
C1180  H1222   1.082   .     S
C1180  C1003   1.494   1_655 S
C1181  O1232   1.221   .     D
C1182  C1196   1.525   .     S
C1182  H1201   1.108   .     S
C1182  H1200   1.106   .     S
C1182  C1183   1.533   .     S
C1183  H1224   1.111   .     S
C1183  H1225   1.109   .     S
C1183  H1199   1.111   .     S
C1184  H1202   1.082   .     S
C1184  C430    1.486   1_556 S
C1184  O486    1.222   1_556 S
C1185  H1220   1.083   .     S
C1186  C1187   1.535   .     S
C1186  H1206   1.103   .     S
C1186  H1207   1.111   .     S
C1187  H1205   1.112   .     S
C1187  H1203   1.107   .     S
C1187  H1204   1.111   .     S
C1188  H1212   1.111   .     S
C1188  H1213   1.112   .     S
C1189  H1210   1.110   .     S
C1189  H1208   1.111   .     S
C1189  C441    1.530   1_556 S
C1189  H381    1.111   1_556 S
C1190  C1191   1.529   .     S
C1190  H1217   1.112   .     S
C1190  H1218   1.111   .     S
C1191  H1216   1.110   .     S
C1192  C1193   1.409   .     A
C1192  C438    1.411   1_556 S
C1192  C447    1.423   1_556 S
C1193  C1197   1.409   .     A
C1195  C1196   1.419   .     A
C1195  C430    1.427   1_556 S
C1195  C447    1.435   1_556 S
C1196  C1197   1.396   .     A
C1197  H1221   1.075   .     S
H1209  C1420   1.086   .     S
H1211  C276    1.111   1_655 S
H1214  C1025   1.111   1_655 S
H1215  C1025   1.110   1_655 S
H1223  C1430   1.085   .     S
O1226  Zn1242  1.961   .     S
O1226  Zn1245  1.933   .     S
O1226  Zn1244  1.929   .     S
O1226  Zn1243  1.971   .     S
O1227  Zn1243  1.940   .     S
O1228  Zn1245  1.958   .     S
O1229  Zn1244  1.961   .     S
O1230  Zn1242  1.943   .     S
O1234  Zn1242  1.931   .     S
O1235  Zn1245  1.925   .     S
O1236  Zn1243  1.928   .     S
O1237  Zn1244  1.945   .     S
O1238  Zn1245  1.947   .     S
O1239  Zn1242  1.929   .     S
O1240  Zn1243  1.926   .     S
O1241  Zn1244  1.926   .     S
C1246  O1319   1.290   .     A
C1246  C1252   1.444   .     S
C1246  O1321   1.263   .     A
C1247  C1277   1.419   .     A
C1247  C1261   1.405   .     A
C1247  C1269   1.537   .     S
C1248  C1260   1.392   .     A
C1248  H1281   1.086   .     S
C1248  C1261   1.388   .     A
C1249  O1320   1.278   .     A
C1249  C1251   1.469   .     S
C1249  O1322   1.278   .     A
C1250  C1262   1.405   .     A
C1250  C1259   1.479   .     S
C1250  C1276   1.426   .     A
C1251  C1335   1.358   .     S
C1251  C1356   1.537   .     S
C1252  C1417   1.358   1_455 S
C1252  C1429   1.494   1_455 S
C1253  C1256   1.459   .     S
C1253  C756    1.342   1_565 S
C1253  C766    1.500   1_565 S
C1254  C1255   1.433   .     S
C1255  O1323   1.288   .     A
C1255  O1317   1.284   .     A
C1256  O1318   1.278   .     A
C1256  O1324   1.265   .     A
C1257  C1262   1.403   .     A
C1257  C521    1.398   1_556 S
C1257  C524    1.519   1_556 S
C1258  O1310   1.277   .     A
C1258  O1312   1.271   .     A
C1258  C1261   1.444   .     S
C1259  O1311   1.288   .     A
C1259  O1313   1.276   .     A
C1262  H1302   1.081   .     S
C1263  O1314   1.222   .     D
C1263  H1305   1.082   .     S
C1263  C1335   1.494   .     S
C1264  O1315   1.221   .     D
C1265  C1279   1.525   .     S
C1265  H1284   1.108   .     S
C1265  H1283   1.106   .     S
C1265  C1266   1.533   .     S
C1266  H1307   1.111   .     S
C1266  H1308   1.109   .     S
C1266  H1282   1.111   .     S
C1267  H1285   1.082   .     S
C1267  C513    1.486   1_556 S
C1267  O569    1.222   1_556 S
C1268  H1303   1.083   .     S
C1269  C1270   1.535   .     S
C1269  H1289   1.103   .     S
C1269  H1290   1.111   .     S
C1270  H1288   1.112   .     S
C1270  H1286   1.107   .     S
C1270  H1287   1.111   .     S
C1271  H1295   1.111   .     S
C1271  H1296   1.112   .     S
C1272  H1293   1.110   .     S
C1272  H1291   1.111   .     S
C1272  C524    1.530   1_556 S
C1272  H713    1.111   1_456 S
C1273  C1274   1.529   .     S
C1273  H1300   1.112   .     S
C1273  H1301   1.111   .     S
C1273  C1417   1.537   1_455 S
C1274  H1299   1.110   .     S
C1274  H1463   1.111   1_455 S
C1274  H1464   1.110   1_455 S
C1275  C1276   1.409   .     A
C1275  C521    1.411   1_556 S
C1275  C530    1.423   1_556 S
C1276  C1280   1.409   .     A
C1278  C1279   1.419   .     A
C1278  C513    1.427   1_556 S
C1278  C530    1.435   1_556 S
C1279  C1280   1.396   .     A
C1280  H1304   1.075   .     S
H1292  C756    1.086   1_565 S
H1297  C1357   1.111   .     S
H1298  C1357   1.110   .     S
H1306  C766    1.085   1_565 S
O1309  Zn1325  1.961   .     S
O1309  Zn1328  1.933   .     S
O1309  Zn1327  1.929   .     S
O1309  Zn1326  1.971   .     S
O1310  Zn1326  1.940   .     S
O1311  Zn1328  1.958   .     S
O1312  Zn1327  1.961   .     S
O1313  Zn1325  1.943   .     S
O1317  Zn1325  1.931   .     S
O1318  Zn1328  1.925   .     S
O1319  Zn1326  1.928   .     S
O1320  Zn1327  1.945   .     S
O1321  Zn1328  1.947   .     S
O1322  Zn1325  1.929   .     S
O1323  Zn1326  1.926   .     S
O1324  Zn1327  1.926   .     S
C1329  O1402   1.290   .     A
C1329  C1335   1.444   .     S
C1329  O1404   1.263   .     A
C1330  C1360   1.419   .     A
C1330  C1344   1.405   .     A
C1330  C1352   1.537   .     S
C1331  C1343   1.392   .     A
C1331  H1364   1.086   .     S
C1331  C1344   1.388   .     A
C1332  O1403   1.278   .     A
C1332  C1334   1.469   .     S
C1332  O1405   1.278   .     A
C1333  C1345   1.405   .     A
C1333  C1342   1.479   .     S
C1333  C1359   1.426   .     A
C1334  C1418   1.358   .     S
C1334  C1439   1.537   .     S
C1336  C1339   1.459   .     S
C1336  C839    1.342   1_565 S
C1336  C849    1.500   1_565 S
C1337  C1338   1.433   .     S
C1338  O1406   1.288   .     A
C1338  O1400   1.284   .     A
C1339  O1401   1.278   .     A
C1339  O1407   1.265   .     A
C1340  C1345   1.403   .     A
C1340  C604    1.398   1_556 S
C1340  C607    1.519   1_556 S
C1341  O1393   1.277   .     A
C1341  O1395   1.271   .     A
C1341  C1344   1.444   .     S
C1342  O1394   1.288   .     A
C1342  O1396   1.276   .     A
C1345  H1385   1.081   .     S
C1346  O1397   1.222   .     D
C1346  H1388   1.082   .     S
C1346  C1418   1.494   .     S
C1347  O1398   1.221   .     D
C1348  C1362   1.525   .     S
C1348  H1367   1.108   .     S
C1348  H1366   1.106   .     S
C1348  C1349   1.533   .     S
C1349  H1390   1.111   .     S
C1349  H1391   1.109   .     S
C1349  H1365   1.111   .     S
C1350  H1368   1.082   .     S
C1350  C596    1.486   1_556 S
C1350  O652    1.222   1_556 S
C1351  H1386   1.083   .     S
C1352  C1353   1.535   .     S
C1352  H1372   1.103   .     S
C1352  H1373   1.111   .     S
C1353  H1371   1.112   .     S
C1353  H1369   1.107   .     S
C1353  H1370   1.111   .     S
C1354  H1378   1.111   .     S
C1354  H1379   1.112   .     S
C1355  H1376   1.110   .     S
C1355  H1374   1.111   .     S
C1355  C607    1.530   1_556 S
C1355  H547    1.111   1_556 S
C1356  C1357   1.529   .     S
C1356  H1383   1.112   .     S
C1356  H1384   1.111   .     S
C1357  H1382   1.110   .     S
C1358  C1359   1.409   .     A
C1358  C604    1.411   1_556 S
C1358  C613    1.423   1_556 S
C1359  C1363   1.409   .     A
C1361  C1362   1.419   .     A
C1361  C596    1.427   1_556 S
C1361  C613    1.435   1_556 S
C1362  C1363   1.396   .     A
C1363  H1387   1.075   .     S
H1375  C839    1.086   1_565 S
H1380  C1440   1.111   .     S
H1381  C1440   1.110   .     S
H1389  C849    1.085   1_565 S
O1392  Zn1408  1.961   .     S
O1392  Zn1411  1.933   .     S
O1392  Zn1410  1.929   .     S
O1392  Zn1409  1.971   .     S
O1393  Zn1409  1.940   .     S
O1394  Zn1411  1.958   .     S
O1395  Zn1410  1.961   .     S
O1396  Zn1408  1.943   .     S
O1400  Zn1408  1.931   .     S
O1401  Zn1411  1.925   .     S
O1402  Zn1409  1.928   .     S
O1403  Zn1410  1.945   .     S
O1404  Zn1411  1.947   .     S
O1405  Zn1408  1.929   .     S
O1406  Zn1409  1.926   .     S
O1407  Zn1410  1.926   .     S
C1412  O1485   1.290   .     A
C1412  C1418   1.444   .     S
C1412  O1487   1.263   .     A
C1413  C1443   1.419   .     A
C1413  C1427   1.405   .     A
C1413  C1435   1.537   .     S
C1414  C1426   1.392   .     A
C1414  H1447   1.086   .     S
C1414  C1427   1.388   .     A
C1415  O1486   1.278   .     A
C1415  C1417   1.469   .     S
C1415  O1488   1.278   .     A
C1416  C1428   1.405   .     A
C1416  C1425   1.479   .     S
C1416  C1442   1.426   .     A
C1417  C1252   1.358   1_655 S
C1417  C1273   1.537   1_655 S
C1419  C1422   1.459   .     S
C1419  C922    1.342   1_565 S
C1419  C932    1.500   1_565 S
C1420  C1421   1.433   .     S
C1421  O1489   1.288   .     A
C1421  O1483   1.284   .     A
C1422  O1484   1.278   .     A
C1422  O1490   1.265   .     A
C1423  C1428   1.403   .     A
C1423  C687    1.398   1_556 S
C1423  C690    1.519   1_556 S
C1424  O1476   1.277   .     A
C1424  O1478   1.271   .     A
C1424  C1427   1.444   .     S
C1425  O1477   1.288   .     A
C1425  O1479   1.276   .     A
C1428  H1468   1.081   .     S
C1429  O1480   1.222   .     D
C1429  H1471   1.082   .     S
C1429  C1252   1.494   1_655 S
C1430  O1481   1.221   .     D
C1431  C1445   1.525   .     S
C1431  H1450   1.108   .     S
C1431  H1449   1.106   .     S
C1431  C1432   1.533   .     S
C1432  H1473   1.111   .     S
C1432  H1474   1.109   .     S
C1432  H1448   1.111   .     S
C1433  H1451   1.082   .     S
C1433  C679    1.486   1_556 S
C1433  O735    1.222   1_556 S
C1434  H1469   1.083   .     S
C1435  C1436   1.535   .     S
C1435  H1455   1.103   .     S
C1435  H1456   1.111   .     S
C1436  H1454   1.112   .     S
C1436  H1452   1.107   .     S
C1436  H1453   1.111   .     S
C1437  H1461   1.111   .     S
C1437  H1462   1.112   .     S
C1438  H1459   1.110   .     S
C1438  H1457   1.111   .     S
C1438  C690    1.530   1_556 S
C1438  H630    1.111   1_556 S
C1439  C1440   1.529   .     S
C1439  H1466   1.112   .     S
C1439  H1467   1.111   .     S
C1440  H1465   1.110   .     S
C1441  C1442   1.409   .     A
C1441  C687    1.411   1_556 S
C1441  C696    1.423   1_556 S
C1442  C1446   1.409   .     A
C1444  C1445   1.419   .     A
C1444  C679    1.427   1_556 S
C1444  C696    1.435   1_556 S
C1445  C1446   1.396   .     A
C1446  H1470   1.075   .     S
H1458  C922    1.086   1_565 S
H1460  C525    1.111   1_655 S
H1463  C1274   1.111   1_655 S
H1464  C1274   1.110   1_655 S
H1472  C932    1.085   1_565 S
O1475  Zn1491  1.961   .     S
O1475  Zn1494  1.933   .     S
O1475  Zn1493  1.929   .     S
O1475  Zn1492  1.971   .     S
O1476  Zn1492  1.940   .     S
O1477  Zn1494  1.958   .     S
O1478  Zn1493  1.961   .     S
O1479  Zn1491  1.943   .     S
O1483  Zn1491  1.931   .     S
O1484  Zn1494  1.925   .     S
O1485  Zn1492  1.928   .     S
O1486  Zn1493  1.945   .     S
O1487  Zn1494  1.947   .     S
O1488  Zn1491  1.929   .     S
O1489  Zn1492  1.926   .     S
O1490  Zn1493  1.926   .     S
