data_str_m3_o1_o1_pcu_sym.69
_audit_creation_date              2020-01-03
_audit_creation_method            'Materials Studio'
_symmetry_space_group_name_H-M    'P1'
_symmetry_Int_Tables_number       1
_symmetry_cell_setting            triclinic
loop_
_symmetry_equiv_pos_as_xyz
  x,y,z
_cell_length_a                    31.0318
_cell_length_b                    30.0432
_cell_length_c                    29.6237
_cell_angle_alpha                 90.0016
_cell_angle_beta                  89.5120
_cell_angle_gamma                 89.9964
loop_
_atom_site_label
_atom_site_type_symbol
_atom_site_fract_x
_atom_site_fract_y
_atom_site_fract_z
_atom_site_U_iso_or_equiv
_atom_site_adp_type
_atom_site_occupancy
C1     C     0.06255   0.19281   0.16648   0.00000  Uiso   1.00
C2     C     0.00015   0.21081   0.30937   0.00000  Uiso   1.00
C3     C     0.49985   0.21081   0.02396   0.00000  Uiso   1.00
C4     C     0.00016   0.28919   0.30938   0.00000  Uiso   1.00
C5     C     0.24985   0.03919   0.02396   0.00000  Uiso   1.00
C6     C     0.25016   0.46081   0.30937   0.00000  Uiso   1.00
C7     C     0.24984   0.46081   0.02396   0.00000  Uiso   1.00
C8     C     0.25015   0.03919   0.30938   0.00000  Uiso   1.00
C9     C     0.38522   0.14650   0.12577   0.00000  Uiso   1.00
C10    C     0.11479   0.35348   0.20755   0.00000  Uiso   1.00
C11    C     0.11215   0.35719   0.12499   0.00000  Uiso   1.00
C12    C     0.43745   0.30719   0.16685   0.00000  Uiso   1.00
C13    C     0.38783   0.14283   0.20834   0.00000  Uiso   1.00
C14    C     0.11480   0.14652   0.20755   0.00000  Uiso   1.00
C15    C     0.38519   0.35346   0.12579   0.00000  Uiso   1.00
C16    C     0.38785   0.35719   0.20835   0.00000  Uiso   1.00
C17    C     0.11217   0.14282   0.12499   0.00000  Uiso   1.00
C18    C     0.13521   0.39652   0.12578   0.00000  Uiso   1.00
C19    C     0.36478   0.10350   0.20756   0.00000  Uiso   1.00
C20    C     0.36217   0.10717   0.12499   0.00000  Uiso   1.00
C21    C     0.13785   0.39281   0.20834   0.00000  Uiso   1.00
C22    C     0.36481   0.39654   0.20755   0.00000  Uiso   1.00
C23    C     0.43746   0.19280   0.16685   0.00000  Uiso   1.00
C24    C     0.13520   0.10348   0.12578   0.00000  Uiso   1.00
C25    C     0.13783   0.10718   0.20834   0.00000  Uiso   1.00
C26    C     0.36216   0.39281   0.12499   0.00000  Uiso   1.00
C27    C     0.09845   0.33802   0.16615   0.00000  Uiso   1.00
C28    C     0.40155   0.16198   0.16717   0.00000  Uiso   1.00
C29    C     0.40153   0.33801   0.16718   0.00000  Uiso   1.00
C30    C     0.09847   0.16199   0.16615   0.00000  Uiso   1.00
C31    C     0.34845   0.08802   0.16616   0.00000  Uiso   1.00
C32    C     0.15155   0.41198   0.16718   0.00000  Uiso   1.00
C33    C     0.15153   0.08801   0.16718   0.00000  Uiso   1.00
C34    C     0.06254   0.30720   0.16648   0.00000  Uiso   1.00
C35    C     0.34847   0.41199   0.16615   0.00000  Uiso   1.00
C36    C     0.38868   0.17237   0.08441   0.00000  Uiso   1.00
C37    C     0.11136   0.32758   0.24890   0.00000  Uiso   1.00
C38    C     0.10645   0.33506   0.08184   0.00000  Uiso   1.00
C39    C     0.39351   0.16499   0.25148   0.00000  Uiso   1.00
C40    C     0.11138   0.17242   0.24889   0.00000  Uiso   1.00
C41    C     0.38859   0.32754   0.08445   0.00000  Uiso   1.00
C42    C     0.39354   0.33507   0.25150   0.00000  Uiso   1.00
C43    C     0.10649   0.16496   0.08185   0.00000  Uiso   1.00
C44    C     0.13864   0.42242   0.08444   0.00000  Uiso   1.00
C45    C     0.31255   0.44281   0.16648   0.00000  Uiso   1.00
C46    C     0.36132   0.07763   0.24892   0.00000  Uiso   1.00
C47    C     0.35649   0.08501   0.08185   0.00000  Uiso   1.00
C48    C     0.14355   0.41494   0.25149   0.00000  Uiso   1.00
C49    C     0.36141   0.42246   0.24888   0.00000  Uiso   1.00
C50    C     0.13862   0.07758   0.08444   0.00000  Uiso   1.00
C51    C     0.14351   0.08504   0.25149   0.00000  Uiso   1.00
C52    C     0.35646   0.41493   0.08184   0.00000  Uiso   1.00
C53    C     0.18745   0.05719   0.16685   0.00000  Uiso   1.00
C54    C     0.18746   0.44280   0.16685   0.00000  Uiso   1.00
C55    C     0.31255   0.05720   0.16648   0.00000  Uiso   1.00
C56    C     0.49984   0.28919   0.02396   0.00000  Uiso   1.00
Cl57   Cl    0.49873   0.34024   0.05308   0.00000  Uiso   1.00
Cl58   Cl    0.00124   0.15976   0.28026   0.00000  Uiso   1.00
Cl59   Cl    0.49876   0.15976   0.05307   0.00000  Uiso   1.00
Cl60   Cl    0.00126   0.34024   0.28026   0.00000  Uiso   1.00
Cl61   Cl    0.24876   0.09024   0.05308   0.00000  Uiso   1.00
Cl62   Cl    0.25127   0.40976   0.28026   0.00000  Uiso   1.00
Cl63   Cl    0.24874   0.40976   0.05307   0.00000  Uiso   1.00
Cl64   Cl    0.25124   0.09024   0.28026   0.00000  Uiso   1.00
N65    N     0.00000   0.25000   0.28573   0.00000  Uiso   1.00
N66    N     0.39102   0.30668   0.05172   0.00000  Uiso   1.00
N67    N     0.39760   0.31729   0.28582   0.00000  Uiso   1.00
N68    N     0.10243   0.18276   0.04752   0.00000  Uiso   1.00
N69    N     0.14109   0.44327   0.05169   0.00000  Uiso   1.00
N70    N     0.35884   0.05680   0.28169   0.00000  Uiso   1.00
N71    N     0.35244   0.06720   0.04754   0.00000  Uiso   1.00
N72    N     0.14762   0.43272   0.28582   0.00000  Uiso   1.00
N73    N     0.35898   0.44332   0.28162   0.00000  Uiso   1.00
N74    N     0.14105   0.05672   0.05169   0.00000  Uiso   1.00
N75    N     0.14757   0.06724   0.28581   0.00000  Uiso   1.00
N76    N     0.00000   0.25000   0.04760   0.00000  Uiso   1.00
N77    N     0.35240   0.43271   0.04751   0.00000  Uiso   1.00
N78    N     0.25000   0.00000   0.28573   0.00000  Uiso   1.00
N79    N     0.25000   0.00000   0.04760   0.00000  Uiso   1.00
N80    N     0.39116   0.19320   0.05165   0.00000  Uiso   1.00
N81    N     0.10891   0.30673   0.28165   0.00000  Uiso   1.00
N82    N     0.10238   0.31728   0.04752   0.00000  Uiso   1.00
N83    N     0.39756   0.18280   0.28579   0.00000  Uiso   1.00
N84    N     0.10895   0.19328   0.28164   0.00000  Uiso   1.00
O85    O     0.04581   0.20419   0.20487   0.00000  Uiso   1.00
O86    O     0.20420   0.04581   0.12846   0.00000  Uiso   1.00
O87    O     0.20420   0.04581   0.20487   0.00000  Uiso   1.00
O88    O     0.29581   0.45419   0.12846   0.00000  Uiso   1.00
O89    O     0.20420   0.45419   0.12846   0.00000  Uiso   1.00
O90    O     0.29581   0.04581   0.20487   0.00000  Uiso   1.00
O91    O     0.29581   0.04581   0.12846   0.00000  Uiso   1.00
O92    O     0.20420   0.45419   0.20487   0.00000  Uiso   1.00
O93    O     0.45420   0.29581   0.12846   0.00000  Uiso   1.00
O94    O     0.45420   0.29581   0.20487   0.00000  Uiso   1.00
O95    O     0.04581   0.20419   0.12846   0.00000  Uiso   1.00
O96    O     0.45420   0.20419   0.12846   0.00000  Uiso   1.00
O97    O     0.04581   0.29581   0.20487   0.00000  Uiso   1.00
O98    O     0.04581   0.29581   0.12846   0.00000  Uiso   1.00
O99    O     0.45420   0.20419   0.20487   0.00000  Uiso   1.00
O100   O     0.29581   0.45419   0.20487   0.00000  Uiso   1.00
Zn101  Zn    0.00000   0.25000   0.21771   0.00000  Uiso   1.00
Zn102  Zn    0.00000   0.25000   0.11563   0.00000  Uiso   1.00
Zn103  Zn    0.25000   0.00000   0.21771   0.00000  Uiso   1.00
Zn104  Zn    0.25000   0.00000   0.11563   0.00000  Uiso   1.00
C105   C     0.56255   0.19281   0.16648   0.00000  Uiso   1.00
C106   C     0.50015   0.21081   0.30937   0.00000  Uiso   1.00
C107   C     0.99985   0.21081   0.02396   0.00000  Uiso   1.00
C108   C     0.50016   0.28919   0.30938   0.00000  Uiso   1.00
C109   C     0.74985   0.03919   0.02396   0.00000  Uiso   1.00
C110   C     0.75016   0.46081   0.30937   0.00000  Uiso   1.00
C111   C     0.74984   0.46081   0.02396   0.00000  Uiso   1.00
C112   C     0.75015   0.03919   0.30938   0.00000  Uiso   1.00
C113   C     0.88522   0.14650   0.12577   0.00000  Uiso   1.00
C114   C     0.61479   0.35348   0.20755   0.00000  Uiso   1.00
C115   C     0.61215   0.35719   0.12499   0.00000  Uiso   1.00
C116   C     0.93745   0.30719   0.16685   0.00000  Uiso   1.00
C117   C     0.88783   0.14283   0.20834   0.00000  Uiso   1.00
C118   C     0.61480   0.14652   0.20755   0.00000  Uiso   1.00
C119   C     0.88519   0.35346   0.12579   0.00000  Uiso   1.00
C120   C     0.88785   0.35719   0.20835   0.00000  Uiso   1.00
C121   C     0.61217   0.14282   0.12499   0.00000  Uiso   1.00
C122   C     0.63521   0.39652   0.12578   0.00000  Uiso   1.00
C123   C     0.86478   0.10350   0.20756   0.00000  Uiso   1.00
C124   C     0.86217   0.10717   0.12499   0.00000  Uiso   1.00
C125   C     0.63785   0.39281   0.20834   0.00000  Uiso   1.00
C126   C     0.86481   0.39654   0.20755   0.00000  Uiso   1.00
C127   C     0.93746   0.19280   0.16685   0.00000  Uiso   1.00
C128   C     0.63520   0.10348   0.12578   0.00000  Uiso   1.00
C129   C     0.63783   0.10718   0.20834   0.00000  Uiso   1.00
C130   C     0.86216   0.39281   0.12499   0.00000  Uiso   1.00
C131   C     0.59845   0.33802   0.16615   0.00000  Uiso   1.00
C132   C     0.90155   0.16198   0.16717   0.00000  Uiso   1.00
C133   C     0.90153   0.33801   0.16718   0.00000  Uiso   1.00
C134   C     0.59847   0.16199   0.16615   0.00000  Uiso   1.00
C135   C     0.84845   0.08802   0.16616   0.00000  Uiso   1.00
C136   C     0.65155   0.41198   0.16718   0.00000  Uiso   1.00
C137   C     0.65153   0.08801   0.16718   0.00000  Uiso   1.00
C138   C     0.56254   0.30720   0.16648   0.00000  Uiso   1.00
C139   C     0.84847   0.41199   0.16615   0.00000  Uiso   1.00
C140   C     0.88868   0.17237   0.08441   0.00000  Uiso   1.00
C141   C     0.61136   0.32758   0.24890   0.00000  Uiso   1.00
C142   C     0.60645   0.33506   0.08184   0.00000  Uiso   1.00
C143   C     0.89351   0.16499   0.25148   0.00000  Uiso   1.00
C144   C     0.61138   0.17242   0.24889   0.00000  Uiso   1.00
C145   C     0.88859   0.32754   0.08445   0.00000  Uiso   1.00
C146   C     0.89354   0.33507   0.25150   0.00000  Uiso   1.00
C147   C     0.60649   0.16496   0.08185   0.00000  Uiso   1.00
C148   C     0.63864   0.42242   0.08444   0.00000  Uiso   1.00
C149   C     0.81255   0.44281   0.16648   0.00000  Uiso   1.00
C150   C     0.86132   0.07763   0.24892   0.00000  Uiso   1.00
C151   C     0.85649   0.08501   0.08185   0.00000  Uiso   1.00
C152   C     0.64355   0.41494   0.25149   0.00000  Uiso   1.00
C153   C     0.86141   0.42246   0.24888   0.00000  Uiso   1.00
C154   C     0.63862   0.07758   0.08444   0.00000  Uiso   1.00
C155   C     0.64351   0.08504   0.25149   0.00000  Uiso   1.00
C156   C     0.85646   0.41493   0.08184   0.00000  Uiso   1.00
C157   C     0.68745   0.05719   0.16685   0.00000  Uiso   1.00
C158   C     0.68746   0.44280   0.16685   0.00000  Uiso   1.00
C159   C     0.81255   0.05720   0.16648   0.00000  Uiso   1.00
C160   C     0.99984   0.28919   0.02396   0.00000  Uiso   1.00
Cl161  Cl    0.99873   0.34024   0.05308   0.00000  Uiso   1.00
Cl162  Cl    0.50124   0.15976   0.28026   0.00000  Uiso   1.00
Cl163  Cl    0.99876   0.15976   0.05307   0.00000  Uiso   1.00
Cl164  Cl    0.50126   0.34024   0.28026   0.00000  Uiso   1.00
Cl165  Cl    0.74876   0.09024   0.05308   0.00000  Uiso   1.00
Cl166  Cl    0.75127   0.40976   0.28026   0.00000  Uiso   1.00
Cl167  Cl    0.74874   0.40976   0.05307   0.00000  Uiso   1.00
Cl168  Cl    0.75124   0.09024   0.28026   0.00000  Uiso   1.00
N169   N     0.50000   0.25000   0.28573   0.00000  Uiso   1.00
N170   N     0.89102   0.30668   0.05172   0.00000  Uiso   1.00
N171   N     0.89760   0.31729   0.28582   0.00000  Uiso   1.00
N172   N     0.60243   0.18276   0.04752   0.00000  Uiso   1.00
N173   N     0.64109   0.44327   0.05169   0.00000  Uiso   1.00
N174   N     0.85884   0.05680   0.28169   0.00000  Uiso   1.00
N175   N     0.85244   0.06720   0.04754   0.00000  Uiso   1.00
N176   N     0.64762   0.43272   0.28582   0.00000  Uiso   1.00
N177   N     0.85898   0.44332   0.28162   0.00000  Uiso   1.00
N178   N     0.64105   0.05672   0.05169   0.00000  Uiso   1.00
N179   N     0.64757   0.06724   0.28581   0.00000  Uiso   1.00
N180   N     0.50000   0.25000   0.04760   0.00000  Uiso   1.00
N181   N     0.85240   0.43271   0.04751   0.00000  Uiso   1.00
N182   N     0.75000   0.00000   0.28573   0.00000  Uiso   1.00
N183   N     0.75000   0.00000   0.04760   0.00000  Uiso   1.00
N184   N     0.89116   0.19320   0.05165   0.00000  Uiso   1.00
N185   N     0.60891   0.30673   0.28165   0.00000  Uiso   1.00
N186   N     0.60238   0.31728   0.04752   0.00000  Uiso   1.00
N187   N     0.89756   0.18280   0.28579   0.00000  Uiso   1.00
N188   N     0.60895   0.19328   0.28164   0.00000  Uiso   1.00
O189   O     0.54581   0.20419   0.20487   0.00000  Uiso   1.00
O190   O     0.70420   0.04581   0.12846   0.00000  Uiso   1.00
O191   O     0.70420   0.04581   0.20487   0.00000  Uiso   1.00
O192   O     0.79581   0.45419   0.12846   0.00000  Uiso   1.00
O193   O     0.70420   0.45419   0.12846   0.00000  Uiso   1.00
O194   O     0.79581   0.04581   0.20487   0.00000  Uiso   1.00
O195   O     0.79581   0.04581   0.12846   0.00000  Uiso   1.00
O196   O     0.70420   0.45419   0.20487   0.00000  Uiso   1.00
O197   O     0.95420   0.29581   0.12846   0.00000  Uiso   1.00
O198   O     0.95420   0.29581   0.20487   0.00000  Uiso   1.00
O199   O     0.54581   0.20419   0.12846   0.00000  Uiso   1.00
O200   O     0.95420   0.20419   0.12846   0.00000  Uiso   1.00
O201   O     0.54581   0.29581   0.20487   0.00000  Uiso   1.00
O202   O     0.54581   0.29581   0.12846   0.00000  Uiso   1.00
O203   O     0.95420   0.20419   0.20487   0.00000  Uiso   1.00
O204   O     0.79581   0.45419   0.20487   0.00000  Uiso   1.00
Zn205  Zn    0.50000   0.25000   0.21771   0.00000  Uiso   1.00
Zn206  Zn    0.50000   0.25000   0.11563   0.00000  Uiso   1.00
Zn207  Zn    0.75000   0.00000   0.21771   0.00000  Uiso   1.00
Zn208  Zn    0.75000   0.00000   0.11563   0.00000  Uiso   1.00
C209   C     0.06255   0.69281   0.16648   0.00000  Uiso   1.00
C210   C     0.00015   0.71081   0.30937   0.00000  Uiso   1.00
C211   C     0.49985   0.71081   0.02396   0.00000  Uiso   1.00
C212   C     0.00016   0.78919   0.30938   0.00000  Uiso   1.00
C213   C     0.24985   0.53919   0.02396   0.00000  Uiso   1.00
C214   C     0.25016   0.96081   0.30937   0.00000  Uiso   1.00
C215   C     0.24984   0.96081   0.02396   0.00000  Uiso   1.00
C216   C     0.25015   0.53919   0.30938   0.00000  Uiso   1.00
C217   C     0.38522   0.64650   0.12577   0.00000  Uiso   1.00
C218   C     0.11479   0.85348   0.20755   0.00000  Uiso   1.00
C219   C     0.11215   0.85719   0.12499   0.00000  Uiso   1.00
C220   C     0.43745   0.80719   0.16685   0.00000  Uiso   1.00
C221   C     0.38783   0.64283   0.20834   0.00000  Uiso   1.00
C222   C     0.11480   0.64652   0.20755   0.00000  Uiso   1.00
C223   C     0.38519   0.85346   0.12579   0.00000  Uiso   1.00
C224   C     0.38785   0.85719   0.20835   0.00000  Uiso   1.00
C225   C     0.11217   0.64282   0.12499   0.00000  Uiso   1.00
C226   C     0.13521   0.89652   0.12578   0.00000  Uiso   1.00
C227   C     0.36478   0.60350   0.20756   0.00000  Uiso   1.00
C228   C     0.36217   0.60717   0.12499   0.00000  Uiso   1.00
C229   C     0.13785   0.89281   0.20834   0.00000  Uiso   1.00
C230   C     0.36481   0.89654   0.20755   0.00000  Uiso   1.00
C231   C     0.43746   0.69280   0.16685   0.00000  Uiso   1.00
C232   C     0.13520   0.60348   0.12578   0.00000  Uiso   1.00
C233   C     0.13783   0.60718   0.20834   0.00000  Uiso   1.00
C234   C     0.36216   0.89281   0.12499   0.00000  Uiso   1.00
C235   C     0.09845   0.83802   0.16615   0.00000  Uiso   1.00
C236   C     0.40155   0.66198   0.16717   0.00000  Uiso   1.00
C237   C     0.40153   0.83801   0.16718   0.00000  Uiso   1.00
C238   C     0.09847   0.66199   0.16615   0.00000  Uiso   1.00
C239   C     0.34845   0.58802   0.16616   0.00000  Uiso   1.00
C240   C     0.15155   0.91198   0.16718   0.00000  Uiso   1.00
C241   C     0.15153   0.58801   0.16718   0.00000  Uiso   1.00
C242   C     0.06254   0.80720   0.16648   0.00000  Uiso   1.00
C243   C     0.34847   0.91199   0.16615   0.00000  Uiso   1.00
C244   C     0.38868   0.67237   0.08441   0.00000  Uiso   1.00
C245   C     0.11136   0.82758   0.24890   0.00000  Uiso   1.00
C246   C     0.10645   0.83506   0.08184   0.00000  Uiso   1.00
C247   C     0.39351   0.66499   0.25148   0.00000  Uiso   1.00
C248   C     0.11138   0.67242   0.24889   0.00000  Uiso   1.00
C249   C     0.38859   0.82754   0.08445   0.00000  Uiso   1.00
C250   C     0.39354   0.83507   0.25150   0.00000  Uiso   1.00
C251   C     0.10649   0.66496   0.08185   0.00000  Uiso   1.00
C252   C     0.13864   0.92242   0.08444   0.00000  Uiso   1.00
C253   C     0.31255   0.94281   0.16648   0.00000  Uiso   1.00
C254   C     0.36132   0.57763   0.24892   0.00000  Uiso   1.00
C255   C     0.35649   0.58501   0.08185   0.00000  Uiso   1.00
C256   C     0.14355   0.91494   0.25149   0.00000  Uiso   1.00
C257   C     0.36141   0.92246   0.24888   0.00000  Uiso   1.00
C258   C     0.13862   0.57758   0.08444   0.00000  Uiso   1.00
C259   C     0.14351   0.58504   0.25149   0.00000  Uiso   1.00
C260   C     0.35646   0.91493   0.08184   0.00000  Uiso   1.00
C261   C     0.18745   0.55719   0.16685   0.00000  Uiso   1.00
C262   C     0.18746   0.94280   0.16685   0.00000  Uiso   1.00
C263   C     0.31255   0.55720   0.16648   0.00000  Uiso   1.00
C264   C     0.49984   0.78919   0.02396   0.00000  Uiso   1.00
Cl265  Cl    0.49873   0.84024   0.05308   0.00000  Uiso   1.00
Cl266  Cl    0.00124   0.65976   0.28026   0.00000  Uiso   1.00
Cl267  Cl    0.49876   0.65976   0.05307   0.00000  Uiso   1.00
Cl268  Cl    0.00126   0.84024   0.28026   0.00000  Uiso   1.00
Cl269  Cl    0.24876   0.59024   0.05308   0.00000  Uiso   1.00
Cl270  Cl    0.25127   0.90976   0.28026   0.00000  Uiso   1.00
Cl271  Cl    0.24874   0.90976   0.05307   0.00000  Uiso   1.00
Cl272  Cl    0.25124   0.59024   0.28026   0.00000  Uiso   1.00
N273   N     0.00000   0.75000   0.28573   0.00000  Uiso   1.00
N274   N     0.39102   0.80668   0.05172   0.00000  Uiso   1.00
N275   N     0.39760   0.81729   0.28582   0.00000  Uiso   1.00
N276   N     0.10243   0.68276   0.04752   0.00000  Uiso   1.00
N277   N     0.14109   0.94327   0.05169   0.00000  Uiso   1.00
N278   N     0.35884   0.55680   0.28169   0.00000  Uiso   1.00
N279   N     0.35244   0.56720   0.04754   0.00000  Uiso   1.00
N280   N     0.14762   0.93272   0.28582   0.00000  Uiso   1.00
N281   N     0.35898   0.94332   0.28162   0.00000  Uiso   1.00
N282   N     0.14105   0.55672   0.05169   0.00000  Uiso   1.00
N283   N     0.14757   0.56724   0.28581   0.00000  Uiso   1.00
N284   N     0.00000   0.75000   0.04760   0.00000  Uiso   1.00
N285   N     0.35240   0.93271   0.04751   0.00000  Uiso   1.00
N286   N     0.25000   0.50000   0.28573   0.00000  Uiso   1.00
N287   N     0.25000   0.50000   0.04760   0.00000  Uiso   1.00
N288   N     0.39116   0.69320   0.05165   0.00000  Uiso   1.00
N289   N     0.10891   0.80673   0.28165   0.00000  Uiso   1.00
N290   N     0.10238   0.81728   0.04752   0.00000  Uiso   1.00
N291   N     0.39756   0.68280   0.28579   0.00000  Uiso   1.00
N292   N     0.10895   0.69328   0.28164   0.00000  Uiso   1.00
O293   O     0.04581   0.70419   0.20487   0.00000  Uiso   1.00
O294   O     0.20420   0.54581   0.12846   0.00000  Uiso   1.00
O295   O     0.20420   0.54581   0.20487   0.00000  Uiso   1.00
O296   O     0.29581   0.95419   0.12846   0.00000  Uiso   1.00
O297   O     0.20420   0.95419   0.12846   0.00000  Uiso   1.00
O298   O     0.29581   0.54581   0.20487   0.00000  Uiso   1.00
O299   O     0.29581   0.54581   0.12846   0.00000  Uiso   1.00
O300   O     0.20420   0.95419   0.20487   0.00000  Uiso   1.00
O301   O     0.45420   0.79581   0.12846   0.00000  Uiso   1.00
O302   O     0.45420   0.79581   0.20487   0.00000  Uiso   1.00
O303   O     0.04581   0.70419   0.12846   0.00000  Uiso   1.00
O304   O     0.45420   0.70419   0.12846   0.00000  Uiso   1.00
O305   O     0.04581   0.79581   0.20487   0.00000  Uiso   1.00
O306   O     0.04581   0.79581   0.12846   0.00000  Uiso   1.00
O307   O     0.45420   0.70419   0.20487   0.00000  Uiso   1.00
O308   O     0.29581   0.95419   0.20487   0.00000  Uiso   1.00
Zn309  Zn    0.00000   0.75000   0.21771   0.00000  Uiso   1.00
Zn310  Zn    0.00000   0.75000   0.11563   0.00000  Uiso   1.00
Zn311  Zn    0.25000   0.50000   0.21771   0.00000  Uiso   1.00
Zn312  Zn    0.25000   0.50000   0.11563   0.00000  Uiso   1.00
C313   C     0.56255   0.69281   0.16648   0.00000  Uiso   1.00
C314   C     0.50015   0.71081   0.30937   0.00000  Uiso   1.00
C315   C     0.99985   0.71081   0.02396   0.00000  Uiso   1.00
C316   C     0.50016   0.78919   0.30938   0.00000  Uiso   1.00
C317   C     0.74985   0.53919   0.02396   0.00000  Uiso   1.00
C318   C     0.75016   0.96081   0.30937   0.00000  Uiso   1.00
C319   C     0.74984   0.96081   0.02396   0.00000  Uiso   1.00
C320   C     0.75015   0.53919   0.30938   0.00000  Uiso   1.00
C321   C     0.88522   0.64650   0.12577   0.00000  Uiso   1.00
C322   C     0.61479   0.85348   0.20755   0.00000  Uiso   1.00
C323   C     0.61215   0.85719   0.12499   0.00000  Uiso   1.00
C324   C     0.93745   0.80719   0.16685   0.00000  Uiso   1.00
C325   C     0.88783   0.64283   0.20834   0.00000  Uiso   1.00
C326   C     0.61480   0.64652   0.20755   0.00000  Uiso   1.00
C327   C     0.88519   0.85346   0.12579   0.00000  Uiso   1.00
C328   C     0.88785   0.85719   0.20835   0.00000  Uiso   1.00
C329   C     0.61217   0.64282   0.12499   0.00000  Uiso   1.00
C330   C     0.63521   0.89652   0.12578   0.00000  Uiso   1.00
C331   C     0.86478   0.60350   0.20756   0.00000  Uiso   1.00
C332   C     0.86217   0.60717   0.12499   0.00000  Uiso   1.00
C333   C     0.63785   0.89281   0.20834   0.00000  Uiso   1.00
C334   C     0.86481   0.89654   0.20755   0.00000  Uiso   1.00
C335   C     0.93746   0.69280   0.16685   0.00000  Uiso   1.00
C336   C     0.63520   0.60348   0.12578   0.00000  Uiso   1.00
C337   C     0.63783   0.60718   0.20834   0.00000  Uiso   1.00
C338   C     0.86216   0.89281   0.12499   0.00000  Uiso   1.00
C339   C     0.59845   0.83802   0.16615   0.00000  Uiso   1.00
C340   C     0.90155   0.66198   0.16717   0.00000  Uiso   1.00
C341   C     0.90153   0.83801   0.16718   0.00000  Uiso   1.00
C342   C     0.59847   0.66199   0.16615   0.00000  Uiso   1.00
C343   C     0.84845   0.58802   0.16616   0.00000  Uiso   1.00
C344   C     0.65155   0.91198   0.16718   0.00000  Uiso   1.00
C345   C     0.65153   0.58801   0.16718   0.00000  Uiso   1.00
C346   C     0.56254   0.80720   0.16648   0.00000  Uiso   1.00
C347   C     0.84847   0.91199   0.16615   0.00000  Uiso   1.00
C348   C     0.88868   0.67237   0.08441   0.00000  Uiso   1.00
C349   C     0.61136   0.82758   0.24890   0.00000  Uiso   1.00
C350   C     0.60645   0.83506   0.08184   0.00000  Uiso   1.00
C351   C     0.89351   0.66499   0.25148   0.00000  Uiso   1.00
C352   C     0.61138   0.67242   0.24889   0.00000  Uiso   1.00
C353   C     0.88859   0.82754   0.08445   0.00000  Uiso   1.00
C354   C     0.89354   0.83507   0.25150   0.00000  Uiso   1.00
C355   C     0.60649   0.66496   0.08185   0.00000  Uiso   1.00
C356   C     0.63864   0.92242   0.08444   0.00000  Uiso   1.00
C357   C     0.81255   0.94281   0.16648   0.00000  Uiso   1.00
C358   C     0.86132   0.57763   0.24892   0.00000  Uiso   1.00
C359   C     0.85649   0.58501   0.08185   0.00000  Uiso   1.00
C360   C     0.64355   0.91494   0.25149   0.00000  Uiso   1.00
C361   C     0.86141   0.92246   0.24888   0.00000  Uiso   1.00
C362   C     0.63862   0.57758   0.08444   0.00000  Uiso   1.00
C363   C     0.64351   0.58504   0.25149   0.00000  Uiso   1.00
C364   C     0.85646   0.91493   0.08184   0.00000  Uiso   1.00
C365   C     0.68745   0.55719   0.16685   0.00000  Uiso   1.00
C366   C     0.68746   0.94280   0.16685   0.00000  Uiso   1.00
C367   C     0.81255   0.55720   0.16648   0.00000  Uiso   1.00
C368   C     0.99984   0.78919   0.02396   0.00000  Uiso   1.00
Cl369  Cl    0.99873   0.84024   0.05308   0.00000  Uiso   1.00
Cl370  Cl    0.50124   0.65976   0.28026   0.00000  Uiso   1.00
Cl371  Cl    0.99876   0.65976   0.05307   0.00000  Uiso   1.00
Cl372  Cl    0.50126   0.84024   0.28026   0.00000  Uiso   1.00
Cl373  Cl    0.74876   0.59024   0.05308   0.00000  Uiso   1.00
Cl374  Cl    0.75127   0.90976   0.28026   0.00000  Uiso   1.00
Cl375  Cl    0.74874   0.90976   0.05307   0.00000  Uiso   1.00
Cl376  Cl    0.75124   0.59024   0.28026   0.00000  Uiso   1.00
N377   N     0.50000   0.75000   0.28573   0.00000  Uiso   1.00
N378   N     0.89102   0.80668   0.05172   0.00000  Uiso   1.00
N379   N     0.89760   0.81729   0.28582   0.00000  Uiso   1.00
N380   N     0.60243   0.68276   0.04752   0.00000  Uiso   1.00
N381   N     0.64109   0.94327   0.05169   0.00000  Uiso   1.00
N382   N     0.85884   0.55680   0.28169   0.00000  Uiso   1.00
N383   N     0.85244   0.56720   0.04754   0.00000  Uiso   1.00
N384   N     0.64762   0.93272   0.28582   0.00000  Uiso   1.00
N385   N     0.85898   0.94332   0.28162   0.00000  Uiso   1.00
N386   N     0.64105   0.55672   0.05169   0.00000  Uiso   1.00
N387   N     0.64757   0.56724   0.28581   0.00000  Uiso   1.00
N388   N     0.50000   0.75000   0.04760   0.00000  Uiso   1.00
N389   N     0.85240   0.93271   0.04751   0.00000  Uiso   1.00
N390   N     0.75000   0.50000   0.28573   0.00000  Uiso   1.00
N391   N     0.75000   0.50000   0.04760   0.00000  Uiso   1.00
N392   N     0.89116   0.69320   0.05165   0.00000  Uiso   1.00
N393   N     0.60891   0.80673   0.28165   0.00000  Uiso   1.00
N394   N     0.60238   0.81728   0.04752   0.00000  Uiso   1.00
N395   N     0.89756   0.68280   0.28579   0.00000  Uiso   1.00
N396   N     0.60895   0.69328   0.28164   0.00000  Uiso   1.00
O397   O     0.54581   0.70419   0.20487   0.00000  Uiso   1.00
O398   O     0.70420   0.54581   0.12846   0.00000  Uiso   1.00
O399   O     0.70420   0.54581   0.20487   0.00000  Uiso   1.00
O400   O     0.79581   0.95419   0.12846   0.00000  Uiso   1.00
O401   O     0.70420   0.95419   0.12846   0.00000  Uiso   1.00
O402   O     0.79581   0.54581   0.20487   0.00000  Uiso   1.00
O403   O     0.79581   0.54581   0.12846   0.00000  Uiso   1.00
O404   O     0.70420   0.95419   0.20487   0.00000  Uiso   1.00
O405   O     0.95420   0.79581   0.12846   0.00000  Uiso   1.00
O406   O     0.95420   0.79581   0.20487   0.00000  Uiso   1.00
O407   O     0.54581   0.70419   0.12846   0.00000  Uiso   1.00
O408   O     0.95420   0.70419   0.12846   0.00000  Uiso   1.00
O409   O     0.54581   0.79581   0.20487   0.00000  Uiso   1.00
O410   O     0.54581   0.79581   0.12846   0.00000  Uiso   1.00
O411   O     0.95420   0.70419   0.20487   0.00000  Uiso   1.00
O412   O     0.79581   0.95419   0.20487   0.00000  Uiso   1.00
Zn413  Zn    0.50000   0.75000   0.21771   0.00000  Uiso   1.00
Zn414  Zn    0.50000   0.75000   0.11563   0.00000  Uiso   1.00
Zn415  Zn    0.75000   0.50000   0.21771   0.00000  Uiso   1.00
Zn416  Zn    0.75000   0.50000   0.11563   0.00000  Uiso   1.00
C417   C     0.06255   0.19281   0.49982   0.00000  Uiso   1.00
C418   C     0.00015   0.21081   0.64271   0.00000  Uiso   1.00
C419   C     0.49985   0.21081   0.35729   0.00000  Uiso   1.00
C420   C     0.00016   0.28919   0.64271   0.00000  Uiso   1.00
C421   C     0.24985   0.03919   0.35729   0.00000  Uiso   1.00
C422   C     0.25016   0.46081   0.64271   0.00000  Uiso   1.00
C423   C     0.24984   0.46081   0.35729   0.00000  Uiso   1.00
C424   C     0.25015   0.03919   0.64271   0.00000  Uiso   1.00
C425   C     0.38522   0.14650   0.45911   0.00000  Uiso   1.00
C426   C     0.11479   0.35348   0.54089   0.00000  Uiso   1.00
C427   C     0.11215   0.35719   0.45832   0.00000  Uiso   1.00
C428   C     0.43745   0.30719   0.50019   0.00000  Uiso   1.00
C429   C     0.38783   0.14283   0.54168   0.00000  Uiso   1.00
C430   C     0.11480   0.14652   0.54089   0.00000  Uiso   1.00
C431   C     0.38519   0.35346   0.45912   0.00000  Uiso   1.00
C432   C     0.38785   0.35719   0.54168   0.00000  Uiso   1.00
C433   C     0.11217   0.14282   0.45832   0.00000  Uiso   1.00
C434   C     0.13521   0.39652   0.45911   0.00000  Uiso   1.00
C435   C     0.36478   0.10350   0.54089   0.00000  Uiso   1.00
C436   C     0.36217   0.10717   0.45832   0.00000  Uiso   1.00
C437   C     0.13785   0.39281   0.54168   0.00000  Uiso   1.00
C438   C     0.36481   0.39654   0.54088   0.00000  Uiso   1.00
C439   C     0.43746   0.19280   0.50018   0.00000  Uiso   1.00
C440   C     0.13520   0.10348   0.45911   0.00000  Uiso   1.00
C441   C     0.13783   0.10718   0.54168   0.00000  Uiso   1.00
C442   C     0.36216   0.39281   0.45832   0.00000  Uiso   1.00
C443   C     0.09845   0.33802   0.49949   0.00000  Uiso   1.00
C444   C     0.40155   0.16198   0.50051   0.00000  Uiso   1.00
C445   C     0.40153   0.33801   0.50052   0.00000  Uiso   1.00
C446   C     0.09847   0.16199   0.49949   0.00000  Uiso   1.00
C447   C     0.34845   0.08802   0.49949   0.00000  Uiso   1.00
C448   C     0.15155   0.41198   0.50051   0.00000  Uiso   1.00
C449   C     0.15153   0.08801   0.50051   0.00000  Uiso   1.00
C450   C     0.06254   0.30720   0.49982   0.00000  Uiso   1.00
C451   C     0.34847   0.41199   0.49948   0.00000  Uiso   1.00
C452   C     0.38868   0.17237   0.41774   0.00000  Uiso   1.00
C453   C     0.11136   0.32758   0.58223   0.00000  Uiso   1.00
C454   C     0.10645   0.33506   0.41518   0.00000  Uiso   1.00
C455   C     0.39351   0.16499   0.58481   0.00000  Uiso   1.00
C456   C     0.11138   0.17242   0.58223   0.00000  Uiso   1.00
C457   C     0.38859   0.32754   0.41779   0.00000  Uiso   1.00
C458   C     0.39354   0.33507   0.58483   0.00000  Uiso   1.00
C459   C     0.10649   0.16496   0.41518   0.00000  Uiso   1.00
C460   C     0.13864   0.42242   0.41777   0.00000  Uiso   1.00
C461   C     0.31255   0.44281   0.49981   0.00000  Uiso   1.00
C462   C     0.36132   0.07763   0.58226   0.00000  Uiso   1.00
C463   C     0.35649   0.08501   0.41519   0.00000  Uiso   1.00
C464   C     0.14355   0.41494   0.58483   0.00000  Uiso   1.00
C465   C     0.36141   0.42246   0.58221   0.00000  Uiso   1.00
C466   C     0.13862   0.07758   0.41777   0.00000  Uiso   1.00
C467   C     0.14351   0.08504   0.58482   0.00000  Uiso   1.00
C468   C     0.35646   0.41493   0.41517   0.00000  Uiso   1.00
C469   C     0.18745   0.05719   0.50018   0.00000  Uiso   1.00
C470   C     0.18746   0.44280   0.50019   0.00000  Uiso   1.00
C471   C     0.31255   0.05720   0.49982   0.00000  Uiso   1.00
C472   C     0.49984   0.28919   0.35729   0.00000  Uiso   1.00
Cl473  Cl    0.49873   0.34024   0.38641   0.00000  Uiso   1.00
Cl474  Cl    0.00124   0.15976   0.61359   0.00000  Uiso   1.00
Cl475  Cl    0.49876   0.15976   0.38641   0.00000  Uiso   1.00
Cl476  Cl    0.00126   0.34024   0.61360   0.00000  Uiso   1.00
Cl477  Cl    0.24876   0.09024   0.38641   0.00000  Uiso   1.00
Cl478  Cl    0.25127   0.40976   0.61359   0.00000  Uiso   1.00
Cl479  Cl    0.24874   0.40976   0.38640   0.00000  Uiso   1.00
Cl480  Cl    0.25124   0.09024   0.61360   0.00000  Uiso   1.00
N481   N     0.00000   0.25000   0.61907   0.00000  Uiso   1.00
N482   N     0.39102   0.30668   0.38505   0.00000  Uiso   1.00
N483   N     0.39760   0.31729   0.61916   0.00000  Uiso   1.00
N484   N     0.10243   0.18276   0.38086   0.00000  Uiso   1.00
N485   N     0.14109   0.44327   0.38502   0.00000  Uiso   1.00
N486   N     0.35884   0.05680   0.61502   0.00000  Uiso   1.00
N487   N     0.35244   0.06720   0.38087   0.00000  Uiso   1.00
N488   N     0.14762   0.43272   0.61915   0.00000  Uiso   1.00
N489   N     0.35898   0.44332   0.61495   0.00000  Uiso   1.00
N490   N     0.14105   0.05672   0.38503   0.00000  Uiso   1.00
N491   N     0.14757   0.06724   0.61914   0.00000  Uiso   1.00
N492   N     0.00000   0.25000   0.38093   0.00000  Uiso   1.00
N493   N     0.35240   0.43271   0.38084   0.00000  Uiso   1.00
N494   N     0.25000   0.00000   0.61907   0.00000  Uiso   1.00
N495   N     0.25000   0.00000   0.38093   0.00000  Uiso   1.00
N496   N     0.39116   0.19320   0.38498   0.00000  Uiso   1.00
N497   N     0.10891   0.30673   0.61498   0.00000  Uiso   1.00
N498   N     0.10238   0.31728   0.38085   0.00000  Uiso   1.00
N499   N     0.39756   0.18280   0.61913   0.00000  Uiso   1.00
N500   N     0.10895   0.19328   0.61497   0.00000  Uiso   1.00
O501   O     0.04581   0.20419   0.53821   0.00000  Uiso   1.00
O502   O     0.20420   0.04581   0.46179   0.00000  Uiso   1.00
O503   O     0.20420   0.04581   0.53821   0.00000  Uiso   1.00
O504   O     0.29581   0.45419   0.46179   0.00000  Uiso   1.00
O505   O     0.20420   0.45419   0.46179   0.00000  Uiso   1.00
O506   O     0.29581   0.04581   0.53821   0.00000  Uiso   1.00
O507   O     0.29581   0.04581   0.46179   0.00000  Uiso   1.00
O508   O     0.20420   0.45419   0.53821   0.00000  Uiso   1.00
O509   O     0.45420   0.29581   0.46179   0.00000  Uiso   1.00
O510   O     0.45420   0.29581   0.53821   0.00000  Uiso   1.00
O511   O     0.04581   0.20419   0.46179   0.00000  Uiso   1.00
O512   O     0.45420   0.20419   0.46179   0.00000  Uiso   1.00
O513   O     0.04581   0.29581   0.53821   0.00000  Uiso   1.00
O514   O     0.04581   0.29581   0.46179   0.00000  Uiso   1.00
O515   O     0.45420   0.20419   0.53821   0.00000  Uiso   1.00
O516   O     0.29581   0.45419   0.53821   0.00000  Uiso   1.00
Zn517  Zn    0.00000   0.25000   0.55104   0.00000  Uiso   1.00
Zn518  Zn    0.00000   0.25000   0.44896   0.00000  Uiso   1.00
Zn519  Zn    0.25000   0.00000   0.55104   0.00000  Uiso   1.00
Zn520  Zn    0.25000   0.00000   0.44896   0.00000  Uiso   1.00
C521   C     0.56255   0.19281   0.49982   0.00000  Uiso   1.00
C522   C     0.50015   0.21081   0.64271   0.00000  Uiso   1.00
C523   C     0.99985   0.21081   0.35729   0.00000  Uiso   1.00
C524   C     0.50016   0.28919   0.64271   0.00000  Uiso   1.00
C525   C     0.74985   0.03919   0.35729   0.00000  Uiso   1.00
C526   C     0.75016   0.46081   0.64271   0.00000  Uiso   1.00
C527   C     0.74984   0.46081   0.35729   0.00000  Uiso   1.00
C528   C     0.75015   0.03919   0.64271   0.00000  Uiso   1.00
C529   C     0.88522   0.14650   0.45911   0.00000  Uiso   1.00
C530   C     0.61479   0.35348   0.54089   0.00000  Uiso   1.00
C531   C     0.61215   0.35719   0.45832   0.00000  Uiso   1.00
C532   C     0.93745   0.30719   0.50019   0.00000  Uiso   1.00
C533   C     0.88783   0.14283   0.54168   0.00000  Uiso   1.00
C534   C     0.61480   0.14652   0.54089   0.00000  Uiso   1.00
C535   C     0.88519   0.35346   0.45912   0.00000  Uiso   1.00
C536   C     0.88785   0.35719   0.54168   0.00000  Uiso   1.00
C537   C     0.61217   0.14282   0.45832   0.00000  Uiso   1.00
C538   C     0.63521   0.39652   0.45911   0.00000  Uiso   1.00
C539   C     0.86478   0.10350   0.54089   0.00000  Uiso   1.00
C540   C     0.86217   0.10717   0.45832   0.00000  Uiso   1.00
C541   C     0.63785   0.39281   0.54168   0.00000  Uiso   1.00
C542   C     0.86481   0.39654   0.54088   0.00000  Uiso   1.00
C543   C     0.93746   0.19280   0.50018   0.00000  Uiso   1.00
C544   C     0.63520   0.10348   0.45911   0.00000  Uiso   1.00
C545   C     0.63783   0.10718   0.54168   0.00000  Uiso   1.00
C546   C     0.86216   0.39281   0.45832   0.00000  Uiso   1.00
C547   C     0.59845   0.33802   0.49949   0.00000  Uiso   1.00
C548   C     0.90155   0.16198   0.50051   0.00000  Uiso   1.00
C549   C     0.90153   0.33801   0.50052   0.00000  Uiso   1.00
C550   C     0.59847   0.16199   0.49949   0.00000  Uiso   1.00
C551   C     0.84845   0.08802   0.49949   0.00000  Uiso   1.00
C552   C     0.65155   0.41198   0.50051   0.00000  Uiso   1.00
C553   C     0.65153   0.08801   0.50051   0.00000  Uiso   1.00
C554   C     0.56254   0.30720   0.49982   0.00000  Uiso   1.00
C555   C     0.84847   0.41199   0.49948   0.00000  Uiso   1.00
C556   C     0.88868   0.17237   0.41774   0.00000  Uiso   1.00
C557   C     0.61136   0.32758   0.58223   0.00000  Uiso   1.00
C558   C     0.60645   0.33506   0.41518   0.00000  Uiso   1.00
C559   C     0.89351   0.16499   0.58481   0.00000  Uiso   1.00
C560   C     0.61138   0.17242   0.58223   0.00000  Uiso   1.00
C561   C     0.88859   0.32754   0.41779   0.00000  Uiso   1.00
C562   C     0.89354   0.33507   0.58483   0.00000  Uiso   1.00
C563   C     0.60649   0.16496   0.41518   0.00000  Uiso   1.00
C564   C     0.63864   0.42242   0.41777   0.00000  Uiso   1.00
C565   C     0.81255   0.44281   0.49981   0.00000  Uiso   1.00
C566   C     0.86132   0.07763   0.58226   0.00000  Uiso   1.00
C567   C     0.85649   0.08501   0.41519   0.00000  Uiso   1.00
C568   C     0.64355   0.41494   0.58483   0.00000  Uiso   1.00
C569   C     0.86141   0.42246   0.58221   0.00000  Uiso   1.00
C570   C     0.63862   0.07758   0.41777   0.00000  Uiso   1.00
C571   C     0.64351   0.08504   0.58482   0.00000  Uiso   1.00
C572   C     0.85646   0.41493   0.41517   0.00000  Uiso   1.00
C573   C     0.68745   0.05719   0.50018   0.00000  Uiso   1.00
C574   C     0.68746   0.44280   0.50019   0.00000  Uiso   1.00
C575   C     0.81255   0.05720   0.49982   0.00000  Uiso   1.00
C576   C     0.99984   0.28919   0.35729   0.00000  Uiso   1.00
Cl577  Cl    0.99873   0.34024   0.38641   0.00000  Uiso   1.00
Cl578  Cl    0.50124   0.15976   0.61359   0.00000  Uiso   1.00
Cl579  Cl    0.99876   0.15976   0.38641   0.00000  Uiso   1.00
Cl580  Cl    0.50126   0.34024   0.61360   0.00000  Uiso   1.00
Cl581  Cl    0.74876   0.09024   0.38641   0.00000  Uiso   1.00
Cl582  Cl    0.75127   0.40976   0.61359   0.00000  Uiso   1.00
Cl583  Cl    0.74874   0.40976   0.38640   0.00000  Uiso   1.00
Cl584  Cl    0.75124   0.09024   0.61360   0.00000  Uiso   1.00
N585   N     0.50000   0.25000   0.61907   0.00000  Uiso   1.00
N586   N     0.89102   0.30668   0.38505   0.00000  Uiso   1.00
N587   N     0.89760   0.31729   0.61916   0.00000  Uiso   1.00
N588   N     0.60243   0.18276   0.38086   0.00000  Uiso   1.00
N589   N     0.64109   0.44327   0.38502   0.00000  Uiso   1.00
N590   N     0.85884   0.05680   0.61502   0.00000  Uiso   1.00
N591   N     0.85244   0.06720   0.38087   0.00000  Uiso   1.00
N592   N     0.64762   0.43272   0.61915   0.00000  Uiso   1.00
N593   N     0.85898   0.44332   0.61495   0.00000  Uiso   1.00
N594   N     0.64105   0.05672   0.38503   0.00000  Uiso   1.00
N595   N     0.64757   0.06724   0.61914   0.00000  Uiso   1.00
N596   N     0.50000   0.25000   0.38093   0.00000  Uiso   1.00
N597   N     0.85240   0.43271   0.38084   0.00000  Uiso   1.00
N598   N     0.75000   0.00000   0.61907   0.00000  Uiso   1.00
N599   N     0.75000   0.00000   0.38093   0.00000  Uiso   1.00
N600   N     0.89116   0.19320   0.38498   0.00000  Uiso   1.00
N601   N     0.60891   0.30673   0.61498   0.00000  Uiso   1.00
N602   N     0.60238   0.31728   0.38085   0.00000  Uiso   1.00
N603   N     0.89756   0.18280   0.61913   0.00000  Uiso   1.00
N604   N     0.60895   0.19328   0.61497   0.00000  Uiso   1.00
O605   O     0.54581   0.20419   0.53821   0.00000  Uiso   1.00
O606   O     0.70420   0.04581   0.46179   0.00000  Uiso   1.00
O607   O     0.70420   0.04581   0.53821   0.00000  Uiso   1.00
O608   O     0.79581   0.45419   0.46179   0.00000  Uiso   1.00
O609   O     0.70420   0.45419   0.46179   0.00000  Uiso   1.00
O610   O     0.79581   0.04581   0.53821   0.00000  Uiso   1.00
O611   O     0.79581   0.04581   0.46179   0.00000  Uiso   1.00
O612   O     0.70420   0.45419   0.53821   0.00000  Uiso   1.00
O613   O     0.95420   0.29581   0.46179   0.00000  Uiso   1.00
O614   O     0.95420   0.29581   0.53821   0.00000  Uiso   1.00
O615   O     0.54581   0.20419   0.46179   0.00000  Uiso   1.00
O616   O     0.95420   0.20419   0.46179   0.00000  Uiso   1.00
O617   O     0.54581   0.29581   0.53821   0.00000  Uiso   1.00
O618   O     0.54581   0.29581   0.46179   0.00000  Uiso   1.00
O619   O     0.95420   0.20419   0.53821   0.00000  Uiso   1.00
O620   O     0.79581   0.45419   0.53821   0.00000  Uiso   1.00
Zn621  Zn    0.50000   0.25000   0.55104   0.00000  Uiso   1.00
Zn622  Zn    0.50000   0.25000   0.44896   0.00000  Uiso   1.00
Zn623  Zn    0.75000   0.00000   0.55104   0.00000  Uiso   1.00
Zn624  Zn    0.75000   0.00000   0.44896   0.00000  Uiso   1.00
C625   C     0.06255   0.69281   0.49982   0.00000  Uiso   1.00
C626   C     0.00015   0.71081   0.64271   0.00000  Uiso   1.00
C627   C     0.49985   0.71081   0.35729   0.00000  Uiso   1.00
C628   C     0.00016   0.78919   0.64271   0.00000  Uiso   1.00
C629   C     0.24985   0.53919   0.35729   0.00000  Uiso   1.00
C630   C     0.25016   0.96081   0.64271   0.00000  Uiso   1.00
C631   C     0.24984   0.96081   0.35729   0.00000  Uiso   1.00
C632   C     0.25015   0.53919   0.64271   0.00000  Uiso   1.00
C633   C     0.38522   0.64650   0.45911   0.00000  Uiso   1.00
C634   C     0.11479   0.85348   0.54089   0.00000  Uiso   1.00
C635   C     0.11215   0.85719   0.45832   0.00000  Uiso   1.00
C636   C     0.43745   0.80719   0.50019   0.00000  Uiso   1.00
C637   C     0.38783   0.64283   0.54168   0.00000  Uiso   1.00
C638   C     0.11480   0.64652   0.54089   0.00000  Uiso   1.00
C639   C     0.38519   0.85346   0.45912   0.00000  Uiso   1.00
C640   C     0.38785   0.85719   0.54168   0.00000  Uiso   1.00
C641   C     0.11217   0.64282   0.45832   0.00000  Uiso   1.00
C642   C     0.13521   0.89652   0.45911   0.00000  Uiso   1.00
C643   C     0.36478   0.60350   0.54089   0.00000  Uiso   1.00
C644   C     0.36217   0.60717   0.45832   0.00000  Uiso   1.00
C645   C     0.13785   0.89281   0.54168   0.00000  Uiso   1.00
C646   C     0.36481   0.89654   0.54088   0.00000  Uiso   1.00
C647   C     0.43746   0.69280   0.50018   0.00000  Uiso   1.00
C648   C     0.13520   0.60348   0.45911   0.00000  Uiso   1.00
C649   C     0.13783   0.60718   0.54168   0.00000  Uiso   1.00
C650   C     0.36216   0.89281   0.45832   0.00000  Uiso   1.00
C651   C     0.09845   0.83802   0.49949   0.00000  Uiso   1.00
C652   C     0.40155   0.66198   0.50051   0.00000  Uiso   1.00
C653   C     0.40153   0.83801   0.50052   0.00000  Uiso   1.00
C654   C     0.09847   0.66199   0.49949   0.00000  Uiso   1.00
C655   C     0.34845   0.58802   0.49949   0.00000  Uiso   1.00
C656   C     0.15155   0.91198   0.50051   0.00000  Uiso   1.00
C657   C     0.15153   0.58801   0.50051   0.00000  Uiso   1.00
C658   C     0.06254   0.80720   0.49982   0.00000  Uiso   1.00
C659   C     0.34847   0.91199   0.49948   0.00000  Uiso   1.00
C660   C     0.38868   0.67237   0.41774   0.00000  Uiso   1.00
C661   C     0.11136   0.82758   0.58223   0.00000  Uiso   1.00
C662   C     0.10645   0.83506   0.41518   0.00000  Uiso   1.00
C663   C     0.39351   0.66499   0.58481   0.00000  Uiso   1.00
C664   C     0.11138   0.67242   0.58223   0.00000  Uiso   1.00
C665   C     0.38859   0.82754   0.41779   0.00000  Uiso   1.00
C666   C     0.39354   0.83507   0.58483   0.00000  Uiso   1.00
C667   C     0.10649   0.66496   0.41518   0.00000  Uiso   1.00
C668   C     0.13864   0.92242   0.41777   0.00000  Uiso   1.00
C669   C     0.31255   0.94281   0.49981   0.00000  Uiso   1.00
C670   C     0.36132   0.57763   0.58226   0.00000  Uiso   1.00
C671   C     0.35649   0.58501   0.41519   0.00000  Uiso   1.00
C672   C     0.14355   0.91494   0.58483   0.00000  Uiso   1.00
C673   C     0.36141   0.92246   0.58221   0.00000  Uiso   1.00
C674   C     0.13862   0.57758   0.41777   0.00000  Uiso   1.00
C675   C     0.14351   0.58504   0.58482   0.00000  Uiso   1.00
C676   C     0.35646   0.91493   0.41517   0.00000  Uiso   1.00
C677   C     0.18745   0.55719   0.50018   0.00000  Uiso   1.00
C678   C     0.18746   0.94280   0.50019   0.00000  Uiso   1.00
C679   C     0.31255   0.55720   0.49982   0.00000  Uiso   1.00
C680   C     0.49984   0.78919   0.35729   0.00000  Uiso   1.00
Cl681  Cl    0.49873   0.84024   0.38641   0.00000  Uiso   1.00
Cl682  Cl    0.00124   0.65976   0.61359   0.00000  Uiso   1.00
Cl683  Cl    0.49876   0.65976   0.38641   0.00000  Uiso   1.00
Cl684  Cl    0.00126   0.84024   0.61360   0.00000  Uiso   1.00
Cl685  Cl    0.24876   0.59024   0.38641   0.00000  Uiso   1.00
Cl686  Cl    0.25127   0.90976   0.61359   0.00000  Uiso   1.00
Cl687  Cl    0.24874   0.90976   0.38640   0.00000  Uiso   1.00
Cl688  Cl    0.25124   0.59024   0.61360   0.00000  Uiso   1.00
N689   N     0.00000   0.75000   0.61907   0.00000  Uiso   1.00
N690   N     0.39102   0.80668   0.38505   0.00000  Uiso   1.00
N691   N     0.39760   0.81729   0.61916   0.00000  Uiso   1.00
N692   N     0.10243   0.68276   0.38086   0.00000  Uiso   1.00
N693   N     0.14109   0.94327   0.38502   0.00000  Uiso   1.00
N694   N     0.35884   0.55680   0.61502   0.00000  Uiso   1.00
N695   N     0.35244   0.56720   0.38087   0.00000  Uiso   1.00
N696   N     0.14762   0.93272   0.61915   0.00000  Uiso   1.00
N697   N     0.35898   0.94332   0.61495   0.00000  Uiso   1.00
N698   N     0.14105   0.55672   0.38503   0.00000  Uiso   1.00
N699   N     0.14757   0.56724   0.61914   0.00000  Uiso   1.00
N700   N     0.00000   0.75000   0.38093   0.00000  Uiso   1.00
N701   N     0.35240   0.93271   0.38084   0.00000  Uiso   1.00
N702   N     0.25000   0.50000   0.61907   0.00000  Uiso   1.00
N703   N     0.25000   0.50000   0.38093   0.00000  Uiso   1.00
N704   N     0.39116   0.69320   0.38498   0.00000  Uiso   1.00
N705   N     0.10891   0.80673   0.61498   0.00000  Uiso   1.00
N706   N     0.10238   0.81728   0.38085   0.00000  Uiso   1.00
N707   N     0.39756   0.68280   0.61913   0.00000  Uiso   1.00
N708   N     0.10895   0.69328   0.61497   0.00000  Uiso   1.00
O709   O     0.04581   0.70419   0.53821   0.00000  Uiso   1.00
O710   O     0.20420   0.54581   0.46179   0.00000  Uiso   1.00
O711   O     0.20420   0.54581   0.53821   0.00000  Uiso   1.00
O712   O     0.29581   0.95419   0.46179   0.00000  Uiso   1.00
O713   O     0.20420   0.95419   0.46179   0.00000  Uiso   1.00
O714   O     0.29581   0.54581   0.53821   0.00000  Uiso   1.00
O715   O     0.29581   0.54581   0.46179   0.00000  Uiso   1.00
O716   O     0.20420   0.95419   0.53821   0.00000  Uiso   1.00
O717   O     0.45420   0.79581   0.46179   0.00000  Uiso   1.00
O718   O     0.45420   0.79581   0.53821   0.00000  Uiso   1.00
O719   O     0.04581   0.70419   0.46179   0.00000  Uiso   1.00
O720   O     0.45420   0.70419   0.46179   0.00000  Uiso   1.00
O721   O     0.04581   0.79581   0.53821   0.00000  Uiso   1.00
O722   O     0.04581   0.79581   0.46179   0.00000  Uiso   1.00
O723   O     0.45420   0.70419   0.53821   0.00000  Uiso   1.00
O724   O     0.29581   0.95419   0.53821   0.00000  Uiso   1.00
Zn725  Zn    0.00000   0.75000   0.55104   0.00000  Uiso   1.00
Zn726  Zn    0.00000   0.75000   0.44896   0.00000  Uiso   1.00
Zn727  Zn    0.25000   0.50000   0.55104   0.00000  Uiso   1.00
Zn728  Zn    0.25000   0.50000   0.44896   0.00000  Uiso   1.00
C729   C     0.56255   0.69281   0.49982   0.00000  Uiso   1.00
C730   C     0.50015   0.71081   0.64271   0.00000  Uiso   1.00
C731   C     0.99985   0.71081   0.35729   0.00000  Uiso   1.00
C732   C     0.50016   0.78919   0.64271   0.00000  Uiso   1.00
C733   C     0.74985   0.53919   0.35729   0.00000  Uiso   1.00
C734   C     0.75016   0.96081   0.64271   0.00000  Uiso   1.00
C735   C     0.74984   0.96081   0.35729   0.00000  Uiso   1.00
C736   C     0.75015   0.53919   0.64271   0.00000  Uiso   1.00
C737   C     0.88522   0.64650   0.45911   0.00000  Uiso   1.00
C738   C     0.61479   0.85348   0.54089   0.00000  Uiso   1.00
C739   C     0.61215   0.85719   0.45832   0.00000  Uiso   1.00
C740   C     0.93745   0.80719   0.50019   0.00000  Uiso   1.00
C741   C     0.88783   0.64283   0.54168   0.00000  Uiso   1.00
C742   C     0.61480   0.64652   0.54089   0.00000  Uiso   1.00
C743   C     0.88519   0.85346   0.45912   0.00000  Uiso   1.00
C744   C     0.88785   0.85719   0.54168   0.00000  Uiso   1.00
C745   C     0.61217   0.64282   0.45832   0.00000  Uiso   1.00
C746   C     0.63521   0.89652   0.45911   0.00000  Uiso   1.00
C747   C     0.86478   0.60350   0.54089   0.00000  Uiso   1.00
C748   C     0.86217   0.60717   0.45832   0.00000  Uiso   1.00
C749   C     0.63785   0.89281   0.54168   0.00000  Uiso   1.00
C750   C     0.86481   0.89654   0.54088   0.00000  Uiso   1.00
C751   C     0.93746   0.69280   0.50018   0.00000  Uiso   1.00
C752   C     0.63520   0.60348   0.45911   0.00000  Uiso   1.00
C753   C     0.63783   0.60718   0.54168   0.00000  Uiso   1.00
C754   C     0.86216   0.89281   0.45832   0.00000  Uiso   1.00
C755   C     0.59845   0.83802   0.49949   0.00000  Uiso   1.00
C756   C     0.90155   0.66198   0.50051   0.00000  Uiso   1.00
C757   C     0.90153   0.83801   0.50052   0.00000  Uiso   1.00
C758   C     0.59847   0.66199   0.49949   0.00000  Uiso   1.00
C759   C     0.84845   0.58802   0.49949   0.00000  Uiso   1.00
C760   C     0.65155   0.91198   0.50051   0.00000  Uiso   1.00
C761   C     0.65153   0.58801   0.50051   0.00000  Uiso   1.00
C762   C     0.56254   0.80720   0.49982   0.00000  Uiso   1.00
C763   C     0.84847   0.91199   0.49948   0.00000  Uiso   1.00
C764   C     0.88868   0.67237   0.41774   0.00000  Uiso   1.00
C765   C     0.61136   0.82758   0.58223   0.00000  Uiso   1.00
C766   C     0.60645   0.83506   0.41518   0.00000  Uiso   1.00
C767   C     0.89351   0.66499   0.58481   0.00000  Uiso   1.00
C768   C     0.61138   0.67242   0.58223   0.00000  Uiso   1.00
C769   C     0.88859   0.82754   0.41779   0.00000  Uiso   1.00
C770   C     0.89354   0.83507   0.58483   0.00000  Uiso   1.00
C771   C     0.60649   0.66496   0.41518   0.00000  Uiso   1.00
C772   C     0.63864   0.92242   0.41777   0.00000  Uiso   1.00
C773   C     0.81255   0.94281   0.49981   0.00000  Uiso   1.00
C774   C     0.86132   0.57763   0.58226   0.00000  Uiso   1.00
C775   C     0.85649   0.58501   0.41519   0.00000  Uiso   1.00
C776   C     0.64355   0.91494   0.58483   0.00000  Uiso   1.00
C777   C     0.86141   0.92246   0.58221   0.00000  Uiso   1.00
C778   C     0.63862   0.57758   0.41777   0.00000  Uiso   1.00
C779   C     0.64351   0.58504   0.58482   0.00000  Uiso   1.00
C780   C     0.85646   0.91493   0.41517   0.00000  Uiso   1.00
C781   C     0.68745   0.55719   0.50018   0.00000  Uiso   1.00
C782   C     0.68746   0.94280   0.50019   0.00000  Uiso   1.00
C783   C     0.81255   0.55720   0.49982   0.00000  Uiso   1.00
C784   C     0.99984   0.78919   0.35729   0.00000  Uiso   1.00
Cl785  Cl    0.99873   0.84024   0.38641   0.00000  Uiso   1.00
Cl786  Cl    0.50124   0.65976   0.61359   0.00000  Uiso   1.00
Cl787  Cl    0.99876   0.65976   0.38641   0.00000  Uiso   1.00
Cl788  Cl    0.50126   0.84024   0.61360   0.00000  Uiso   1.00
Cl789  Cl    0.74876   0.59024   0.38641   0.00000  Uiso   1.00
Cl790  Cl    0.75127   0.90976   0.61359   0.00000  Uiso   1.00
Cl791  Cl    0.74874   0.90976   0.38640   0.00000  Uiso   1.00
Cl792  Cl    0.75124   0.59024   0.61360   0.00000  Uiso   1.00
N793   N     0.50000   0.75000   0.61907   0.00000  Uiso   1.00
N794   N     0.89102   0.80668   0.38505   0.00000  Uiso   1.00
N795   N     0.89760   0.81729   0.61916   0.00000  Uiso   1.00
N796   N     0.60243   0.68276   0.38086   0.00000  Uiso   1.00
N797   N     0.64109   0.94327   0.38502   0.00000  Uiso   1.00
N798   N     0.85884   0.55680   0.61502   0.00000  Uiso   1.00
N799   N     0.85244   0.56720   0.38087   0.00000  Uiso   1.00
N800   N     0.64762   0.93272   0.61915   0.00000  Uiso   1.00
N801   N     0.85898   0.94332   0.61495   0.00000  Uiso   1.00
N802   N     0.64105   0.55672   0.38503   0.00000  Uiso   1.00
N803   N     0.64757   0.56724   0.61914   0.00000  Uiso   1.00
N804   N     0.50000   0.75000   0.38093   0.00000  Uiso   1.00
N805   N     0.85240   0.93271   0.38084   0.00000  Uiso   1.00
N806   N     0.75000   0.50000   0.61907   0.00000  Uiso   1.00
N807   N     0.75000   0.50000   0.38093   0.00000  Uiso   1.00
N808   N     0.89116   0.69320   0.38498   0.00000  Uiso   1.00
N809   N     0.60891   0.80673   0.61498   0.00000  Uiso   1.00
N810   N     0.60238   0.81728   0.38085   0.00000  Uiso   1.00
N811   N     0.89756   0.68280   0.61913   0.00000  Uiso   1.00
N812   N     0.60895   0.69328   0.61497   0.00000  Uiso   1.00
O813   O     0.54581   0.70419   0.53821   0.00000  Uiso   1.00
O814   O     0.70420   0.54581   0.46179   0.00000  Uiso   1.00
O815   O     0.70420   0.54581   0.53821   0.00000  Uiso   1.00
O816   O     0.79581   0.95419   0.46179   0.00000  Uiso   1.00
O817   O     0.70420   0.95419   0.46179   0.00000  Uiso   1.00
O818   O     0.79581   0.54581   0.53821   0.00000  Uiso   1.00
O819   O     0.79581   0.54581   0.46179   0.00000  Uiso   1.00
O820   O     0.70420   0.95419   0.53821   0.00000  Uiso   1.00
O821   O     0.95420   0.79581   0.46179   0.00000  Uiso   1.00
O822   O     0.95420   0.79581   0.53821   0.00000  Uiso   1.00
O823   O     0.54581   0.70419   0.46179   0.00000  Uiso   1.00
O824   O     0.95420   0.70419   0.46179   0.00000  Uiso   1.00
O825   O     0.54581   0.79581   0.53821   0.00000  Uiso   1.00
O826   O     0.54581   0.79581   0.46179   0.00000  Uiso   1.00
O827   O     0.95420   0.70419   0.53821   0.00000  Uiso   1.00
O828   O     0.79581   0.95419   0.53821   0.00000  Uiso   1.00
Zn829  Zn    0.50000   0.75000   0.55104   0.00000  Uiso   1.00
Zn830  Zn    0.50000   0.75000   0.44896   0.00000  Uiso   1.00
Zn831  Zn    0.75000   0.50000   0.55104   0.00000  Uiso   1.00
Zn832  Zn    0.75000   0.50000   0.44896   0.00000  Uiso   1.00
C833   C     0.06255   0.19281   0.83315   0.00000  Uiso   1.00
C834   C     0.00015   0.21081   0.97604   0.00000  Uiso   1.00
C835   C     0.49985   0.21081   0.69062   0.00000  Uiso   1.00
C836   C     0.00016   0.28919   0.97604   0.00000  Uiso   1.00
C837   C     0.24985   0.03919   0.69063   0.00000  Uiso   1.00
C838   C     0.25016   0.46081   0.97604   0.00000  Uiso   1.00
C839   C     0.24984   0.46081   0.69062   0.00000  Uiso   1.00
C840   C     0.25015   0.03919   0.97604   0.00000  Uiso   1.00
C841   C     0.38522   0.14650   0.79244   0.00000  Uiso   1.00
C842   C     0.11479   0.35348   0.87422   0.00000  Uiso   1.00
C843   C     0.11215   0.35719   0.79166   0.00000  Uiso   1.00
C844   C     0.43745   0.30719   0.83352   0.00000  Uiso   1.00
C845   C     0.38783   0.14283   0.87501   0.00000  Uiso   1.00
C846   C     0.11480   0.14652   0.87422   0.00000  Uiso   1.00
C847   C     0.38519   0.35346   0.79245   0.00000  Uiso   1.00
C848   C     0.38785   0.35719   0.87501   0.00000  Uiso   1.00
C849   C     0.11217   0.14282   0.79166   0.00000  Uiso   1.00
C850   C     0.13521   0.39652   0.79245   0.00000  Uiso   1.00
C851   C     0.36478   0.10350   0.87423   0.00000  Uiso   1.00
C852   C     0.36217   0.10717   0.79166   0.00000  Uiso   1.00
C853   C     0.13785   0.39281   0.87501   0.00000  Uiso   1.00
C854   C     0.36481   0.39654   0.87421   0.00000  Uiso   1.00
C855   C     0.43746   0.19280   0.83352   0.00000  Uiso   1.00
C856   C     0.13520   0.10348   0.79245   0.00000  Uiso   1.00
C857   C     0.13783   0.10718   0.87501   0.00000  Uiso   1.00
C858   C     0.36216   0.39281   0.79165   0.00000  Uiso   1.00
C859   C     0.09845   0.33802   0.83282   0.00000  Uiso   1.00
C860   C     0.40155   0.16198   0.83384   0.00000  Uiso   1.00
C861   C     0.40153   0.33801   0.83385   0.00000  Uiso   1.00
C862   C     0.09847   0.16199   0.83282   0.00000  Uiso   1.00
C863   C     0.34845   0.08802   0.83283   0.00000  Uiso   1.00
C864   C     0.15155   0.41198   0.83385   0.00000  Uiso   1.00
C865   C     0.15153   0.08801   0.83385   0.00000  Uiso   1.00
C866   C     0.06254   0.30720   0.83315   0.00000  Uiso   1.00
C867   C     0.34847   0.41199   0.83282   0.00000  Uiso   1.00
C868   C     0.38868   0.17237   0.75108   0.00000  Uiso   1.00
C869   C     0.11136   0.32758   0.91556   0.00000  Uiso   1.00
C870   C     0.10645   0.33506   0.74851   0.00000  Uiso   1.00
C871   C     0.39351   0.16499   0.91815   0.00000  Uiso   1.00
C872   C     0.11138   0.17242   0.91556   0.00000  Uiso   1.00
C873   C     0.38859   0.32754   0.75112   0.00000  Uiso   1.00
C874   C     0.39354   0.33507   0.91816   0.00000  Uiso   1.00
C875   C     0.10649   0.16496   0.74851   0.00000  Uiso   1.00
C876   C     0.13864   0.42242   0.75110   0.00000  Uiso   1.00
C877   C     0.31255   0.44281   0.83315   0.00000  Uiso   1.00
C878   C     0.36132   0.07763   0.91559   0.00000  Uiso   1.00
C879   C     0.35649   0.08501   0.74852   0.00000  Uiso   1.00
C880   C     0.14355   0.41494   0.91816   0.00000  Uiso   1.00
C881   C     0.36141   0.42246   0.91555   0.00000  Uiso   1.00
C882   C     0.13862   0.07758   0.75111   0.00000  Uiso   1.00
C883   C     0.14351   0.08504   0.91815   0.00000  Uiso   1.00
C884   C     0.35646   0.41493   0.74850   0.00000  Uiso   1.00
C885   C     0.18745   0.05719   0.83352   0.00000  Uiso   1.00
C886   C     0.18746   0.44280   0.83352   0.00000  Uiso   1.00
C887   C     0.31255   0.05720   0.83315   0.00000  Uiso   1.00
C888   C     0.49984   0.28919   0.69063   0.00000  Uiso   1.00
Cl889  Cl    0.49873   0.34024   0.71974   0.00000  Uiso   1.00
Cl890  Cl    0.00124   0.15976   0.94692   0.00000  Uiso   1.00
Cl891  Cl    0.49876   0.15976   0.71974   0.00000  Uiso   1.00
Cl892  Cl    0.00126   0.34024   0.94693   0.00000  Uiso   1.00
Cl893  Cl    0.24876   0.09024   0.71974   0.00000  Uiso   1.00
Cl894  Cl    0.25127   0.40976   0.94693   0.00000  Uiso   1.00
Cl895  Cl    0.24874   0.40976   0.71974   0.00000  Uiso   1.00
Cl896  Cl    0.25124   0.09024   0.94693   0.00000  Uiso   1.00
N897   N     0.00000   0.25000   0.95240   0.00000  Uiso   1.00
N898   N     0.39102   0.30668   0.71838   0.00000  Uiso   1.00
N899   N     0.39760   0.31729   0.95249   0.00000  Uiso   1.00
N900   N     0.10243   0.18276   0.71419   0.00000  Uiso   1.00
N901   N     0.14109   0.44327   0.71835   0.00000  Uiso   1.00
N902   N     0.35884   0.05680   0.94835   0.00000  Uiso   1.00
N903   N     0.35244   0.06720   0.71421   0.00000  Uiso   1.00
N904   N     0.14762   0.43272   0.95248   0.00000  Uiso   1.00
N905   N     0.35898   0.44332   0.94828   0.00000  Uiso   1.00
N906   N     0.14105   0.05672   0.71836   0.00000  Uiso   1.00
N907   N     0.14757   0.06724   0.95248   0.00000  Uiso   1.00
N908   N     0.00000   0.25000   0.71427   0.00000  Uiso   1.00
N909   N     0.35240   0.43271   0.71418   0.00000  Uiso   1.00
N910   N     0.25000   0.00000   0.95240   0.00000  Uiso   1.00
N911   N     0.25000   0.00000   0.71427   0.00000  Uiso   1.00
N912   N     0.39116   0.19320   0.71831   0.00000  Uiso   1.00
N913   N     0.10891   0.30673   0.94831   0.00000  Uiso   1.00
N914   N     0.10238   0.31728   0.71418   0.00000  Uiso   1.00
N915   N     0.39756   0.18280   0.95246   0.00000  Uiso   1.00
N916   N     0.10895   0.19328   0.94831   0.00000  Uiso   1.00
O917   O     0.04581   0.20419   0.87154   0.00000  Uiso   1.00
O918   O     0.20420   0.04581   0.79513   0.00000  Uiso   1.00
O919   O     0.20420   0.04581   0.87154   0.00000  Uiso   1.00
O920   O     0.29581   0.45419   0.79513   0.00000  Uiso   1.00
O921   O     0.20420   0.45419   0.79513   0.00000  Uiso   1.00
O922   O     0.29581   0.04581   0.87154   0.00000  Uiso   1.00
O923   O     0.29581   0.04581   0.79513   0.00000  Uiso   1.00
O924   O     0.20420   0.45419   0.87154   0.00000  Uiso   1.00
O925   O     0.45420   0.29581   0.79513   0.00000  Uiso   1.00
O926   O     0.45420   0.29581   0.87154   0.00000  Uiso   1.00
O927   O     0.04581   0.20419   0.79513   0.00000  Uiso   1.00
O928   O     0.45420   0.20419   0.79513   0.00000  Uiso   1.00
O929   O     0.04581   0.29581   0.87154   0.00000  Uiso   1.00
O930   O     0.04581   0.29581   0.79513   0.00000  Uiso   1.00
O931   O     0.45420   0.20419   0.87154   0.00000  Uiso   1.00
O932   O     0.29581   0.45419   0.87154   0.00000  Uiso   1.00
Zn933  Zn    0.00000   0.25000   0.88437   0.00000  Uiso   1.00
Zn934  Zn    0.00000   0.25000   0.78229   0.00000  Uiso   1.00
Zn935  Zn    0.25000   0.00000   0.88437   0.00000  Uiso   1.00
Zn936  Zn    0.25000   0.00000   0.78229   0.00000  Uiso   1.00
C937   C     0.56255   0.19281   0.83315   0.00000  Uiso   1.00
C938   C     0.50015   0.21081   0.97604   0.00000  Uiso   1.00
C939   C     0.99985   0.21081   0.69062   0.00000  Uiso   1.00
C940   C     0.50016   0.28919   0.97604   0.00000  Uiso   1.00
C941   C     0.74985   0.03919   0.69063   0.00000  Uiso   1.00
C942   C     0.75016   0.46081   0.97604   0.00000  Uiso   1.00
C943   C     0.74984   0.46081   0.69062   0.00000  Uiso   1.00
C944   C     0.75015   0.03919   0.97604   0.00000  Uiso   1.00
C945   C     0.88522   0.14650   0.79244   0.00000  Uiso   1.00
C946   C     0.61479   0.35348   0.87422   0.00000  Uiso   1.00
C947   C     0.61215   0.35719   0.79166   0.00000  Uiso   1.00
C948   C     0.93745   0.30719   0.83352   0.00000  Uiso   1.00
C949   C     0.88783   0.14283   0.87501   0.00000  Uiso   1.00
C950   C     0.61480   0.14652   0.87422   0.00000  Uiso   1.00
C951   C     0.88519   0.35346   0.79245   0.00000  Uiso   1.00
C952   C     0.88785   0.35719   0.87501   0.00000  Uiso   1.00
C953   C     0.61217   0.14282   0.79166   0.00000  Uiso   1.00
C954   C     0.63521   0.39652   0.79245   0.00000  Uiso   1.00
C955   C     0.86478   0.10350   0.87423   0.00000  Uiso   1.00
C956   C     0.86217   0.10717   0.79166   0.00000  Uiso   1.00
C957   C     0.63785   0.39281   0.87501   0.00000  Uiso   1.00
C958   C     0.86481   0.39654   0.87421   0.00000  Uiso   1.00
C959   C     0.93746   0.19280   0.83352   0.00000  Uiso   1.00
C960   C     0.63520   0.10348   0.79245   0.00000  Uiso   1.00
C961   C     0.63783   0.10718   0.87501   0.00000  Uiso   1.00
C962   C     0.86216   0.39281   0.79165   0.00000  Uiso   1.00
C963   C     0.59845   0.33802   0.83282   0.00000  Uiso   1.00
C964   C     0.90155   0.16198   0.83384   0.00000  Uiso   1.00
C965   C     0.90153   0.33801   0.83385   0.00000  Uiso   1.00
C966   C     0.59847   0.16199   0.83282   0.00000  Uiso   1.00
C967   C     0.84845   0.08802   0.83283   0.00000  Uiso   1.00
C968   C     0.65155   0.41198   0.83385   0.00000  Uiso   1.00
C969   C     0.65153   0.08801   0.83385   0.00000  Uiso   1.00
C970   C     0.56254   0.30720   0.83315   0.00000  Uiso   1.00
C971   C     0.84847   0.41199   0.83282   0.00000  Uiso   1.00
C972   C     0.88868   0.17237   0.75108   0.00000  Uiso   1.00
C973   C     0.61136   0.32758   0.91556   0.00000  Uiso   1.00
C974   C     0.60645   0.33506   0.74851   0.00000  Uiso   1.00
C975   C     0.89351   0.16499   0.91815   0.00000  Uiso   1.00
C976   C     0.61138   0.17242   0.91556   0.00000  Uiso   1.00
C977   C     0.88859   0.32754   0.75112   0.00000  Uiso   1.00
C978   C     0.89354   0.33507   0.91816   0.00000  Uiso   1.00
C979   C     0.60649   0.16496   0.74851   0.00000  Uiso   1.00
C980   C     0.63864   0.42242   0.75110   0.00000  Uiso   1.00
C981   C     0.81255   0.44281   0.83315   0.00000  Uiso   1.00
C982   C     0.86132   0.07763   0.91559   0.00000  Uiso   1.00
C983   C     0.85649   0.08501   0.74852   0.00000  Uiso   1.00
C984   C     0.64355   0.41494   0.91816   0.00000  Uiso   1.00
C985   C     0.86141   0.42246   0.91555   0.00000  Uiso   1.00
C986   C     0.63862   0.07758   0.75111   0.00000  Uiso   1.00
C987   C     0.64351   0.08504   0.91815   0.00000  Uiso   1.00
C988   C     0.85646   0.41493   0.74850   0.00000  Uiso   1.00
C989   C     0.68745   0.05719   0.83352   0.00000  Uiso   1.00
C990   C     0.68746   0.44280   0.83352   0.00000  Uiso   1.00
C991   C     0.81255   0.05720   0.83315   0.00000  Uiso   1.00
C992   C     0.99984   0.28919   0.69063   0.00000  Uiso   1.00
Cl993  Cl    0.99873   0.34024   0.71974   0.00000  Uiso   1.00
Cl994  Cl    0.50124   0.15976   0.94692   0.00000  Uiso   1.00
Cl995  Cl    0.99876   0.15976   0.71974   0.00000  Uiso   1.00
Cl996  Cl    0.50126   0.34024   0.94693   0.00000  Uiso   1.00
Cl997  Cl    0.74876   0.09024   0.71974   0.00000  Uiso   1.00
Cl998  Cl    0.75127   0.40976   0.94693   0.00000  Uiso   1.00
Cl999  Cl    0.74874   0.40976   0.71974   0.00000  Uiso   1.00
Cl1000 Cl    0.75124   0.09024   0.94693   0.00000  Uiso   1.00
N1001  N     0.50000   0.25000   0.95240   0.00000  Uiso   1.00
N1002  N     0.89102   0.30668   0.71838   0.00000  Uiso   1.00
N1003  N     0.89760   0.31729   0.95249   0.00000  Uiso   1.00
N1004  N     0.60243   0.18276   0.71419   0.00000  Uiso   1.00
N1005  N     0.64109   0.44327   0.71835   0.00000  Uiso   1.00
N1006  N     0.85884   0.05680   0.94835   0.00000  Uiso   1.00
N1007  N     0.85244   0.06720   0.71421   0.00000  Uiso   1.00
N1008  N     0.64762   0.43272   0.95248   0.00000  Uiso   1.00
N1009  N     0.85898   0.44332   0.94828   0.00000  Uiso   1.00
N1010  N     0.64105   0.05672   0.71836   0.00000  Uiso   1.00
N1011  N     0.64757   0.06724   0.95248   0.00000  Uiso   1.00
N1012  N     0.50000   0.25000   0.71427   0.00000  Uiso   1.00
N1013  N     0.85240   0.43271   0.71418   0.00000  Uiso   1.00
N1014  N     0.75000   0.00000   0.95240   0.00000  Uiso   1.00
N1015  N     0.75000   0.00000   0.71427   0.00000  Uiso   1.00
N1016  N     0.89116   0.19320   0.71831   0.00000  Uiso   1.00
N1017  N     0.60891   0.30673   0.94831   0.00000  Uiso   1.00
N1018  N     0.60238   0.31728   0.71418   0.00000  Uiso   1.00
N1019  N     0.89756   0.18280   0.95246   0.00000  Uiso   1.00
N1020  N     0.60895   0.19328   0.94831   0.00000  Uiso   1.00
O1021  O     0.54581   0.20419   0.87154   0.00000  Uiso   1.00
O1022  O     0.70420   0.04581   0.79513   0.00000  Uiso   1.00
O1023  O     0.70420   0.04581   0.87154   0.00000  Uiso   1.00
O1024  O     0.79581   0.45419   0.79513   0.00000  Uiso   1.00
O1025  O     0.70420   0.45419   0.79513   0.00000  Uiso   1.00
O1026  O     0.79581   0.04581   0.87154   0.00000  Uiso   1.00
O1027  O     0.79581   0.04581   0.79513   0.00000  Uiso   1.00
O1028  O     0.70420   0.45419   0.87154   0.00000  Uiso   1.00
O1029  O     0.95420   0.29581   0.79513   0.00000  Uiso   1.00
O1030  O     0.95420   0.29581   0.87154   0.00000  Uiso   1.00
O1031  O     0.54581   0.20419   0.79513   0.00000  Uiso   1.00
O1032  O     0.95420   0.20419   0.79513   0.00000  Uiso   1.00
O1033  O     0.54581   0.29581   0.87154   0.00000  Uiso   1.00
O1034  O     0.54581   0.29581   0.79513   0.00000  Uiso   1.00
O1035  O     0.95420   0.20419   0.87154   0.00000  Uiso   1.00
O1036  O     0.79581   0.45419   0.87154   0.00000  Uiso   1.00
Zn1037 Zn    0.50000   0.25000   0.88437   0.00000  Uiso   1.00
Zn1038 Zn    0.50000   0.25000   0.78229   0.00000  Uiso   1.00
Zn1039 Zn    0.75000   0.00000   0.88437   0.00000  Uiso   1.00
Zn1040 Zn    0.75000   0.00000   0.78229   0.00000  Uiso   1.00
C1041  C     0.06255   0.69281   0.83315   0.00000  Uiso   1.00
C1042  C     0.00015   0.71081   0.97604   0.00000  Uiso   1.00
C1043  C     0.49985   0.71081   0.69062   0.00000  Uiso   1.00
C1044  C     0.00016   0.78919   0.97604   0.00000  Uiso   1.00
C1045  C     0.24985   0.53919   0.69063   0.00000  Uiso   1.00
C1046  C     0.25016   0.96081   0.97604   0.00000  Uiso   1.00
C1047  C     0.24984   0.96081   0.69062   0.00000  Uiso   1.00
C1048  C     0.25015   0.53919   0.97604   0.00000  Uiso   1.00
C1049  C     0.38522   0.64650   0.79244   0.00000  Uiso   1.00
C1050  C     0.11479   0.85348   0.87422   0.00000  Uiso   1.00
C1051  C     0.11215   0.85719   0.79166   0.00000  Uiso   1.00
C1052  C     0.43745   0.80719   0.83352   0.00000  Uiso   1.00
C1053  C     0.38783   0.64283   0.87501   0.00000  Uiso   1.00
C1054  C     0.11480   0.64652   0.87422   0.00000  Uiso   1.00
C1055  C     0.38519   0.85346   0.79245   0.00000  Uiso   1.00
C1056  C     0.38785   0.85719   0.87501   0.00000  Uiso   1.00
C1057  C     0.11217   0.64282   0.79166   0.00000  Uiso   1.00
C1058  C     0.13521   0.89652   0.79245   0.00000  Uiso   1.00
C1059  C     0.36478   0.60350   0.87423   0.00000  Uiso   1.00
C1060  C     0.36217   0.60717   0.79166   0.00000  Uiso   1.00
C1061  C     0.13785   0.89281   0.87501   0.00000  Uiso   1.00
C1062  C     0.36481   0.89654   0.87421   0.00000  Uiso   1.00
C1063  C     0.43746   0.69280   0.83352   0.00000  Uiso   1.00
C1064  C     0.13520   0.60348   0.79245   0.00000  Uiso   1.00
C1065  C     0.13783   0.60718   0.87501   0.00000  Uiso   1.00
C1066  C     0.36216   0.89281   0.79165   0.00000  Uiso   1.00
C1067  C     0.09845   0.83802   0.83282   0.00000  Uiso   1.00
C1068  C     0.40155   0.66198   0.83384   0.00000  Uiso   1.00
C1069  C     0.40153   0.83801   0.83385   0.00000  Uiso   1.00
C1070  C     0.09847   0.66199   0.83282   0.00000  Uiso   1.00
C1071  C     0.34845   0.58802   0.83283   0.00000  Uiso   1.00
C1072  C     0.15155   0.91198   0.83385   0.00000  Uiso   1.00
C1073  C     0.15153   0.58801   0.83385   0.00000  Uiso   1.00
C1074  C     0.06254   0.80720   0.83315   0.00000  Uiso   1.00
C1075  C     0.34847   0.91199   0.83282   0.00000  Uiso   1.00
C1076  C     0.38868   0.67237   0.75108   0.00000  Uiso   1.00
C1077  C     0.11136   0.82758   0.91556   0.00000  Uiso   1.00
C1078  C     0.10645   0.83506   0.74851   0.00000  Uiso   1.00
C1079  C     0.39351   0.66499   0.91815   0.00000  Uiso   1.00
C1080  C     0.11138   0.67242   0.91556   0.00000  Uiso   1.00
C1081  C     0.38859   0.82754   0.75112   0.00000  Uiso   1.00
C1082  C     0.39354   0.83507   0.91816   0.00000  Uiso   1.00
C1083  C     0.10649   0.66496   0.74851   0.00000  Uiso   1.00
C1084  C     0.13864   0.92242   0.75110   0.00000  Uiso   1.00
C1085  C     0.31255   0.94281   0.83315   0.00000  Uiso   1.00
C1086  C     0.36132   0.57763   0.91559   0.00000  Uiso   1.00
C1087  C     0.35649   0.58501   0.74852   0.00000  Uiso   1.00
C1088  C     0.14355   0.91494   0.91816   0.00000  Uiso   1.00
C1089  C     0.36141   0.92246   0.91555   0.00000  Uiso   1.00
C1090  C     0.13862   0.57758   0.75111   0.00000  Uiso   1.00
C1091  C     0.14351   0.58504   0.91815   0.00000  Uiso   1.00
C1092  C     0.35646   0.91493   0.74850   0.00000  Uiso   1.00
C1093  C     0.18745   0.55719   0.83352   0.00000  Uiso   1.00
C1094  C     0.18746   0.94280   0.83352   0.00000  Uiso   1.00
C1095  C     0.31255   0.55720   0.83315   0.00000  Uiso   1.00
C1096  C     0.49984   0.78919   0.69063   0.00000  Uiso   1.00
Cl1097 Cl    0.49873   0.84024   0.71974   0.00000  Uiso   1.00
Cl1098 Cl    0.00124   0.65976   0.94692   0.00000  Uiso   1.00
Cl1099 Cl    0.49876   0.65976   0.71974   0.00000  Uiso   1.00
Cl1100 Cl    0.00126   0.84024   0.94693   0.00000  Uiso   1.00
Cl1101 Cl    0.24876   0.59024   0.71974   0.00000  Uiso   1.00
Cl1102 Cl    0.25127   0.90976   0.94693   0.00000  Uiso   1.00
Cl1103 Cl    0.24874   0.90976   0.71974   0.00000  Uiso   1.00
Cl1104 Cl    0.25124   0.59024   0.94693   0.00000  Uiso   1.00
N1105  N     0.00000   0.75000   0.95240   0.00000  Uiso   1.00
N1106  N     0.39102   0.80668   0.71838   0.00000  Uiso   1.00
N1107  N     0.39760   0.81729   0.95249   0.00000  Uiso   1.00
N1108  N     0.10243   0.68276   0.71419   0.00000  Uiso   1.00
N1109  N     0.14109   0.94327   0.71835   0.00000  Uiso   1.00
N1110  N     0.35884   0.55680   0.94835   0.00000  Uiso   1.00
N1111  N     0.35244   0.56720   0.71421   0.00000  Uiso   1.00
N1112  N     0.14762   0.93272   0.95248   0.00000  Uiso   1.00
N1113  N     0.35898   0.94332   0.94828   0.00000  Uiso   1.00
N1114  N     0.14105   0.55672   0.71836   0.00000  Uiso   1.00
N1115  N     0.14757   0.56724   0.95248   0.00000  Uiso   1.00
N1116  N     0.00000   0.75000   0.71427   0.00000  Uiso   1.00
N1117  N     0.35240   0.93271   0.71418   0.00000  Uiso   1.00
N1118  N     0.25000   0.50000   0.95240   0.00000  Uiso   1.00
N1119  N     0.25000   0.50000   0.71427   0.00000  Uiso   1.00
N1120  N     0.39116   0.69320   0.71831   0.00000  Uiso   1.00
N1121  N     0.10891   0.80673   0.94831   0.00000  Uiso   1.00
N1122  N     0.10238   0.81728   0.71418   0.00000  Uiso   1.00
N1123  N     0.39756   0.68280   0.95246   0.00000  Uiso   1.00
N1124  N     0.10895   0.69328   0.94831   0.00000  Uiso   1.00
O1125  O     0.04581   0.70419   0.87154   0.00000  Uiso   1.00
O1126  O     0.20420   0.54581   0.79513   0.00000  Uiso   1.00
O1127  O     0.20420   0.54581   0.87154   0.00000  Uiso   1.00
O1128  O     0.29581   0.95419   0.79513   0.00000  Uiso   1.00
O1129  O     0.20420   0.95419   0.79513   0.00000  Uiso   1.00
O1130  O     0.29581   0.54581   0.87154   0.00000  Uiso   1.00
O1131  O     0.29581   0.54581   0.79513   0.00000  Uiso   1.00
O1132  O     0.20420   0.95419   0.87154   0.00000  Uiso   1.00
O1133  O     0.45420   0.79581   0.79513   0.00000  Uiso   1.00
O1134  O     0.45420   0.79581   0.87154   0.00000  Uiso   1.00
O1135  O     0.04581   0.70419   0.79513   0.00000  Uiso   1.00
O1136  O     0.45420   0.70419   0.79513   0.00000  Uiso   1.00
O1137  O     0.04581   0.79581   0.87154   0.00000  Uiso   1.00
O1138  O     0.04581   0.79581   0.79513   0.00000  Uiso   1.00
O1139  O     0.45420   0.70419   0.87154   0.00000  Uiso   1.00
O1140  O     0.29581   0.95419   0.87154   0.00000  Uiso   1.00
Zn1141 Zn    0.00000   0.75000   0.88437   0.00000  Uiso   1.00
Zn1142 Zn    0.00000   0.75000   0.78229   0.00000  Uiso   1.00
Zn1143 Zn    0.25000   0.50000   0.88437   0.00000  Uiso   1.00
Zn1144 Zn    0.25000   0.50000   0.78229   0.00000  Uiso   1.00
C1145  C     0.56255   0.69281   0.83315   0.00000  Uiso   1.00
C1146  C     0.50015   0.71081   0.97604   0.00000  Uiso   1.00
C1147  C     0.99985   0.71081   0.69062   0.00000  Uiso   1.00
C1148  C     0.50016   0.78919   0.97604   0.00000  Uiso   1.00
C1149  C     0.74985   0.53919   0.69063   0.00000  Uiso   1.00
C1150  C     0.75016   0.96081   0.97604   0.00000  Uiso   1.00
C1151  C     0.74984   0.96081   0.69062   0.00000  Uiso   1.00
C1152  C     0.75015   0.53919   0.97604   0.00000  Uiso   1.00
C1153  C     0.88522   0.64650   0.79244   0.00000  Uiso   1.00
C1154  C     0.61479   0.85348   0.87422   0.00000  Uiso   1.00
C1155  C     0.61215   0.85719   0.79166   0.00000  Uiso   1.00
C1156  C     0.93745   0.80719   0.83352   0.00000  Uiso   1.00
C1157  C     0.88783   0.64283   0.87501   0.00000  Uiso   1.00
C1158  C     0.61480   0.64652   0.87422   0.00000  Uiso   1.00
C1159  C     0.88519   0.85346   0.79245   0.00000  Uiso   1.00
C1160  C     0.88785   0.85719   0.87501   0.00000  Uiso   1.00
C1161  C     0.61217   0.64282   0.79166   0.00000  Uiso   1.00
C1162  C     0.63521   0.89652   0.79245   0.00000  Uiso   1.00
C1163  C     0.86478   0.60350   0.87423   0.00000  Uiso   1.00
C1164  C     0.86217   0.60717   0.79166   0.00000  Uiso   1.00
C1165  C     0.63785   0.89281   0.87501   0.00000  Uiso   1.00
C1166  C     0.86481   0.89654   0.87421   0.00000  Uiso   1.00
C1167  C     0.93746   0.69280   0.83352   0.00000  Uiso   1.00
C1168  C     0.63520   0.60348   0.79245   0.00000  Uiso   1.00
C1169  C     0.63783   0.60718   0.87501   0.00000  Uiso   1.00
C1170  C     0.86216   0.89281   0.79165   0.00000  Uiso   1.00
C1171  C     0.59845   0.83802   0.83282   0.00000  Uiso   1.00
C1172  C     0.90155   0.66198   0.83384   0.00000  Uiso   1.00
C1173  C     0.90153   0.83801   0.83385   0.00000  Uiso   1.00
C1174  C     0.59847   0.66199   0.83282   0.00000  Uiso   1.00
C1175  C     0.84845   0.58802   0.83283   0.00000  Uiso   1.00
C1176  C     0.65155   0.91198   0.83385   0.00000  Uiso   1.00
C1177  C     0.65153   0.58801   0.83385   0.00000  Uiso   1.00
C1178  C     0.56254   0.80720   0.83315   0.00000  Uiso   1.00
C1179  C     0.84847   0.91199   0.83282   0.00000  Uiso   1.00
C1180  C     0.88868   0.67237   0.75108   0.00000  Uiso   1.00
C1181  C     0.61136   0.82758   0.91556   0.00000  Uiso   1.00
C1182  C     0.60645   0.83506   0.74851   0.00000  Uiso   1.00
C1183  C     0.89351   0.66499   0.91815   0.00000  Uiso   1.00
C1184  C     0.61138   0.67242   0.91556   0.00000  Uiso   1.00
C1185  C     0.88859   0.82754   0.75112   0.00000  Uiso   1.00
C1186  C     0.89354   0.83507   0.91816   0.00000  Uiso   1.00
C1187  C     0.60649   0.66496   0.74851   0.00000  Uiso   1.00
C1188  C     0.63864   0.92242   0.75110   0.00000  Uiso   1.00
C1189  C     0.81255   0.94281   0.83315   0.00000  Uiso   1.00
C1190  C     0.86132   0.57763   0.91559   0.00000  Uiso   1.00
C1191  C     0.85649   0.58501   0.74852   0.00000  Uiso   1.00
C1192  C     0.64355   0.91494   0.91816   0.00000  Uiso   1.00
C1193  C     0.86141   0.92246   0.91555   0.00000  Uiso   1.00
C1194  C     0.63862   0.57758   0.75111   0.00000  Uiso   1.00
C1195  C     0.64351   0.58504   0.91815   0.00000  Uiso   1.00
C1196  C     0.85646   0.91493   0.74850   0.00000  Uiso   1.00
C1197  C     0.68745   0.55719   0.83352   0.00000  Uiso   1.00
C1198  C     0.68746   0.94280   0.83352   0.00000  Uiso   1.00
C1199  C     0.81255   0.55720   0.83315   0.00000  Uiso   1.00
C1200  C     0.99984   0.78919   0.69063   0.00000  Uiso   1.00
Cl1201 Cl    0.99873   0.84024   0.71974   0.00000  Uiso   1.00
Cl1202 Cl    0.50124   0.65976   0.94692   0.00000  Uiso   1.00
Cl1203 Cl    0.99876   0.65976   0.71974   0.00000  Uiso   1.00
Cl1204 Cl    0.50126   0.84024   0.94693   0.00000  Uiso   1.00
Cl1205 Cl    0.74876   0.59024   0.71974   0.00000  Uiso   1.00
Cl1206 Cl    0.75127   0.90976   0.94693   0.00000  Uiso   1.00
Cl1207 Cl    0.74874   0.90976   0.71974   0.00000  Uiso   1.00
Cl1208 Cl    0.75124   0.59024   0.94693   0.00000  Uiso   1.00
N1209  N     0.50000   0.75000   0.95240   0.00000  Uiso   1.00
N1210  N     0.89102   0.80668   0.71838   0.00000  Uiso   1.00
N1211  N     0.89760   0.81729   0.95249   0.00000  Uiso   1.00
N1212  N     0.60243   0.68276   0.71419   0.00000  Uiso   1.00
N1213  N     0.64109   0.94327   0.71835   0.00000  Uiso   1.00
N1214  N     0.85884   0.55680   0.94835   0.00000  Uiso   1.00
N1215  N     0.85244   0.56720   0.71421   0.00000  Uiso   1.00
N1216  N     0.64762   0.93272   0.95248   0.00000  Uiso   1.00
N1217  N     0.85898   0.94332   0.94828   0.00000  Uiso   1.00
N1218  N     0.64105   0.55672   0.71836   0.00000  Uiso   1.00
N1219  N     0.64757   0.56724   0.95248   0.00000  Uiso   1.00
N1220  N     0.50000   0.75000   0.71427   0.00000  Uiso   1.00
N1221  N     0.85240   0.93271   0.71418   0.00000  Uiso   1.00
N1222  N     0.75000   0.50000   0.95240   0.00000  Uiso   1.00
N1223  N     0.75000   0.50000   0.71427   0.00000  Uiso   1.00
N1224  N     0.89116   0.69320   0.71831   0.00000  Uiso   1.00
N1225  N     0.60891   0.80673   0.94831   0.00000  Uiso   1.00
N1226  N     0.60238   0.81728   0.71418   0.00000  Uiso   1.00
N1227  N     0.89756   0.68280   0.95246   0.00000  Uiso   1.00
N1228  N     0.60895   0.69328   0.94831   0.00000  Uiso   1.00
O1229  O     0.54581   0.70419   0.87154   0.00000  Uiso   1.00
O1230  O     0.70420   0.54581   0.79513   0.00000  Uiso   1.00
O1231  O     0.70420   0.54581   0.87154   0.00000  Uiso   1.00
O1232  O     0.79581   0.95419   0.79513   0.00000  Uiso   1.00
O1233  O     0.70420   0.95419   0.79513   0.00000  Uiso   1.00
O1234  O     0.79581   0.54581   0.87154   0.00000  Uiso   1.00
O1235  O     0.79581   0.54581   0.79513   0.00000  Uiso   1.00
O1236  O     0.70420   0.95419   0.87154   0.00000  Uiso   1.00
O1237  O     0.95420   0.79581   0.79513   0.00000  Uiso   1.00
O1238  O     0.95420   0.79581   0.87154   0.00000  Uiso   1.00
O1239  O     0.54581   0.70419   0.79513   0.00000  Uiso   1.00
O1240  O     0.95420   0.70419   0.79513   0.00000  Uiso   1.00
O1241  O     0.54581   0.79581   0.87154   0.00000  Uiso   1.00
O1242  O     0.54581   0.79581   0.79513   0.00000  Uiso   1.00
O1243  O     0.95420   0.70419   0.87154   0.00000  Uiso   1.00
O1244  O     0.79581   0.95419   0.87154   0.00000  Uiso   1.00
Zn1245 Zn    0.50000   0.75000   0.88437   0.00000  Uiso   1.00
Zn1246 Zn    0.50000   0.75000   0.78229   0.00000  Uiso   1.00
Zn1247 Zn    0.75000   0.50000   0.88437   0.00000  Uiso   1.00
Zn1248 Zn    0.75000   0.50000   0.78229   0.00000  Uiso   1.00
loop_
_geom_bond_atom_site_label_1
_geom_bond_atom_site_label_2
_geom_bond_distance
_geom_bond_site_symmetry_2
_ccdc_geom_bond_type
C1     O95     1.291   .     A
C1     O85     1.292   .     A
C1     C30     1.449   .     S
C2     N65     1.370   .     A
C2     Cl58    1.760   .     S
C2     C523    1.419   1_455 S
C3     Cl59    1.760   .     S
C3     C938    1.419   1_554 S
C3     N180    1.370   .     S
C4     N65     1.370   .     A
C4     Cl60    1.760   .     S
C4     C576    1.419   1_455 S
C5     N79     1.370   .     A
C5     Cl61    1.760   .     S
C5     C840    1.419   1_554 S
C6     Cl62    1.760   .     S
C6     C423    1.419   .     S
C6     N286    1.370   .     S
C7     Cl63    1.760   .     S
C7     C838    1.419   1_554 S
C7     N287    1.370   .     S
C8     N78     1.370   .     A
C8     Cl64    1.760   .     S
C8     C421    1.419   .     S
C9     C36     1.454   .     S
C9     C20     1.382   .     A
C9     C28     1.410   .     A
C10    C27     1.410   .     A
C10    C37     1.454   .     S
C10    C21     1.382   .     A
C11    C18     1.382   .     A
C11    C38     1.453   .     S
C11    C27     1.411   .     A
C12    C29     1.449   .     S
C12    O93     1.292   .     A
C12    O94     1.291   .     A
C13    C28     1.411   .     A
C13    C19     1.382   .     A
C13    C39     1.453   .     S
C14    C40     1.454   .     S
C14    C30     1.410   .     A
C14    C25     1.382   .     A
C15    C29     1.410   .     A
C15    C41     1.454   .     S
C15    C26     1.382   .     A
C16    C29     1.411   .     A
C16    C42     1.453   .     S
C16    C22     1.382   .     A
C17    C30     1.411   .     A
C17    C24     1.382   .     A
C17    C43     1.453   .     S
C18    C44     1.454   .     S
C18    C32     1.410   .     A
C19    C31     1.410   .     A
C19    C46     1.454   .     S
C20    C47     1.453   .     S
C20    C31     1.411   .     A
C21    C48     1.453   .     S
C21    C32     1.411   .     A
C22    C35     1.410   .     A
C22    C49     1.454   .     S
C23    O99     1.291   .     A
C23    O96     1.292   .     A
C23    C28     1.449   .     S
C24    C50     1.454   .     S
C24    C33     1.410   .     A
C25    C51     1.453   .     S
C25    C33     1.411   .     A
C26    C52     1.453   .     S
C26    C35     1.411   .     A
C27    C34     1.449   .     S
C31    C55     1.449   .     S
C32    C54     1.449   .     S
C33    C53     1.449   .     S
C34    O97     1.292   .     A
C34    O98     1.291   .     A
C35    C45     1.449   .     S
C36    N80     1.157   .     T
C37    N81     1.157   .     T
C38    N82     1.157   .     T
C39    N83     1.157   .     T
C40    N84     1.157   .     T
C41    N66     1.157   .     T
C42    N67     1.157   .     T
C43    N68     1.157   .     T
C44    N69     1.157   .     T
C45    O88     1.291   .     A
C45    O100    1.292   .     A
C46    N70     1.157   .     T
C47    N71     1.157   .     T
C48    N72     1.157   .     T
C49    N73     1.157   .     T
C50    N74     1.157   .     T
C51    N75     1.157   .     T
C52    N77     1.157   .     T
C53    O86     1.292   .     A
C53    O87     1.291   .     A
C54    O89     1.292   .     A
C54    O92     1.291   .     A
C55    O90     1.292   .     A
C55    O91     1.291   .     A
C56    Cl57    1.760   .     S
C56    C940    1.419   1_554 S
C56    N180    1.370   .     S
N65    Zn101   2.015   .     S
N76    Zn102   2.015   .     S
N76    C107    1.370   1_455 S
N76    C160    1.370   1_455 S
N78    Zn103   2.015   .     S
N78    C214    1.370   1_545 S
N79    C215    1.370   1_545 S
N79    Zn104   2.015   .     S
O85    Zn101   2.012   .     S
O86    Zn104   2.012   .     S
O87    Zn103   2.017   .     S
O88    Zn312   2.017   .     S
O89    Zn312   2.012   .     S
O90    Zn103   2.012   .     S
O91    Zn104   2.017   .     S
O92    Zn311   2.017   .     S
O93    Zn206   2.012   .     S
O94    Zn205   2.017   .     S
O95    Zn102   2.017   .     S
O96    Zn206   2.012   .     S
O97    Zn101   2.012   .     S
O98    Zn102   2.017   .     S
O99    Zn205   2.017   .     S
O100   Zn311   2.012   .     S
Zn101  O203    2.017   1_455 S
Zn101  O198    2.017   1_455 S
Zn102  O200    2.012   1_455 S
Zn102  O197    2.012   1_455 S
Zn103  O300    2.017   1_545 S
Zn103  O308    2.012   1_545 S
Zn104  O296    2.017   1_545 S
Zn104  O297    2.012   1_545 S
C105   O199    1.291   .     A
C105   O189    1.292   .     A
C105   C134    1.449   .     S
C106   N169    1.370   .     A
C106   Cl162   1.760   .     S
C106   C419    1.419   .     S
C107   Cl163   1.760   .     S
C107   C834    1.419   1_654 S
C107   N76     1.370   1_655 S
C108   N169    1.370   .     A
C108   Cl164   1.760   .     S
C108   C472    1.419   .     S
C109   N183    1.370   .     A
C109   Cl165   1.760   .     S
C109   C944    1.419   1_554 S
C110   Cl166   1.760   .     S
C110   C527    1.419   .     S
C110   N390    1.370   .     S
C111   Cl167   1.760   .     S
C111   C942    1.419   1_554 S
C111   N391    1.370   .     S
C112   N182    1.370   .     A
C112   Cl168   1.760   .     S
C112   C525    1.419   .     S
C113   C140    1.454   .     S
C113   C124    1.382   .     A
C113   C132    1.410   .     A
C114   C131    1.410   .     A
C114   C141    1.454   .     S
C114   C125    1.382   .     A
C115   C122    1.382   .     A
C115   C142    1.453   .     S
C115   C131    1.411   .     A
C116   C133    1.449   .     S
C116   O197    1.292   .     A
C116   O198    1.291   .     A
C117   C132    1.411   .     A
C117   C123    1.382   .     A
C117   C143    1.453   .     S
C118   C144    1.454   .     S
C118   C134    1.410   .     A
C118   C129    1.382   .     A
C119   C133    1.410   .     A
C119   C145    1.454   .     S
C119   C130    1.382   .     A
C120   C133    1.411   .     A
C120   C146    1.453   .     S
C120   C126    1.382   .     A
C121   C134    1.411   .     A
C121   C128    1.382   .     A
C121   C147    1.453   .     S
C122   C148    1.454   .     S
C122   C136    1.410   .     A
C123   C135    1.410   .     A
C123   C150    1.454   .     S
C124   C151    1.453   .     S
C124   C135    1.411   .     A
C125   C152    1.453   .     S
C125   C136    1.411   .     A
C126   C139    1.410   .     A
C126   C153    1.454   .     S
C127   O203    1.291   .     A
C127   O200    1.292   .     A
C127   C132    1.449   .     S
C128   C154    1.454   .     S
C128   C137    1.410   .     A
C129   C155    1.453   .     S
C129   C137    1.411   .     A
C130   C156    1.453   .     S
C130   C139    1.411   .     A
C131   C138    1.449   .     S
C135   C159    1.449   .     S
C136   C158    1.449   .     S
C137   C157    1.449   .     S
C138   O201    1.292   .     A
C138   O202    1.291   .     A
C139   C149    1.449   .     S
C140   N184    1.157   .     T
C141   N185    1.157   .     T
C142   N186    1.157   .     T
C143   N187    1.157   .     T
C144   N188    1.157   .     T
C145   N170    1.157   .     T
C146   N171    1.157   .     T
C147   N172    1.157   .     T
C148   N173    1.157   .     T
C149   O192    1.291   .     A
C149   O204    1.292   .     A
C150   N174    1.157   .     T
C151   N175    1.157   .     T
C152   N176    1.157   .     T
C153   N177    1.157   .     T
C154   N178    1.157   .     T
C155   N179    1.157   .     T
C156   N181    1.157   .     T
C157   O190    1.292   .     A
C157   O191    1.291   .     A
C158   O193    1.292   .     A
C158   O196    1.291   .     A
C159   O194    1.292   .     A
C159   O195    1.291   .     A
C160   Cl161   1.760   .     S
C160   C836    1.419   1_654 S
C160   N76     1.370   1_655 S
N169   Zn205   2.015   .     S
N180   Zn206   2.015   .     S
N182   Zn207   2.015   .     S
N182   C318    1.370   1_545 S
N183   C319    1.370   1_545 S
N183   Zn208   2.015   .     S
O189   Zn205   2.012   .     S
O190   Zn208   2.012   .     S
O191   Zn207   2.017   .     S
O192   Zn416   2.017   .     S
O193   Zn416   2.012   .     S
O194   Zn207   2.012   .     S
O195   Zn208   2.017   .     S
O196   Zn415   2.017   .     S
O197   Zn102   2.012   1_655 S
O198   Zn101   2.017   1_655 S
O199   Zn206   2.017   .     S
O200   Zn102   2.012   1_655 S
O201   Zn205   2.012   .     S
O202   Zn206   2.017   .     S
O203   Zn101   2.017   1_655 S
O204   Zn415   2.012   .     S
Zn207  O404    2.017   1_545 S
Zn207  O412    2.012   1_545 S
Zn208  O400    2.017   1_545 S
Zn208  O401    2.012   1_545 S
C209   O303    1.291   .     A
C209   O293    1.292   .     A
C209   C238    1.449   .     S
C210   N273    1.370   .     A
C210   Cl266   1.760   .     S
C210   C731    1.419   1_455 S
C211   Cl267   1.760   .     S
C211   C1146   1.419   1_554 S
C211   N388    1.370   .     S
C212   N273    1.370   .     A
C212   Cl268   1.760   .     S
C212   C784    1.419   1_455 S
C213   N287    1.370   .     A
C213   Cl269   1.760   .     S
C213   C1048   1.419   1_554 S
C214   Cl270   1.760   .     S
C214   C631    1.419   .     S
C214   N78     1.370   1_565 S
C215   Cl271   1.760   .     S
C215   C1046   1.419   1_554 S
C215   N79     1.370   1_565 S
C216   N286    1.370   .     A
C216   Cl272   1.760   .     S
C216   C629    1.419   .     S
C217   C244    1.454   .     S
C217   C228    1.382   .     A
C217   C236    1.410   .     A
C218   C235    1.410   .     A
C218   C245    1.454   .     S
C218   C229    1.382   .     A
C219   C226    1.382   .     A
C219   C246    1.453   .     S
C219   C235    1.411   .     A
C220   C237    1.449   .     S
C220   O301    1.292   .     A
C220   O302    1.291   .     A
C221   C236    1.411   .     A
C221   C227    1.382   .     A
C221   C247    1.453   .     S
C222   C248    1.454   .     S
C222   C238    1.410   .     A
C222   C233    1.382   .     A
C223   C237    1.410   .     A
C223   C249    1.454   .     S
C223   C234    1.382   .     A
C224   C237    1.411   .     A
C224   C250    1.453   .     S
C224   C230    1.382   .     A
C225   C238    1.411   .     A
C225   C232    1.382   .     A
C225   C251    1.453   .     S
C226   C252    1.454   .     S
C226   C240    1.410   .     A
C227   C239    1.410   .     A
C227   C254    1.454   .     S
C228   C255    1.453   .     S
C228   C239    1.411   .     A
C229   C256    1.453   .     S
C229   C240    1.411   .     A
C230   C243    1.410   .     A
C230   C257    1.454   .     S
C231   O307    1.291   .     A
C231   O304    1.292   .     A
C231   C236    1.449   .     S
C232   C258    1.454   .     S
C232   C241    1.410   .     A
C233   C259    1.453   .     S
C233   C241    1.411   .     A
C234   C260    1.453   .     S
C234   C243    1.411   .     A
C235   C242    1.449   .     S
C239   C263    1.449   .     S
C240   C262    1.449   .     S
C241   C261    1.449   .     S
C242   O305    1.292   .     A
C242   O306    1.291   .     A
C243   C253    1.449   .     S
C244   N288    1.157   .     T
C245   N289    1.157   .     T
C246   N290    1.157   .     T
C247   N291    1.157   .     T
C248   N292    1.157   .     T
C249   N274    1.157   .     T
C250   N275    1.157   .     T
C251   N276    1.157   .     T
C252   N277    1.157   .     T
C253   O296    1.291   .     A
C253   O308    1.292   .     A
C254   N278    1.157   .     T
C255   N279    1.157   .     T
C256   N280    1.157   .     T
C257   N281    1.157   .     T
C258   N282    1.157   .     T
C259   N283    1.157   .     T
C260   N285    1.157   .     T
C261   O294    1.292   .     A
C261   O295    1.291   .     A
C262   O297    1.292   .     A
C262   O300    1.291   .     A
C263   O298    1.292   .     A
C263   O299    1.291   .     A
C264   Cl265   1.760   .     S
C264   C1148   1.419   1_554 S
C264   N388    1.370   .     S
N273   Zn309   2.015   .     S
N284   Zn310   2.015   .     S
N284   C315    1.370   1_455 S
N284   C368    1.370   1_455 S
N286   Zn311   2.015   .     S
N287   Zn312   2.015   .     S
O293   Zn309   2.012   .     S
O294   Zn312   2.012   .     S
O295   Zn311   2.017   .     S
O296   Zn104   2.017   1_565 S
O297   Zn104   2.012   1_565 S
O298   Zn311   2.012   .     S
O299   Zn312   2.017   .     S
O300   Zn103   2.017   1_565 S
O301   Zn414   2.012   .     S
O302   Zn413   2.017   .     S
O303   Zn310   2.017   .     S
O304   Zn414   2.012   .     S
O305   Zn309   2.012   .     S
O306   Zn310   2.017   .     S
O307   Zn413   2.017   .     S
O308   Zn103   2.012   1_565 S
Zn309  O411    2.017   1_455 S
Zn309  O406    2.017   1_455 S
Zn310  O408    2.012   1_455 S
Zn310  O405    2.012   1_455 S
C313   O407    1.291   .     A
C313   O397    1.292   .     A
C313   C342    1.449   .     S
C314   N377    1.370   .     A
C314   Cl370   1.760   .     S
C314   C627    1.419   .     S
C315   Cl371   1.760   .     S
C315   C1042   1.419   1_654 S
C315   N284    1.370   1_655 S
C316   N377    1.370   .     A
C316   Cl372   1.760   .     S
C316   C680    1.419   .     S
C317   N391    1.370   .     A
C317   Cl373   1.760   .     S
C317   C1152   1.419   1_554 S
C318   Cl374   1.760   .     S
C318   C735    1.419   .     S
C318   N182    1.370   1_565 S
C319   Cl375   1.760   .     S
C319   C1150   1.419   1_554 S
C319   N183    1.370   1_565 S
C320   N390    1.370   .     A
C320   Cl376   1.760   .     S
C320   C733    1.419   .     S
C321   C348    1.454   .     S
C321   C332    1.382   .     A
C321   C340    1.410   .     A
C322   C339    1.410   .     A
C322   C349    1.454   .     S
C322   C333    1.382   .     A
C323   C330    1.382   .     A
C323   C350    1.453   .     S
C323   C339    1.411   .     A
C324   C341    1.449   .     S
C324   O405    1.292   .     A
C324   O406    1.291   .     A
C325   C340    1.411   .     A
C325   C331    1.382   .     A
C325   C351    1.453   .     S
C326   C352    1.454   .     S
C326   C342    1.410   .     A
C326   C337    1.382   .     A
C327   C341    1.410   .     A
C327   C353    1.454   .     S
C327   C338    1.382   .     A
C328   C341    1.411   .     A
C328   C354    1.453   .     S
C328   C334    1.382   .     A
C329   C342    1.411   .     A
C329   C336    1.382   .     A
C329   C355    1.453   .     S
C330   C356    1.454   .     S
C330   C344    1.410   .     A
C331   C343    1.410   .     A
C331   C358    1.454   .     S
C332   C359    1.453   .     S
C332   C343    1.411   .     A
C333   C360    1.453   .     S
C333   C344    1.411   .     A
C334   C347    1.410   .     A
C334   C361    1.454   .     S
C335   O411    1.291   .     A
C335   O408    1.292   .     A
C335   C340    1.449   .     S
C336   C362    1.454   .     S
C336   C345    1.410   .     A
C337   C363    1.453   .     S
C337   C345    1.411   .     A
C338   C364    1.453   .     S
C338   C347    1.411   .     A
C339   C346    1.449   .     S
C343   C367    1.449   .     S
C344   C366    1.449   .     S
C345   C365    1.449   .     S
C346   O409    1.292   .     A
C346   O410    1.291   .     A
C347   C357    1.449   .     S
C348   N392    1.157   .     T
C349   N393    1.157   .     T
C350   N394    1.157   .     T
C351   N395    1.157   .     T
C352   N396    1.157   .     T
C353   N378    1.157   .     T
C354   N379    1.157   .     T
C355   N380    1.157   .     T
C356   N381    1.157   .     T
C357   O400    1.291   .     A
C357   O412    1.292   .     A
C358   N382    1.157   .     T
C359   N383    1.157   .     T
C360   N384    1.157   .     T
C361   N385    1.157   .     T
C362   N386    1.157   .     T
C363   N387    1.157   .     T
C364   N389    1.157   .     T
C365   O398    1.292   .     A
C365   O399    1.291   .     A
C366   O401    1.292   .     A
C366   O404    1.291   .     A
C367   O402    1.292   .     A
C367   O403    1.291   .     A
C368   Cl369   1.760   .     S
C368   C1044   1.419   1_654 S
C368   N284    1.370   1_655 S
N377   Zn413   2.015   .     S
N388   Zn414   2.015   .     S
N390   Zn415   2.015   .     S
N391   Zn416   2.015   .     S
O397   Zn413   2.012   .     S
O398   Zn416   2.012   .     S
O399   Zn415   2.017   .     S
O400   Zn208   2.017   1_565 S
O401   Zn208   2.012   1_565 S
O402   Zn415   2.012   .     S
O403   Zn416   2.017   .     S
O404   Zn207   2.017   1_565 S
O405   Zn310   2.012   1_655 S
O406   Zn309   2.017   1_655 S
O407   Zn414   2.017   .     S
O408   Zn310   2.012   1_655 S
O409   Zn413   2.012   .     S
O410   Zn414   2.017   .     S
O411   Zn309   2.017   1_655 S
O412   Zn207   2.012   1_565 S
C417   O511    1.291   .     A
C417   O501    1.292   .     A
C417   C446    1.449   .     S
C418   N481    1.370   .     A
C418   Cl474   1.760   .     S
C418   C939    1.419   1_455 S
C419   Cl475   1.760   .     S
C419   N596    1.370   .     S
C420   N481    1.370   .     A
C420   Cl476   1.760   .     S
C420   C992    1.419   1_455 S
C421   N495    1.370   .     A
C421   Cl477   1.760   .     S
C422   Cl478   1.760   .     S
C422   C839    1.419   .     S
C422   N702    1.370   .     S
C423   Cl479   1.760   .     S
C423   N703    1.370   .     S
C424   N494    1.370   .     A
C424   Cl480   1.760   .     S
C424   C837    1.419   .     S
C425   C452    1.454   .     S
C425   C436    1.382   .     A
C425   C444    1.410   .     A
C426   C443    1.410   .     A
C426   C453    1.454   .     S
C426   C437    1.382   .     A
C427   C434    1.382   .     A
C427   C454    1.453   .     S
C427   C443    1.411   .     A
C428   C445    1.449   .     S
C428   O509    1.292   .     A
C428   O510    1.291   .     A
C429   C444    1.411   .     A
C429   C435    1.382   .     A
C429   C455    1.453   .     S
C430   C456    1.454   .     S
C430   C446    1.410   .     A
C430   C441    1.382   .     A
C431   C445    1.410   .     A
C431   C457    1.454   .     S
C431   C442    1.382   .     A
C432   C445    1.411   .     A
C432   C458    1.453   .     S
C432   C438    1.382   .     A
C433   C446    1.411   .     A
C433   C440    1.382   .     A
C433   C459    1.453   .     S
C434   C460    1.454   .     S
C434   C448    1.410   .     A
C435   C447    1.410   .     A
C435   C462    1.454   .     S
C436   C463    1.453   .     S
C436   C447    1.411   .     A
C437   C464    1.453   .     S
C437   C448    1.411   .     A
C438   C451    1.410   .     A
C438   C465    1.454   .     S
C439   O515    1.291   .     A
C439   O512    1.292   .     A
C439   C444    1.449   .     S
C440   C466    1.454   .     S
C440   C449    1.410   .     A
C441   C467    1.453   .     S
C441   C449    1.411   .     A
C442   C468    1.453   .     S
C442   C451    1.411   .     A
C443   C450    1.449   .     S
C447   C471    1.449   .     S
C448   C470    1.449   .     S
C449   C469    1.449   .     S
C450   O513    1.292   .     A
C450   O514    1.291   .     A
C451   C461    1.449   .     S
C452   N496    1.157   .     T
C453   N497    1.157   .     T
C454   N498    1.157   .     T
C455   N499    1.157   .     T
C456   N500    1.157   .     T
C457   N482    1.157   .     T
C458   N483    1.157   .     T
C459   N484    1.157   .     T
C460   N485    1.157   .     T
C461   O504    1.291   .     A
C461   O516    1.292   .     A
C462   N486    1.157   .     T
C463   N487    1.157   .     T
C464   N488    1.157   .     T
C465   N489    1.157   .     T
C466   N490    1.157   .     T
C467   N491    1.157   .     T
C468   N493    1.157   .     T
C469   O502    1.292   .     A
C469   O503    1.291   .     A
C470   O505    1.292   .     A
C470   O508    1.291   .     A
C471   O506    1.292   .     A
C471   O507    1.291   .     A
C472   Cl473   1.760   .     S
C472   N596    1.370   .     S
N481   Zn517   2.015   .     S
N492   Zn518   2.015   .     S
N492   C523    1.370   1_455 S
N492   C576    1.370   1_455 S
N494   Zn519   2.015   .     S
N494   C630    1.370   1_545 S
N495   C631    1.370   1_545 S
N495   Zn520   2.015   .     S
O501   Zn517   2.012   .     S
O502   Zn520   2.012   .     S
O503   Zn519   2.017   .     S
O504   Zn728   2.017   .     S
O505   Zn728   2.012   .     S
O506   Zn519   2.012   .     S
O507   Zn520   2.017   .     S
O508   Zn727   2.017   .     S
O509   Zn622   2.012   .     S
O510   Zn621   2.017   .     S
O511   Zn518   2.017   .     S
O512   Zn622   2.012   .     S
O513   Zn517   2.012   .     S
O514   Zn518   2.017   .     S
O515   Zn621   2.017   .     S
O516   Zn727   2.012   .     S
Zn517  O619    2.017   1_455 S
Zn517  O614    2.017   1_455 S
Zn518  O616    2.012   1_455 S
Zn518  O613    2.012   1_455 S
Zn519  O716    2.017   1_545 S
Zn519  O724    2.012   1_545 S
Zn520  O712    2.017   1_545 S
Zn520  O713    2.012   1_545 S
C521   O615    1.291   .     A
C521   O605    1.292   .     A
C521   C550    1.449   .     S
C522   N585    1.370   .     A
C522   Cl578   1.760   .     S
C522   C835    1.419   .     S
C523   Cl579   1.760   .     S
C523   C2      1.419   1_655 S
C523   N492    1.370   1_655 S
C524   N585    1.370   .     A
C524   Cl580   1.760   .     S
C524   C888    1.419   .     S
C525   N599    1.370   .     A
C525   Cl581   1.760   .     S
C526   Cl582   1.760   .     S
C526   C943    1.419   .     S
C526   N806    1.370   .     S
C527   Cl583   1.760   .     S
C527   N807    1.370   .     S
C528   N598    1.370   .     A
C528   Cl584   1.760   .     S
C528   C941    1.419   .     S
C529   C556    1.454   .     S
C529   C540    1.382   .     A
C529   C548    1.410   .     A
C530   C547    1.410   .     A
C530   C557    1.454   .     S
C530   C541    1.382   .     A
C531   C538    1.382   .     A
C531   C558    1.453   .     S
C531   C547    1.411   .     A
C532   C549    1.449   .     S
C532   O613    1.292   .     A
C532   O614    1.291   .     A
C533   C548    1.411   .     A
C533   C539    1.382   .     A
C533   C559    1.453   .     S
C534   C560    1.454   .     S
C534   C550    1.410   .     A
C534   C545    1.382   .     A
C535   C549    1.410   .     A
C535   C561    1.454   .     S
C535   C546    1.382   .     A
C536   C549    1.411   .     A
C536   C562    1.453   .     S
C536   C542    1.382   .     A
C537   C550    1.411   .     A
C537   C544    1.382   .     A
C537   C563    1.453   .     S
C538   C564    1.454   .     S
C538   C552    1.410   .     A
C539   C551    1.410   .     A
C539   C566    1.454   .     S
C540   C567    1.453   .     S
C540   C551    1.411   .     A
C541   C568    1.453   .     S
C541   C552    1.411   .     A
C542   C555    1.410   .     A
C542   C569    1.454   .     S
C543   O619    1.291   .     A
C543   O616    1.292   .     A
C543   C548    1.449   .     S
C544   C570    1.454   .     S
C544   C553    1.410   .     A
C545   C571    1.453   .     S
C545   C553    1.411   .     A
C546   C572    1.453   .     S
C546   C555    1.411   .     A
C547   C554    1.449   .     S
C551   C575    1.449   .     S
C552   C574    1.449   .     S
C553   C573    1.449   .     S
C554   O617    1.292   .     A
C554   O618    1.291   .     A
C555   C565    1.449   .     S
C556   N600    1.157   .     T
C557   N601    1.157   .     T
C558   N602    1.157   .     T
C559   N603    1.157   .     T
C560   N604    1.157   .     T
C561   N586    1.157   .     T
C562   N587    1.157   .     T
C563   N588    1.157   .     T
C564   N589    1.157   .     T
C565   O608    1.291   .     A
C565   O620    1.292   .     A
C566   N590    1.157   .     T
C567   N591    1.157   .     T
C568   N592    1.157   .     T
C569   N593    1.157   .     T
C570   N594    1.157   .     T
C571   N595    1.157   .     T
C572   N597    1.157   .     T
C573   O606    1.292   .     A
C573   O607    1.291   .     A
C574   O609    1.292   .     A
C574   O612    1.291   .     A
C575   O610    1.292   .     A
C575   O611    1.291   .     A
C576   Cl577   1.760   .     S
C576   C4      1.419   1_655 S
C576   N492    1.370   1_655 S
N585   Zn621   2.015   .     S
N596   Zn622   2.015   .     S
N598   Zn623   2.015   .     S
N598   C734    1.370   1_545 S
N599   C735    1.370   1_545 S
N599   Zn624   2.015   .     S
O605   Zn621   2.012   .     S
O606   Zn624   2.012   .     S
O607   Zn623   2.017   .     S
O608   Zn832   2.017   .     S
O609   Zn832   2.012   .     S
O610   Zn623   2.012   .     S
O611   Zn624   2.017   .     S
O612   Zn831   2.017   .     S
O613   Zn518   2.012   1_655 S
O614   Zn517   2.017   1_655 S
O615   Zn622   2.017   .     S
O616   Zn518   2.012   1_655 S
O617   Zn621   2.012   .     S
O618   Zn622   2.017   .     S
O619   Zn517   2.017   1_655 S
O620   Zn831   2.012   .     S
Zn623  O820    2.017   1_545 S
Zn623  O828    2.012   1_545 S
Zn624  O816    2.017   1_545 S
Zn624  O817    2.012   1_545 S
C625   O719    1.291   .     A
C625   O709    1.292   .     A
C625   C654    1.449   .     S
C626   N689    1.370   .     A
C626   Cl682   1.760   .     S
C626   C1147   1.419   1_455 S
C627   Cl683   1.760   .     S
C627   N804    1.370   .     S
C628   N689    1.370   .     A
C628   Cl684   1.760   .     S
C628   C1200   1.419   1_455 S
C629   N703    1.370   .     A
C629   Cl685   1.760   .     S
C630   Cl686   1.760   .     S
C630   C1047   1.419   .     S
C630   N494    1.370   1_565 S
C631   Cl687   1.760   .     S
C631   N495    1.370   1_565 S
C632   N702    1.370   .     A
C632   Cl688   1.760   .     S
C632   C1045   1.419   .     S
C633   C660    1.454   .     S
C633   C644    1.382   .     A
C633   C652    1.410   .     A
C634   C651    1.410   .     A
C634   C661    1.454   .     S
C634   C645    1.382   .     A
C635   C642    1.382   .     A
C635   C662    1.453   .     S
C635   C651    1.411   .     A
C636   C653    1.449   .     S
C636   O717    1.292   .     A
C636   O718    1.291   .     A
C637   C652    1.411   .     A
C637   C643    1.382   .     A
C637   C663    1.453   .     S
C638   C664    1.454   .     S
C638   C654    1.410   .     A
C638   C649    1.382   .     A
C639   C653    1.410   .     A
C639   C665    1.454   .     S
C639   C650    1.382   .     A
C640   C653    1.411   .     A
C640   C666    1.453   .     S
C640   C646    1.382   .     A
C641   C654    1.411   .     A
C641   C648    1.382   .     A
C641   C667    1.453   .     S
C642   C668    1.454   .     S
C642   C656    1.410   .     A
C643   C655    1.410   .     A
C643   C670    1.454   .     S
C644   C671    1.453   .     S
C644   C655    1.411   .     A
C645   C672    1.453   .     S
C645   C656    1.411   .     A
C646   C659    1.410   .     A
C646   C673    1.454   .     S
C647   O723    1.291   .     A
C647   O720    1.292   .     A
C647   C652    1.449   .     S
C648   C674    1.454   .     S
C648   C657    1.410   .     A
C649   C675    1.453   .     S
C649   C657    1.411   .     A
C650   C676    1.453   .     S
C650   C659    1.411   .     A
C651   C658    1.449   .     S
C655   C679    1.449   .     S
C656   C678    1.449   .     S
C657   C677    1.449   .     S
C658   O721    1.292   .     A
C658   O722    1.291   .     A
C659   C669    1.449   .     S
C660   N704    1.157   .     T
C661   N705    1.157   .     T
C662   N706    1.157   .     T
C663   N707    1.157   .     T
C664   N708    1.157   .     T
C665   N690    1.157   .     T
C666   N691    1.157   .     T
C667   N692    1.157   .     T
C668   N693    1.157   .     T
C669   O712    1.291   .     A
C669   O724    1.292   .     A
C670   N694    1.157   .     T
C671   N695    1.157   .     T
C672   N696    1.157   .     T
C673   N697    1.157   .     T
C674   N698    1.157   .     T
C675   N699    1.157   .     T
C676   N701    1.157   .     T
C677   O710    1.292   .     A
C677   O711    1.291   .     A
C678   O713    1.292   .     A
C678   O716    1.291   .     A
C679   O714    1.292   .     A
C679   O715    1.291   .     A
C680   Cl681   1.760   .     S
C680   N804    1.370   .     S
N689   Zn725   2.015   .     S
N700   Zn726   2.015   .     S
N700   C731    1.370   1_455 S
N700   C784    1.370   1_455 S
N702   Zn727   2.015   .     S
N703   Zn728   2.015   .     S
O709   Zn725   2.012   .     S
O710   Zn728   2.012   .     S
O711   Zn727   2.017   .     S
O712   Zn520   2.017   1_565 S
O713   Zn520   2.012   1_565 S
O714   Zn727   2.012   .     S
O715   Zn728   2.017   .     S
O716   Zn519   2.017   1_565 S
O717   Zn830   2.012   .     S
O718   Zn829   2.017   .     S
O719   Zn726   2.017   .     S
O720   Zn830   2.012   .     S
O721   Zn725   2.012   .     S
O722   Zn726   2.017   .     S
O723   Zn829   2.017   .     S
O724   Zn519   2.012   1_565 S
Zn725  O827    2.017   1_455 S
Zn725  O822    2.017   1_455 S
Zn726  O824    2.012   1_455 S
Zn726  O821    2.012   1_455 S
C729   O823    1.291   .     A
C729   O813    1.292   .     A
C729   C758    1.449   .     S
C730   N793    1.370   .     A
C730   Cl786   1.760   .     S
C730   C1043   1.419   .     S
C731   Cl787   1.760   .     S
C731   C210    1.419   1_655 S
C731   N700    1.370   1_655 S
C732   N793    1.370   .     A
C732   Cl788   1.760   .     S
C732   C1096   1.419   .     S
C733   N807    1.370   .     A
C733   Cl789   1.760   .     S
C734   Cl790   1.760   .     S
C734   C1151   1.419   .     S
C734   N598    1.370   1_565 S
C735   Cl791   1.760   .     S
C735   N599    1.370   1_565 S
C736   N806    1.370   .     A
C736   Cl792   1.760   .     S
C736   C1149   1.419   .     S
C737   C764    1.454   .     S
C737   C748    1.382   .     A
C737   C756    1.410   .     A
C738   C755    1.410   .     A
C738   C765    1.454   .     S
C738   C749    1.382   .     A
C739   C746    1.382   .     A
C739   C766    1.453   .     S
C739   C755    1.411   .     A
C740   C757    1.449   .     S
C740   O821    1.292   .     A
C740   O822    1.291   .     A
C741   C756    1.411   .     A
C741   C747    1.382   .     A
C741   C767    1.453   .     S
C742   C768    1.454   .     S
C742   C758    1.410   .     A
C742   C753    1.382   .     A
C743   C757    1.410   .     A
C743   C769    1.454   .     S
C743   C754    1.382   .     A
C744   C757    1.411   .     A
C744   C770    1.453   .     S
C744   C750    1.382   .     A
C745   C758    1.411   .     A
C745   C752    1.382   .     A
C745   C771    1.453   .     S
C746   C772    1.454   .     S
C746   C760    1.410   .     A
C747   C759    1.410   .     A
C747   C774    1.454   .     S
C748   C775    1.453   .     S
C748   C759    1.411   .     A
C749   C776    1.453   .     S
C749   C760    1.411   .     A
C750   C763    1.410   .     A
C750   C777    1.454   .     S
C751   O827    1.291   .     A
C751   O824    1.292   .     A
C751   C756    1.449   .     S
C752   C778    1.454   .     S
C752   C761    1.410   .     A
C753   C779    1.453   .     S
C753   C761    1.411   .     A
C754   C780    1.453   .     S
C754   C763    1.411   .     A
C755   C762    1.449   .     S
C759   C783    1.449   .     S
C760   C782    1.449   .     S
C761   C781    1.449   .     S
C762   O825    1.292   .     A
C762   O826    1.291   .     A
C763   C773    1.449   .     S
C764   N808    1.157   .     T
C765   N809    1.157   .     T
C766   N810    1.157   .     T
C767   N811    1.157   .     T
C768   N812    1.157   .     T
C769   N794    1.157   .     T
C770   N795    1.157   .     T
C771   N796    1.157   .     T
C772   N797    1.157   .     T
C773   O816    1.291   .     A
C773   O828    1.292   .     A
C774   N798    1.157   .     T
C775   N799    1.157   .     T
C776   N800    1.157   .     T
C777   N801    1.157   .     T
C778   N802    1.157   .     T
C779   N803    1.157   .     T
C780   N805    1.157   .     T
C781   O814    1.292   .     A
C781   O815    1.291   .     A
C782   O817    1.292   .     A
C782   O820    1.291   .     A
C783   O818    1.292   .     A
C783   O819    1.291   .     A
C784   Cl785   1.760   .     S
C784   C212    1.419   1_655 S
C784   N700    1.370   1_655 S
N793   Zn829   2.015   .     S
N804   Zn830   2.015   .     S
N806   Zn831   2.015   .     S
N807   Zn832   2.015   .     S
O813   Zn829   2.012   .     S
O814   Zn832   2.012   .     S
O815   Zn831   2.017   .     S
O816   Zn624   2.017   1_565 S
O817   Zn624   2.012   1_565 S
O818   Zn831   2.012   .     S
O819   Zn832   2.017   .     S
O820   Zn623   2.017   1_565 S
O821   Zn726   2.012   1_655 S
O822   Zn725   2.017   1_655 S
O823   Zn830   2.017   .     S
O824   Zn726   2.012   1_655 S
O825   Zn829   2.012   .     S
O826   Zn830   2.017   .     S
O827   Zn725   2.017   1_655 S
O828   Zn623   2.012   1_565 S
C833   O927    1.291   .     A
C833   O917    1.292   .     A
C833   C862    1.449   .     S
C834   N897    1.370   .     A
C834   Cl890   1.760   .     S
C834   C107    1.419   1_456 S
C835   Cl891   1.760   .     S
C835   N1012   1.370   .     S
C836   N897    1.370   .     A
C836   Cl892   1.760   .     S
C836   C160    1.419   1_456 S
C837   N911    1.370   .     A
C837   Cl893   1.760   .     S
C838   Cl894   1.760   .     S
C838   C7      1.419   1_556 S
C838   N1118   1.370   .     S
C839   Cl895   1.760   .     S
C839   N1119   1.370   .     S
C840   N910    1.370   .     A
C840   Cl896   1.760   .     S
C840   C5      1.419   1_556 S
C841   C868    1.454   .     S
C841   C852    1.382   .     A
C841   C860    1.410   .     A
C842   C859    1.410   .     A
C842   C869    1.454   .     S
C842   C853    1.382   .     A
C843   C850    1.382   .     A
C843   C870    1.453   .     S
C843   C859    1.411   .     A
C844   C861    1.449   .     S
C844   O925    1.292   .     A
C844   O926    1.291   .     A
C845   C860    1.411   .     A
C845   C851    1.382   .     A
C845   C871    1.453   .     S
C846   C872    1.454   .     S
C846   C862    1.410   .     A
C846   C857    1.382   .     A
C847   C861    1.410   .     A
C847   C873    1.454   .     S
C847   C858    1.382   .     A
C848   C861    1.411   .     A
C848   C874    1.453   .     S
C848   C854    1.382   .     A
C849   C862    1.411   .     A
C849   C856    1.382   .     A
C849   C875    1.453   .     S
C850   C876    1.454   .     S
C850   C864    1.410   .     A
C851   C863    1.410   .     A
C851   C878    1.454   .     S
C852   C879    1.453   .     S
C852   C863    1.411   .     A
C853   C880    1.453   .     S
C853   C864    1.411   .     A
C854   C867    1.410   .     A
C854   C881    1.454   .     S
C855   O931    1.291   .     A
C855   O928    1.292   .     A
C855   C860    1.449   .     S
C856   C882    1.454   .     S
C856   C865    1.410   .     A
C857   C883    1.453   .     S
C857   C865    1.411   .     A
C858   C884    1.453   .     S
C858   C867    1.411   .     A
C859   C866    1.449   .     S
C863   C887    1.449   .     S
C864   C886    1.449   .     S
C865   C885    1.449   .     S
C866   O929    1.292   .     A
C866   O930    1.291   .     A
C867   C877    1.449   .     S
C868   N912    1.157   .     T
C869   N913    1.157   .     T
C870   N914    1.157   .     T
C871   N915    1.157   .     T
C872   N916    1.157   .     T
C873   N898    1.157   .     T
C874   N899    1.157   .     T
C875   N900    1.157   .     T
C876   N901    1.157   .     T
C877   O920    1.291   .     A
C877   O932    1.292   .     A
C878   N902    1.157   .     T
C879   N903    1.157   .     T
C880   N904    1.157   .     T
C881   N905    1.157   .     T
C882   N906    1.157   .     T
C883   N907    1.157   .     T
C884   N909    1.157   .     T
C885   O918    1.292   .     A
C885   O919    1.291   .     A
C886   O921    1.292   .     A
C886   O924    1.291   .     A
C887   O922    1.292   .     A
C887   O923    1.291   .     A
C888   Cl889   1.760   .     S
C888   N1012   1.370   .     S
N897   Zn933   2.015   .     S
N908   Zn934   2.015   .     S
N908   C939    1.370   1_455 S
N908   C992    1.370   1_455 S
N910   Zn935   2.015   .     S
N910   C1046   1.370   1_545 S
N911   C1047   1.370   1_545 S
N911   Zn936   2.015   .     S
O917   Zn933   2.012   .     S
O918   Zn936   2.012   .     S
O919   Zn935   2.017   .     S
O920   Zn1144  2.017   .     S
O921   Zn1144  2.012   .     S
O922   Zn935   2.012   .     S
O923   Zn936   2.017   .     S
O924   Zn1143  2.017   .     S
O925   Zn1038  2.012   .     S
O926   Zn1037  2.017   .     S
O927   Zn934   2.017   .     S
O928   Zn1038  2.012   .     S
O929   Zn933   2.012   .     S
O930   Zn934   2.017   .     S
O931   Zn1037  2.017   .     S
O932   Zn1143  2.012   .     S
Zn933  O1035   2.017   1_455 S
Zn933  O1030   2.017   1_455 S
Zn934  O1032   2.012   1_455 S
Zn934  O1029   2.012   1_455 S
Zn935  O1132   2.017   1_545 S
Zn935  O1140   2.012   1_545 S
Zn936  O1128   2.017   1_545 S
Zn936  O1129   2.012   1_545 S
C937   O1031   1.291   .     A
C937   O1021   1.292   .     A
C937   C966    1.449   .     S
C938   N1001   1.370   .     A
C938   Cl994   1.760   .     S
C938   C3      1.419   1_556 S
C939   Cl995   1.760   .     S
C939   C418    1.419   1_655 S
C939   N908    1.370   1_655 S
C940   N1001   1.370   .     A
C940   Cl996   1.760   .     S
C940   C56     1.419   1_556 S
C941   N1015   1.370   .     A
C941   Cl997   1.760   .     S
C942   Cl998   1.760   .     S
C942   C111    1.419   1_556 S
C942   N1222   1.370   .     S
C943   Cl999   1.760   .     S
C943   N1223   1.370   .     S
C944   N1014   1.370   .     A
C944   Cl1000  1.760   .     S
C944   C109    1.419   1_556 S
C945   C972    1.454   .     S
C945   C956    1.382   .     A
C945   C964    1.410   .     A
C946   C963    1.410   .     A
C946   C973    1.454   .     S
C946   C957    1.382   .     A
C947   C954    1.382   .     A
C947   C974    1.453   .     S
C947   C963    1.411   .     A
C948   C965    1.449   .     S
C948   O1029   1.292   .     A
C948   O1030   1.291   .     A
C949   C964    1.411   .     A
C949   C955    1.382   .     A
C949   C975    1.453   .     S
C950   C976    1.454   .     S
C950   C966    1.410   .     A
C950   C961    1.382   .     A
C951   C965    1.410   .     A
C951   C977    1.454   .     S
C951   C962    1.382   .     A
C952   C965    1.411   .     A
C952   C978    1.453   .     S
C952   C958    1.382   .     A
C953   C966    1.411   .     A
C953   C960    1.382   .     A
C953   C979    1.453   .     S
C954   C980    1.454   .     S
C954   C968    1.410   .     A
C955   C967    1.410   .     A
C955   C982    1.454   .     S
C956   C983    1.453   .     S
C956   C967    1.411   .     A
C957   C984    1.453   .     S
C957   C968    1.411   .     A
C958   C971    1.410   .     A
C958   C985    1.454   .     S
C959   O1035   1.291   .     A
C959   O1032   1.292   .     A
C959   C964    1.449   .     S
C960   C986    1.454   .     S
C960   C969    1.410   .     A
C961   C987    1.453   .     S
C961   C969    1.411   .     A
C962   C988    1.453   .     S
C962   C971    1.411   .     A
C963   C970    1.449   .     S
C967   C991    1.449   .     S
C968   C990    1.449   .     S
C969   C989    1.449   .     S
C970   O1033   1.292   .     A
C970   O1034   1.291   .     A
C971   C981    1.449   .     S
C972   N1016   1.157   .     T
C973   N1017   1.157   .     T
C974   N1018   1.157   .     T
C975   N1019   1.157   .     T
C976   N1020   1.157   .     T
C977   N1002   1.157   .     T
C978   N1003   1.157   .     T
C979   N1004   1.157   .     T
C980   N1005   1.157   .     T
C981   O1024   1.291   .     A
C981   O1036   1.292   .     A
C982   N1006   1.157   .     T
C983   N1007   1.157   .     T
C984   N1008   1.157   .     T
C985   N1009   1.157   .     T
C986   N1010   1.157   .     T
C987   N1011   1.157   .     T
C988   N1013   1.157   .     T
C989   O1022   1.292   .     A
C989   O1023   1.291   .     A
C990   O1025   1.292   .     A
C990   O1028   1.291   .     A
C991   O1026   1.292   .     A
C991   O1027   1.291   .     A
C992   Cl993   1.760   .     S
C992   C420    1.419   1_655 S
C992   N908    1.370   1_655 S
N1001  Zn1037  2.015   .     S
N1012  Zn1038  2.015   .     S
N1014  Zn1039  2.015   .     S
N1014  C1150   1.370   1_545 S
N1015  C1151   1.370   1_545 S
N1015  Zn1040  2.015   .     S
O1021  Zn1037  2.012   .     S
O1022  Zn1040  2.012   .     S
O1023  Zn1039  2.017   .     S
O1024  Zn1248  2.017   .     S
O1025  Zn1248  2.012   .     S
O1026  Zn1039  2.012   .     S
O1027  Zn1040  2.017   .     S
O1028  Zn1247  2.017   .     S
O1029  Zn934   2.012   1_655 S
O1030  Zn933   2.017   1_655 S
O1031  Zn1038  2.017   .     S
O1032  Zn934   2.012   1_655 S
O1033  Zn1037  2.012   .     S
O1034  Zn1038  2.017   .     S
O1035  Zn933   2.017   1_655 S
O1036  Zn1247  2.012   .     S
Zn1039 O1236   2.017   1_545 S
Zn1039 O1244   2.012   1_545 S
Zn1040 O1232   2.017   1_545 S
Zn1040 O1233   2.012   1_545 S
C1041  O1135   1.291   .     A
C1041  O1125   1.292   .     A
C1041  C1070   1.449   .     S
C1042  N1105   1.370   .     A
C1042  Cl1098  1.760   .     S
C1042  C315    1.419   1_456 S
C1043  Cl1099  1.760   .     S
C1043  N1220   1.370   .     S
C1044  N1105   1.370   .     A
C1044  Cl1100  1.760   .     S
C1044  C368    1.419   1_456 S
C1045  N1119   1.370   .     A
C1045  Cl1101  1.760   .     S
C1046  Cl1102  1.760   .     S
C1046  C215    1.419   1_556 S
C1046  N910    1.370   1_565 S
C1047  Cl1103  1.760   .     S
C1047  N911    1.370   1_565 S
C1048  N1118   1.370   .     A
C1048  Cl1104  1.760   .     S
C1048  C213    1.419   1_556 S
C1049  C1076   1.454   .     S
C1049  C1060   1.382   .     A
C1049  C1068   1.410   .     A
C1050  C1067   1.410   .     A
C1050  C1077   1.454   .     S
C1050  C1061   1.382   .     A
C1051  C1058   1.382   .     A
C1051  C1078   1.453   .     S
C1051  C1067   1.411   .     A
C1052  C1069   1.449   .     S
C1052  O1133   1.292   .     A
C1052  O1134   1.291   .     A
C1053  C1068   1.411   .     A
C1053  C1059   1.382   .     A
C1053  C1079   1.453   .     S
C1054  C1080   1.454   .     S
C1054  C1070   1.410   .     A
C1054  C1065   1.382   .     A
C1055  C1069   1.410   .     A
C1055  C1081   1.454   .     S
C1055  C1066   1.382   .     A
C1056  C1069   1.411   .     A
C1056  C1082   1.453   .     S
C1056  C1062   1.382   .     A
C1057  C1070   1.411   .     A
C1057  C1064   1.382   .     A
C1057  C1083   1.453   .     S
C1058  C1084   1.454   .     S
C1058  C1072   1.410   .     A
C1059  C1071   1.410   .     A
C1059  C1086   1.454   .     S
C1060  C1087   1.453   .     S
C1060  C1071   1.411   .     A
C1061  C1088   1.453   .     S
C1061  C1072   1.411   .     A
C1062  C1075   1.410   .     A
C1062  C1089   1.454   .     S
C1063  O1139   1.291   .     A
C1063  O1136   1.292   .     A
C1063  C1068   1.449   .     S
C1064  C1090   1.454   .     S
C1064  C1073   1.410   .     A
C1065  C1091   1.453   .     S
C1065  C1073   1.411   .     A
C1066  C1092   1.453   .     S
C1066  C1075   1.411   .     A
C1067  C1074   1.449   .     S
C1071  C1095   1.449   .     S
C1072  C1094   1.449   .     S
C1073  C1093   1.449   .     S
C1074  O1137   1.292   .     A
C1074  O1138   1.291   .     A
C1075  C1085   1.449   .     S
C1076  N1120   1.157   .     T
C1077  N1121   1.157   .     T
C1078  N1122   1.157   .     T
C1079  N1123   1.157   .     T
C1080  N1124   1.157   .     T
C1081  N1106   1.157   .     T
C1082  N1107   1.157   .     T
C1083  N1108   1.157   .     T
C1084  N1109   1.157   .     T
C1085  O1128   1.291   .     A
C1085  O1140   1.292   .     A
C1086  N1110   1.157   .     T
C1087  N1111   1.157   .     T
C1088  N1112   1.157   .     T
C1089  N1113   1.157   .     T
C1090  N1114   1.157   .     T
C1091  N1115   1.157   .     T
C1092  N1117   1.157   .     T
C1093  O1126   1.292   .     A
C1093  O1127   1.291   .     A
C1094  O1129   1.292   .     A
C1094  O1132   1.291   .     A
C1095  O1130   1.292   .     A
C1095  O1131   1.291   .     A
C1096  Cl1097  1.760   .     S
C1096  N1220   1.370   .     S
N1105  Zn1141  2.015   .     S
N1116  Zn1142  2.015   .     S
N1116  C1147   1.370   1_455 S
N1116  C1200   1.370   1_455 S
N1118  Zn1143  2.015   .     S
N1119  Zn1144  2.015   .     S
O1125  Zn1141  2.012   .     S
O1126  Zn1144  2.012   .     S
O1127  Zn1143  2.017   .     S
O1128  Zn936   2.017   1_565 S
O1129  Zn936   2.012   1_565 S
O1130  Zn1143  2.012   .     S
O1131  Zn1144  2.017   .     S
O1132  Zn935   2.017   1_565 S
O1133  Zn1246  2.012   .     S
O1134  Zn1245  2.017   .     S
O1135  Zn1142  2.017   .     S
O1136  Zn1246  2.012   .     S
O1137  Zn1141  2.012   .     S
O1138  Zn1142  2.017   .     S
O1139  Zn1245  2.017   .     S
O1140  Zn935   2.012   1_565 S
Zn1141 O1243   2.017   1_455 S
Zn1141 O1238   2.017   1_455 S
Zn1142 O1240   2.012   1_455 S
Zn1142 O1237   2.012   1_455 S
C1145  O1239   1.291   .     A
C1145  O1229   1.292   .     A
C1145  C1174   1.449   .     S
C1146  N1209   1.370   .     A
C1146  Cl1202  1.760   .     S
C1146  C211    1.419   1_556 S
C1147  Cl1203  1.760   .     S
C1147  C626    1.419   1_655 S
C1147  N1116   1.370   1_655 S
C1148  N1209   1.370   .     A
C1148  Cl1204  1.760   .     S
C1148  C264    1.419   1_556 S
C1149  N1223   1.370   .     A
C1149  Cl1205  1.760   .     S
C1150  Cl1206  1.760   .     S
C1150  C319    1.419   1_556 S
C1150  N1014   1.370   1_565 S
C1151  Cl1207  1.760   .     S
C1151  N1015   1.370   1_565 S
C1152  N1222   1.370   .     A
C1152  Cl1208  1.760   .     S
C1152  C317    1.419   1_556 S
C1153  C1180   1.454   .     S
C1153  C1164   1.382   .     A
C1153  C1172   1.410   .     A
C1154  C1171   1.410   .     A
C1154  C1181   1.454   .     S
C1154  C1165   1.382   .     A
C1155  C1162   1.382   .     A
C1155  C1182   1.453   .     S
C1155  C1171   1.411   .     A
C1156  C1173   1.449   .     S
C1156  O1237   1.292   .     A
C1156  O1238   1.291   .     A
C1157  C1172   1.411   .     A
C1157  C1163   1.382   .     A
C1157  C1183   1.453   .     S
C1158  C1184   1.454   .     S
C1158  C1174   1.410   .     A
C1158  C1169   1.382   .     A
C1159  C1173   1.410   .     A
C1159  C1185   1.454   .     S
C1159  C1170   1.382   .     A
C1160  C1173   1.411   .     A
C1160  C1186   1.453   .     S
C1160  C1166   1.382   .     A
C1161  C1174   1.411   .     A
C1161  C1168   1.382   .     A
C1161  C1187   1.453   .     S
C1162  C1188   1.454   .     S
C1162  C1176   1.410   .     A
C1163  C1175   1.410   .     A
C1163  C1190   1.454   .     S
C1164  C1191   1.453   .     S
C1164  C1175   1.411   .     A
C1165  C1192   1.453   .     S
C1165  C1176   1.411   .     A
C1166  C1179   1.410   .     A
C1166  C1193   1.454   .     S
C1167  O1243   1.291   .     A
C1167  O1240   1.292   .     A
C1167  C1172   1.449   .     S
C1168  C1194   1.454   .     S
C1168  C1177   1.410   .     A
C1169  C1195   1.453   .     S
C1169  C1177   1.411   .     A
C1170  C1196   1.453   .     S
C1170  C1179   1.411   .     A
C1171  C1178   1.449   .     S
C1175  C1199   1.449   .     S
C1176  C1198   1.449   .     S
C1177  C1197   1.449   .     S
C1178  O1241   1.292   .     A
C1178  O1242   1.291   .     A
C1179  C1189   1.449   .     S
C1180  N1224   1.157   .     T
C1181  N1225   1.157   .     T
C1182  N1226   1.157   .     T
C1183  N1227   1.157   .     T
C1184  N1228   1.157   .     T
C1185  N1210   1.157   .     T
C1186  N1211   1.157   .     T
C1187  N1212   1.157   .     T
C1188  N1213   1.157   .     T
C1189  O1232   1.291   .     A
C1189  O1244   1.292   .     A
C1190  N1214   1.157   .     T
C1191  N1215   1.157   .     T
C1192  N1216   1.157   .     T
C1193  N1217   1.157   .     T
C1194  N1218   1.157   .     T
C1195  N1219   1.157   .     T
C1196  N1221   1.157   .     T
C1197  O1230   1.292   .     A
C1197  O1231   1.291   .     A
C1198  O1233   1.292   .     A
C1198  O1236   1.291   .     A
C1199  O1234   1.292   .     A
C1199  O1235   1.291   .     A
C1200  Cl1201  1.760   .     S
C1200  C628    1.419   1_655 S
C1200  N1116   1.370   1_655 S
N1209  Zn1245  2.015   .     S
N1220  Zn1246  2.015   .     S
N1222  Zn1247  2.015   .     S
N1223  Zn1248  2.015   .     S
O1229  Zn1245  2.012   .     S
O1230  Zn1248  2.012   .     S
O1231  Zn1247  2.017   .     S
O1232  Zn1040  2.017   1_565 S
O1233  Zn1040  2.012   1_565 S
O1234  Zn1247  2.012   .     S
O1235  Zn1248  2.017   .     S
O1236  Zn1039  2.017   1_565 S
O1237  Zn1142  2.012   1_655 S
O1238  Zn1141  2.017   1_655 S
O1239  Zn1246  2.017   .     S
O1240  Zn1142  2.012   1_655 S
O1241  Zn1245  2.012   .     S
O1242  Zn1246  2.017   .     S
O1243  Zn1141  2.017   1_655 S
O1244  Zn1039  2.012   1_565 S
