data_str_m2_o1_o17_pcu_sym.177
_audit_creation_date              2020-01-03
_audit_creation_method            'Materials Studio'
_symmetry_space_group_name_H-M    'P1'
_symmetry_Int_Tables_number       1
_symmetry_cell_setting            triclinic
loop_
_symmetry_equiv_pos_as_xyz
  x,y,z
_cell_length_a                    32.6439
_cell_length_b                    28.8399
_cell_length_c                    30.0513
_cell_angle_alpha                 90.0710
_cell_angle_beta                  92.3616
_cell_angle_gamma                 89.9562
loop_
_atom_site_label
_atom_site_type_symbol
_atom_site_fract_x
_atom_site_fract_y
_atom_site_fract_z
_atom_site_U_iso_or_equiv
_atom_site_adp_type
_atom_site_occupancy
C1     C     0.08759   0.16667   0.25336   0.00000  Uiso   1.00
C2     C     0.24574   0.16666   0.24664   0.00000  Uiso   1.00
C3     C     0.10029   0.12726   0.02065   0.00000  Uiso   1.00
C4     C     0.23307   0.20594   0.47936   0.00000  Uiso   1.00
C5     C     0.02095   0.12432   0.25508   0.00000  Uiso   1.00
C6     C     0.31238   0.20901   0.24492   0.00000  Uiso   1.00
C7     C     0.31240   0.12436   0.24453   0.00000  Uiso   1.00
C8     C     0.02093   0.20897   0.25548   0.00000  Uiso   1.00
C9     C     0.29057   0.16668   0.24359   0.00000  Uiso   1.00
C10    C     0.04276   0.16665   0.25642   0.00000  Uiso   1.00
C11    C     0.14157   0.02463   0.22070   0.00000  Uiso   1.00
C12    C     0.19176   0.30870   0.27930   0.00000  Uiso   1.00
C13    C     0.19178   0.02469   0.27929   0.00000  Uiso   1.00
C14    C     0.14155   0.30864   0.22071   0.00000  Uiso   1.00
C15    C     0.16658   0.16665   0.16461   0.00000  Uiso   1.00
C16    C     0.16676   0.16668   0.33539   0.00000  Uiso   1.00
C17    C     0.20305   0.17586   0.40821   0.00000  Uiso   1.00
C18    C     0.13030   0.15746   0.09178   0.00000  Uiso   1.00
C19    C     0.16663   0.16671   0.38367   0.00000  Uiso   1.00
C20    C     0.16671   0.16661   0.11633   0.00000  Uiso   1.00
C21    C     0.13019   0.15722   0.40487   0.00000  Uiso   1.00
C22    C     0.20318   0.17600   0.09514   0.00000  Uiso   1.00
C23    C     0.13144   0.15082   0.45153   0.00000  Uiso   1.00
C24    C     0.20194   0.18235   0.04848   0.00000  Uiso   1.00
C25    C     0.16662   0.16662   0.47654   0.00000  Uiso   1.00
C26    C     0.16677   0.16654   0.02346   0.00000  Uiso   1.00
C27    C     0.20160   0.18265   0.45454   0.00000  Uiso   1.00
C28    C     0.13176   0.15057   0.04546   0.00000  Uiso   1.00
C29    C     0.09981   0.12797   0.47389   0.00000  Uiso   1.00
C30    C     0.23358   0.20519   0.02611   0.00000  Uiso   1.00
Cu31   Cu    0.16667   0.21355   0.25000   0.00000  Uiso   1.00
Cu32   Cu    0.16667   0.11978   0.25000   0.00000  Uiso   1.00
N33    N     0.16667   0.28402   0.25000   0.00000  Uiso   1.00
N34    N     0.16667   0.04931   0.25000   0.00000  Uiso   1.00
O35    O     0.10655   0.20625   0.25000   0.00000  Uiso   1.00
O36    O     0.22679   0.12709   0.25001   0.00000  Uiso   1.00
O37    O     0.22679   0.20625   0.25001   0.00000  Uiso   1.00
O38    O     0.10655   0.12709   0.25000   0.00000  Uiso   1.00
O39    O     0.16666   0.20627   0.18513   0.00000  Uiso   1.00
O40    O     0.16668   0.12707   0.31487   0.00000  Uiso   1.00
O41    O     0.16668   0.20627   0.31487   0.00000  Uiso   1.00
O42    O     0.16666   0.12707   0.18513   0.00000  Uiso   1.00
Br43   Br    0.25433   0.16826   0.37870   0.00000  Uiso   1.00
Br44   Br    0.07901   0.16519   0.12126   0.00000  Uiso   1.00
Br45   Br    0.07922   0.16023   0.36961   0.00000  Uiso   1.00
Br46   Br    0.25415   0.17298   0.13043   0.00000  Uiso   1.00
C47    C     0.06976   0.09935   0.44998   0.00000  Uiso   1.00
N48    N     0.04574   0.07620   0.43124   0.00000  Uiso   1.00
C49    C     0.26360   0.23383   0.05003   0.00000  Uiso   1.00
N50    N     0.28759   0.25701   0.06876   0.00000  Uiso   1.00
Br51   Br    0.06332   0.08470   0.04896   0.00000  Uiso   1.00
Br52   Br    0.26992   0.24864   0.45107   0.00000  Uiso   1.00
Br53   Br    0.04496   0.06626   0.27560   0.00000  Uiso   1.00
Br54   Br    0.28838   0.26707   0.22439   0.00000  Uiso   1.00
Br55   Br    0.28836   0.06650   0.22350   0.00000  Uiso   1.00
Br56   Br    0.04497   0.26683   0.27651   0.00000  Uiso   1.00
Br57   Br    0.10530   0.05585   0.17836   0.00000  Uiso   1.00
Br58   Br    0.22804   0.27749   0.32164   0.00000  Uiso   1.00
Br59   Br    0.22820   0.05603   0.32151   0.00000  Uiso   1.00
Br60   Br    0.10513   0.27731   0.17850   0.00000  Uiso   1.00
C61    C     0.42092   0.16667   0.25336   0.00000  Uiso   1.00
C62    C     0.57908   0.16666   0.24664   0.00000  Uiso   1.00
C63    C     0.43363   0.12726   0.02065   0.00000  Uiso   1.00
C64    C     0.56640   0.20594   0.47936   0.00000  Uiso   1.00
C65    C     0.35429   0.12432   0.25508   0.00000  Uiso   1.00
C66    C     0.64572   0.20901   0.24492   0.00000  Uiso   1.00
C67    C     0.64574   0.12436   0.24453   0.00000  Uiso   1.00
C68    C     0.35426   0.20897   0.25548   0.00000  Uiso   1.00
C69    C     0.62391   0.16668   0.24359   0.00000  Uiso   1.00
C70    C     0.37609   0.16665   0.25642   0.00000  Uiso   1.00
C71    C     0.47491   0.02463   0.22070   0.00000  Uiso   1.00
C72    C     0.52509   0.30870   0.27930   0.00000  Uiso   1.00
C73    C     0.52511   0.02469   0.27929   0.00000  Uiso   1.00
C74    C     0.47489   0.30864   0.22071   0.00000  Uiso   1.00
C75    C     0.49991   0.16665   0.16461   0.00000  Uiso   1.00
C76    C     0.50009   0.16668   0.33539   0.00000  Uiso   1.00
C77    C     0.53638   0.17586   0.40821   0.00000  Uiso   1.00
C78    C     0.46363   0.15746   0.09178   0.00000  Uiso   1.00
C79    C     0.49997   0.16671   0.38367   0.00000  Uiso   1.00
C80    C     0.50005   0.16661   0.11633   0.00000  Uiso   1.00
C81    C     0.46352   0.15722   0.40487   0.00000  Uiso   1.00
C82    C     0.53651   0.17600   0.09514   0.00000  Uiso   1.00
C83    C     0.46477   0.15082   0.45153   0.00000  Uiso   1.00
C84    C     0.53528   0.18235   0.04848   0.00000  Uiso   1.00
C85    C     0.49995   0.16662   0.47654   0.00000  Uiso   1.00
C86    C     0.50010   0.16654   0.02346   0.00000  Uiso   1.00
C87    C     0.53494   0.18265   0.45454   0.00000  Uiso   1.00
C88    C     0.46509   0.15057   0.04546   0.00000  Uiso   1.00
C89    C     0.43314   0.12797   0.47389   0.00000  Uiso   1.00
C90    C     0.56691   0.20519   0.02611   0.00000  Uiso   1.00
Cu91   Cu    0.50000   0.21355   0.25000   0.00000  Uiso   1.00
Cu92   Cu    0.50000   0.11978   0.25000   0.00000  Uiso   1.00
N93    N     0.50000   0.28402   0.25000   0.00000  Uiso   1.00
N94    N     0.50000   0.04931   0.25000   0.00000  Uiso   1.00
O95    O     0.43988   0.20625   0.25000   0.00000  Uiso   1.00
O96    O     0.56012   0.12709   0.25001   0.00000  Uiso   1.00
O97    O     0.56012   0.20625   0.25001   0.00000  Uiso   1.00
O98    O     0.43988   0.12709   0.25000   0.00000  Uiso   1.00
O99    O     0.49999   0.20627   0.18513   0.00000  Uiso   1.00
O100   O     0.50001   0.12707   0.31487   0.00000  Uiso   1.00
O101   O     0.50001   0.20627   0.31487   0.00000  Uiso   1.00
O102   O     0.49999   0.12707   0.18513   0.00000  Uiso   1.00
Br103  Br    0.58766   0.16826   0.37870   0.00000  Uiso   1.00
Br104  Br    0.41234   0.16519   0.12126   0.00000  Uiso   1.00
Br105  Br    0.41256   0.16023   0.36961   0.00000  Uiso   1.00
Br106  Br    0.58749   0.17298   0.13043   0.00000  Uiso   1.00
C107   C     0.40309   0.09935   0.44998   0.00000  Uiso   1.00
N108   N     0.37907   0.07620   0.43124   0.00000  Uiso   1.00
C109   C     0.59693   0.23383   0.05003   0.00000  Uiso   1.00
N110   N     0.62092   0.25701   0.06876   0.00000  Uiso   1.00
Br111  Br    0.39666   0.08470   0.04896   0.00000  Uiso   1.00
Br112  Br    0.60325   0.24864   0.45107   0.00000  Uiso   1.00
Br113  Br    0.37829   0.06626   0.27560   0.00000  Uiso   1.00
Br114  Br    0.62171   0.26707   0.22439   0.00000  Uiso   1.00
Br115  Br    0.62170   0.06650   0.22350   0.00000  Uiso   1.00
Br116  Br    0.37830   0.26683   0.27651   0.00000  Uiso   1.00
Br117  Br    0.43863   0.05585   0.17836   0.00000  Uiso   1.00
Br118  Br    0.56137   0.27749   0.32164   0.00000  Uiso   1.00
Br119  Br    0.56153   0.05603   0.32151   0.00000  Uiso   1.00
Br120  Br    0.43846   0.27731   0.17850   0.00000  Uiso   1.00
C121   C     0.75426   0.16667   0.25336   0.00000  Uiso   1.00
C122   C     0.91241   0.16666   0.24664   0.00000  Uiso   1.00
C123   C     0.76696   0.12726   0.02065   0.00000  Uiso   1.00
C124   C     0.89974   0.20594   0.47936   0.00000  Uiso   1.00
C125   C     0.68762   0.12432   0.25508   0.00000  Uiso   1.00
C126   C     0.97905   0.20901   0.24492   0.00000  Uiso   1.00
C127   C     0.97907   0.12436   0.24453   0.00000  Uiso   1.00
C128   C     0.68760   0.20897   0.25548   0.00000  Uiso   1.00
C129   C     0.95724   0.16668   0.24359   0.00000  Uiso   1.00
C130   C     0.70943   0.16665   0.25642   0.00000  Uiso   1.00
C131   C     0.80824   0.02463   0.22070   0.00000  Uiso   1.00
C132   C     0.85843   0.30870   0.27930   0.00000  Uiso   1.00
C133   C     0.85845   0.02469   0.27929   0.00000  Uiso   1.00
C134   C     0.80822   0.30864   0.22071   0.00000  Uiso   1.00
C135   C     0.83324   0.16665   0.16461   0.00000  Uiso   1.00
C136   C     0.83343   0.16668   0.33539   0.00000  Uiso   1.00
C137   C     0.86971   0.17586   0.40821   0.00000  Uiso   1.00
C138   C     0.79697   0.15746   0.09178   0.00000  Uiso   1.00
C139   C     0.83330   0.16671   0.38367   0.00000  Uiso   1.00
C140   C     0.83338   0.16661   0.11633   0.00000  Uiso   1.00
C141   C     0.79686   0.15722   0.40487   0.00000  Uiso   1.00
C142   C     0.86984   0.17600   0.09514   0.00000  Uiso   1.00
C143   C     0.79811   0.15082   0.45153   0.00000  Uiso   1.00
C144   C     0.86861   0.18235   0.04848   0.00000  Uiso   1.00
C145   C     0.83328   0.16662   0.47654   0.00000  Uiso   1.00
C146   C     0.83343   0.16654   0.02346   0.00000  Uiso   1.00
C147   C     0.86827   0.18265   0.45454   0.00000  Uiso   1.00
C148   C     0.79843   0.15057   0.04546   0.00000  Uiso   1.00
C149   C     0.76647   0.12797   0.47389   0.00000  Uiso   1.00
C150   C     0.90024   0.20519   0.02611   0.00000  Uiso   1.00
Cu151  Cu    0.83333   0.21355   0.25000   0.00000  Uiso   1.00
Cu152  Cu    0.83333   0.11978   0.25000   0.00000  Uiso   1.00
N153   N     0.83333   0.28402   0.25000   0.00000  Uiso   1.00
N154   N     0.83333   0.04931   0.25000   0.00000  Uiso   1.00
O155   O     0.77321   0.20625   0.25000   0.00000  Uiso   1.00
O156   O     0.89345   0.12709   0.25001   0.00000  Uiso   1.00
O157   O     0.89345   0.20625   0.25001   0.00000  Uiso   1.00
O158   O     0.77321   0.12709   0.25000   0.00000  Uiso   1.00
O159   O     0.83332   0.20627   0.18513   0.00000  Uiso   1.00
O160   O     0.83334   0.12707   0.31487   0.00000  Uiso   1.00
O161   O     0.83334   0.20627   0.31487   0.00000  Uiso   1.00
O162   O     0.83332   0.12707   0.18513   0.00000  Uiso   1.00
Br163  Br    0.92100   0.16826   0.37870   0.00000  Uiso   1.00
Br164  Br    0.74567   0.16519   0.12126   0.00000  Uiso   1.00
Br165  Br    0.74589   0.16023   0.36961   0.00000  Uiso   1.00
Br166  Br    0.92082   0.17298   0.13043   0.00000  Uiso   1.00
C167   C     0.73642   0.09935   0.44998   0.00000  Uiso   1.00
N168   N     0.71240   0.07620   0.43124   0.00000  Uiso   1.00
C169   C     0.93027   0.23383   0.05003   0.00000  Uiso   1.00
N170   N     0.95426   0.25701   0.06876   0.00000  Uiso   1.00
Br171  Br    0.72999   0.08470   0.04896   0.00000  Uiso   1.00
Br172  Br    0.93659   0.24864   0.45107   0.00000  Uiso   1.00
Br173  Br    0.71162   0.06626   0.27560   0.00000  Uiso   1.00
Br174  Br    0.95505   0.26707   0.22439   0.00000  Uiso   1.00
Br175  Br    0.95503   0.06650   0.22350   0.00000  Uiso   1.00
Br176  Br    0.71164   0.26683   0.27651   0.00000  Uiso   1.00
Br177  Br    0.77196   0.05585   0.17836   0.00000  Uiso   1.00
Br178  Br    0.89471   0.27749   0.32164   0.00000  Uiso   1.00
Br179  Br    0.89487   0.05603   0.32151   0.00000  Uiso   1.00
Br180  Br    0.77179   0.27731   0.17850   0.00000  Uiso   1.00
C181   C     0.08759   0.50001   0.25336   0.00000  Uiso   1.00
C182   C     0.24574   0.49999   0.24664   0.00000  Uiso   1.00
C183   C     0.10029   0.46059   0.02065   0.00000  Uiso   1.00
C184   C     0.23307   0.53927   0.47936   0.00000  Uiso   1.00
C185   C     0.02095   0.45765   0.25508   0.00000  Uiso   1.00
C186   C     0.31238   0.54234   0.24492   0.00000  Uiso   1.00
C187   C     0.31240   0.45770   0.24453   0.00000  Uiso   1.00
C188   C     0.02093   0.54230   0.25548   0.00000  Uiso   1.00
C189   C     0.29057   0.50002   0.24359   0.00000  Uiso   1.00
C190   C     0.04276   0.49998   0.25642   0.00000  Uiso   1.00
C191   C     0.14157   0.35797   0.22070   0.00000  Uiso   1.00
C192   C     0.19176   0.64204   0.27930   0.00000  Uiso   1.00
C193   C     0.19178   0.35803   0.27929   0.00000  Uiso   1.00
C194   C     0.14155   0.64198   0.22071   0.00000  Uiso   1.00
C195   C     0.16658   0.49998   0.16461   0.00000  Uiso   1.00
C196   C     0.16676   0.50002   0.33539   0.00000  Uiso   1.00
C197   C     0.20305   0.50920   0.40821   0.00000  Uiso   1.00
C198   C     0.13030   0.49079   0.09178   0.00000  Uiso   1.00
C199   C     0.16663   0.50004   0.38367   0.00000  Uiso   1.00
C200   C     0.16671   0.49994   0.11633   0.00000  Uiso   1.00
C201   C     0.13019   0.49055   0.40487   0.00000  Uiso   1.00
C202   C     0.20318   0.50933   0.09514   0.00000  Uiso   1.00
C203   C     0.13144   0.48415   0.45153   0.00000  Uiso   1.00
C204   C     0.20194   0.51568   0.04848   0.00000  Uiso   1.00
C205   C     0.16662   0.49995   0.47654   0.00000  Uiso   1.00
C206   C     0.16677   0.49987   0.02346   0.00000  Uiso   1.00
C207   C     0.20160   0.51598   0.45454   0.00000  Uiso   1.00
C208   C     0.13176   0.48390   0.04546   0.00000  Uiso   1.00
C209   C     0.09981   0.46130   0.47389   0.00000  Uiso   1.00
C210   C     0.23358   0.53852   0.02611   0.00000  Uiso   1.00
Cu211  Cu    0.16667   0.54689   0.25000   0.00000  Uiso   1.00
Cu212  Cu    0.16667   0.45311   0.25000   0.00000  Uiso   1.00
N213   N     0.16667   0.61736   0.25000   0.00000  Uiso   1.00
N214   N     0.16667   0.38264   0.25000   0.00000  Uiso   1.00
O215   O     0.10655   0.53958   0.25000   0.00000  Uiso   1.00
O216   O     0.22679   0.46042   0.25001   0.00000  Uiso   1.00
O217   O     0.22679   0.53958   0.25001   0.00000  Uiso   1.00
O218   O     0.10655   0.46042   0.25000   0.00000  Uiso   1.00
O219   O     0.16666   0.53960   0.18513   0.00000  Uiso   1.00
O220   O     0.16668   0.46040   0.31487   0.00000  Uiso   1.00
O221   O     0.16668   0.53960   0.31487   0.00000  Uiso   1.00
O222   O     0.16666   0.46040   0.18513   0.00000  Uiso   1.00
Br223  Br    0.25433   0.50159   0.37870   0.00000  Uiso   1.00
Br224  Br    0.07901   0.49853   0.12126   0.00000  Uiso   1.00
Br225  Br    0.07922   0.49356   0.36961   0.00000  Uiso   1.00
Br226  Br    0.25415   0.50632   0.13043   0.00000  Uiso   1.00
C227   C     0.06976   0.43268   0.44998   0.00000  Uiso   1.00
N228   N     0.04574   0.40953   0.43124   0.00000  Uiso   1.00
C229   C     0.26360   0.56716   0.05003   0.00000  Uiso   1.00
N230   N     0.28759   0.59034   0.06876   0.00000  Uiso   1.00
Br231  Br    0.06332   0.41804   0.04896   0.00000  Uiso   1.00
Br232  Br    0.26992   0.58197   0.45107   0.00000  Uiso   1.00
Br233  Br    0.04496   0.39959   0.27560   0.00000  Uiso   1.00
Br234  Br    0.28838   0.60040   0.22439   0.00000  Uiso   1.00
Br235  Br    0.28836   0.39983   0.22350   0.00000  Uiso   1.00
Br236  Br    0.04497   0.60016   0.27651   0.00000  Uiso   1.00
Br237  Br    0.10530   0.38918   0.17836   0.00000  Uiso   1.00
Br238  Br    0.22804   0.61082   0.32164   0.00000  Uiso   1.00
Br239  Br    0.22820   0.38936   0.32151   0.00000  Uiso   1.00
Br240  Br    0.10513   0.61064   0.17850   0.00000  Uiso   1.00
C241   C     0.42092   0.50001   0.25336   0.00000  Uiso   1.00
C242   C     0.57908   0.49999   0.24664   0.00000  Uiso   1.00
C243   C     0.43363   0.46059   0.02065   0.00000  Uiso   1.00
C244   C     0.56640   0.53927   0.47936   0.00000  Uiso   1.00
C245   C     0.35429   0.45765   0.25508   0.00000  Uiso   1.00
C246   C     0.64572   0.54234   0.24492   0.00000  Uiso   1.00
C247   C     0.64574   0.45770   0.24453   0.00000  Uiso   1.00
C248   C     0.35426   0.54230   0.25548   0.00000  Uiso   1.00
C249   C     0.62391   0.50002   0.24359   0.00000  Uiso   1.00
C250   C     0.37609   0.49998   0.25642   0.00000  Uiso   1.00
C251   C     0.47491   0.35797   0.22070   0.00000  Uiso   1.00
C252   C     0.52509   0.64204   0.27930   0.00000  Uiso   1.00
C253   C     0.52511   0.35803   0.27929   0.00000  Uiso   1.00
C254   C     0.47489   0.64198   0.22071   0.00000  Uiso   1.00
C255   C     0.49991   0.49998   0.16461   0.00000  Uiso   1.00
C256   C     0.50009   0.50002   0.33539   0.00000  Uiso   1.00
C257   C     0.53638   0.50920   0.40821   0.00000  Uiso   1.00
C258   C     0.46363   0.49079   0.09178   0.00000  Uiso   1.00
C259   C     0.49997   0.50004   0.38367   0.00000  Uiso   1.00
C260   C     0.50005   0.49994   0.11633   0.00000  Uiso   1.00
C261   C     0.46352   0.49055   0.40487   0.00000  Uiso   1.00
C262   C     0.53651   0.50933   0.09514   0.00000  Uiso   1.00
C263   C     0.46477   0.48415   0.45153   0.00000  Uiso   1.00
C264   C     0.53528   0.51568   0.04848   0.00000  Uiso   1.00
C265   C     0.49995   0.49995   0.47654   0.00000  Uiso   1.00
C266   C     0.50010   0.49987   0.02346   0.00000  Uiso   1.00
C267   C     0.53494   0.51598   0.45454   0.00000  Uiso   1.00
C268   C     0.46509   0.48390   0.04546   0.00000  Uiso   1.00
C269   C     0.43314   0.46130   0.47389   0.00000  Uiso   1.00
C270   C     0.56691   0.53852   0.02611   0.00000  Uiso   1.00
Cu271  Cu    0.50000   0.54689   0.25000   0.00000  Uiso   1.00
Cu272  Cu    0.50000   0.45311   0.25000   0.00000  Uiso   1.00
N273   N     0.50000   0.61736   0.25000   0.00000  Uiso   1.00
N274   N     0.50000   0.38264   0.25000   0.00000  Uiso   1.00
O275   O     0.43988   0.53958   0.25000   0.00000  Uiso   1.00
O276   O     0.56012   0.46042   0.25001   0.00000  Uiso   1.00
O277   O     0.56012   0.53958   0.25001   0.00000  Uiso   1.00
O278   O     0.43988   0.46042   0.25000   0.00000  Uiso   1.00
O279   O     0.49999   0.53960   0.18513   0.00000  Uiso   1.00
O280   O     0.50001   0.46040   0.31487   0.00000  Uiso   1.00
O281   O     0.50001   0.53960   0.31487   0.00000  Uiso   1.00
O282   O     0.49999   0.46040   0.18513   0.00000  Uiso   1.00
Br283  Br    0.58766   0.50159   0.37870   0.00000  Uiso   1.00
Br284  Br    0.41234   0.49853   0.12126   0.00000  Uiso   1.00
Br285  Br    0.41256   0.49356   0.36961   0.00000  Uiso   1.00
Br286  Br    0.58749   0.50632   0.13043   0.00000  Uiso   1.00
C287   C     0.40309   0.43268   0.44998   0.00000  Uiso   1.00
N288   N     0.37907   0.40953   0.43124   0.00000  Uiso   1.00
C289   C     0.59693   0.56716   0.05003   0.00000  Uiso   1.00
N290   N     0.62092   0.59034   0.06876   0.00000  Uiso   1.00
Br291  Br    0.39666   0.41804   0.04896   0.00000  Uiso   1.00
Br292  Br    0.60325   0.58197   0.45107   0.00000  Uiso   1.00
Br293  Br    0.37829   0.39959   0.27560   0.00000  Uiso   1.00
Br294  Br    0.62171   0.60040   0.22439   0.00000  Uiso   1.00
Br295  Br    0.62170   0.39983   0.22350   0.00000  Uiso   1.00
Br296  Br    0.37830   0.60016   0.27651   0.00000  Uiso   1.00
Br297  Br    0.43863   0.38918   0.17836   0.00000  Uiso   1.00
Br298  Br    0.56137   0.61082   0.32164   0.00000  Uiso   1.00
Br299  Br    0.56153   0.38936   0.32151   0.00000  Uiso   1.00
Br300  Br    0.43846   0.61064   0.17850   0.00000  Uiso   1.00
C301   C     0.75426   0.50001   0.25336   0.00000  Uiso   1.00
C302   C     0.91241   0.49999   0.24664   0.00000  Uiso   1.00
C303   C     0.76696   0.46059   0.02065   0.00000  Uiso   1.00
C304   C     0.89974   0.53927   0.47936   0.00000  Uiso   1.00
C305   C     0.68762   0.45765   0.25508   0.00000  Uiso   1.00
C306   C     0.97905   0.54234   0.24492   0.00000  Uiso   1.00
C307   C     0.97907   0.45770   0.24453   0.00000  Uiso   1.00
C308   C     0.68760   0.54230   0.25548   0.00000  Uiso   1.00
C309   C     0.95724   0.50002   0.24359   0.00000  Uiso   1.00
C310   C     0.70943   0.49998   0.25642   0.00000  Uiso   1.00
C311   C     0.80824   0.35797   0.22070   0.00000  Uiso   1.00
C312   C     0.85843   0.64204   0.27930   0.00000  Uiso   1.00
C313   C     0.85845   0.35803   0.27929   0.00000  Uiso   1.00
C314   C     0.80822   0.64198   0.22071   0.00000  Uiso   1.00
C315   C     0.83324   0.49998   0.16461   0.00000  Uiso   1.00
C316   C     0.83343   0.50002   0.33539   0.00000  Uiso   1.00
C317   C     0.86971   0.50920   0.40821   0.00000  Uiso   1.00
C318   C     0.79697   0.49079   0.09178   0.00000  Uiso   1.00
C319   C     0.83330   0.50004   0.38367   0.00000  Uiso   1.00
C320   C     0.83338   0.49994   0.11633   0.00000  Uiso   1.00
C321   C     0.79686   0.49055   0.40487   0.00000  Uiso   1.00
C322   C     0.86984   0.50933   0.09514   0.00000  Uiso   1.00
C323   C     0.79811   0.48415   0.45153   0.00000  Uiso   1.00
C324   C     0.86861   0.51568   0.04848   0.00000  Uiso   1.00
C325   C     0.83328   0.49995   0.47654   0.00000  Uiso   1.00
C326   C     0.83343   0.49987   0.02346   0.00000  Uiso   1.00
C327   C     0.86827   0.51598   0.45454   0.00000  Uiso   1.00
C328   C     0.79843   0.48390   0.04546   0.00000  Uiso   1.00
C329   C     0.76647   0.46130   0.47389   0.00000  Uiso   1.00
C330   C     0.90024   0.53852   0.02611   0.00000  Uiso   1.00
Cu331  Cu    0.83333   0.54689   0.25000   0.00000  Uiso   1.00
Cu332  Cu    0.83333   0.45311   0.25000   0.00000  Uiso   1.00
N333   N     0.83333   0.61736   0.25000   0.00000  Uiso   1.00
N334   N     0.83333   0.38264   0.25000   0.00000  Uiso   1.00
O335   O     0.77321   0.53958   0.25000   0.00000  Uiso   1.00
O336   O     0.89345   0.46042   0.25001   0.00000  Uiso   1.00
O337   O     0.89345   0.53958   0.25001   0.00000  Uiso   1.00
O338   O     0.77321   0.46042   0.25000   0.00000  Uiso   1.00
O339   O     0.83332   0.53960   0.18513   0.00000  Uiso   1.00
O340   O     0.83334   0.46040   0.31487   0.00000  Uiso   1.00
O341   O     0.83334   0.53960   0.31487   0.00000  Uiso   1.00
O342   O     0.83332   0.46040   0.18513   0.00000  Uiso   1.00
Br343  Br    0.92100   0.50159   0.37870   0.00000  Uiso   1.00
Br344  Br    0.74567   0.49853   0.12126   0.00000  Uiso   1.00
Br345  Br    0.74589   0.49356   0.36961   0.00000  Uiso   1.00
Br346  Br    0.92082   0.50632   0.13043   0.00000  Uiso   1.00
C347   C     0.73642   0.43268   0.44998   0.00000  Uiso   1.00
N348   N     0.71240   0.40953   0.43124   0.00000  Uiso   1.00
C349   C     0.93027   0.56716   0.05003   0.00000  Uiso   1.00
N350   N     0.95426   0.59034   0.06876   0.00000  Uiso   1.00
Br351  Br    0.72999   0.41804   0.04896   0.00000  Uiso   1.00
Br352  Br    0.93659   0.58197   0.45107   0.00000  Uiso   1.00
Br353  Br    0.71162   0.39959   0.27560   0.00000  Uiso   1.00
Br354  Br    0.95505   0.60040   0.22439   0.00000  Uiso   1.00
Br355  Br    0.95503   0.39983   0.22350   0.00000  Uiso   1.00
Br356  Br    0.71164   0.60016   0.27651   0.00000  Uiso   1.00
Br357  Br    0.77196   0.38918   0.17836   0.00000  Uiso   1.00
Br358  Br    0.89471   0.61082   0.32164   0.00000  Uiso   1.00
Br359  Br    0.89487   0.38936   0.32151   0.00000  Uiso   1.00
Br360  Br    0.77179   0.61064   0.17850   0.00000  Uiso   1.00
C361   C     0.08759   0.83334   0.25336   0.00000  Uiso   1.00
C362   C     0.24574   0.83333   0.24664   0.00000  Uiso   1.00
C363   C     0.10029   0.79393   0.02065   0.00000  Uiso   1.00
C364   C     0.23307   0.87261   0.47936   0.00000  Uiso   1.00
C365   C     0.02095   0.79099   0.25508   0.00000  Uiso   1.00
C366   C     0.31238   0.87568   0.24492   0.00000  Uiso   1.00
C367   C     0.31240   0.79103   0.24453   0.00000  Uiso   1.00
C368   C     0.02093   0.87563   0.25548   0.00000  Uiso   1.00
C369   C     0.29057   0.83335   0.24359   0.00000  Uiso   1.00
C370   C     0.04276   0.83331   0.25642   0.00000  Uiso   1.00
C371   C     0.14157   0.69130   0.22070   0.00000  Uiso   1.00
C372   C     0.19176   0.97537   0.27930   0.00000  Uiso   1.00
C373   C     0.19178   0.69136   0.27929   0.00000  Uiso   1.00
C374   C     0.14155   0.97531   0.22071   0.00000  Uiso   1.00
C375   C     0.16658   0.83332   0.16461   0.00000  Uiso   1.00
C376   C     0.16676   0.83335   0.33539   0.00000  Uiso   1.00
C377   C     0.20305   0.84253   0.40821   0.00000  Uiso   1.00
C378   C     0.13030   0.82412   0.09178   0.00000  Uiso   1.00
C379   C     0.16663   0.83337   0.38367   0.00000  Uiso   1.00
C380   C     0.16671   0.83327   0.11633   0.00000  Uiso   1.00
C381   C     0.13019   0.82388   0.40487   0.00000  Uiso   1.00
C382   C     0.20318   0.84266   0.09514   0.00000  Uiso   1.00
C383   C     0.13144   0.81748   0.45153   0.00000  Uiso   1.00
C384   C     0.20194   0.84901   0.04848   0.00000  Uiso   1.00
C385   C     0.16662   0.83329   0.47654   0.00000  Uiso   1.00
C386   C     0.16677   0.83321   0.02346   0.00000  Uiso   1.00
C387   C     0.20160   0.84931   0.45454   0.00000  Uiso   1.00
C388   C     0.13176   0.81724   0.04546   0.00000  Uiso   1.00
C389   C     0.09981   0.79463   0.47389   0.00000  Uiso   1.00
C390   C     0.23358   0.87186   0.02611   0.00000  Uiso   1.00
Cu391  Cu    0.16667   0.88022   0.25000   0.00000  Uiso   1.00
Cu392  Cu    0.16667   0.78645   0.25000   0.00000  Uiso   1.00
N393   N     0.16667   0.95069   0.25000   0.00000  Uiso   1.00
N394   N     0.16667   0.71598   0.25000   0.00000  Uiso   1.00
O395   O     0.10655   0.87291   0.25000   0.00000  Uiso   1.00
O396   O     0.22679   0.79375   0.25001   0.00000  Uiso   1.00
O397   O     0.22679   0.87291   0.25001   0.00000  Uiso   1.00
O398   O     0.10655   0.79375   0.25000   0.00000  Uiso   1.00
O399   O     0.16666   0.87293   0.18513   0.00000  Uiso   1.00
O400   O     0.16668   0.79373   0.31487   0.00000  Uiso   1.00
O401   O     0.16668   0.87293   0.31487   0.00000  Uiso   1.00
O402   O     0.16666   0.79373   0.18513   0.00000  Uiso   1.00
Br403  Br    0.25433   0.83492   0.37870   0.00000  Uiso   1.00
Br404  Br    0.07901   0.83186   0.12126   0.00000  Uiso   1.00
Br405  Br    0.07922   0.82689   0.36961   0.00000  Uiso   1.00
Br406  Br    0.25415   0.83965   0.13043   0.00000  Uiso   1.00
C407   C     0.06976   0.76601   0.44998   0.00000  Uiso   1.00
N408   N     0.04574   0.74286   0.43124   0.00000  Uiso   1.00
C409   C     0.26360   0.90049   0.05003   0.00000  Uiso   1.00
N410   N     0.28759   0.92367   0.06876   0.00000  Uiso   1.00
Br411  Br    0.06332   0.75137   0.04896   0.00000  Uiso   1.00
Br412  Br    0.26992   0.91530   0.45107   0.00000  Uiso   1.00
Br413  Br    0.04496   0.73292   0.27560   0.00000  Uiso   1.00
Br414  Br    0.28838   0.93374   0.22439   0.00000  Uiso   1.00
Br415  Br    0.28836   0.73317   0.22350   0.00000  Uiso   1.00
Br416  Br    0.04497   0.93350   0.27651   0.00000  Uiso   1.00
Br417  Br    0.10530   0.72251   0.17836   0.00000  Uiso   1.00
Br418  Br    0.22804   0.94416   0.32164   0.00000  Uiso   1.00
Br419  Br    0.22820   0.72269   0.32151   0.00000  Uiso   1.00
Br420  Br    0.10513   0.94398   0.17850   0.00000  Uiso   1.00
C421   C     0.42092   0.83334   0.25336   0.00000  Uiso   1.00
C422   C     0.57908   0.83333   0.24664   0.00000  Uiso   1.00
C423   C     0.43363   0.79393   0.02065   0.00000  Uiso   1.00
C424   C     0.56640   0.87261   0.47936   0.00000  Uiso   1.00
C425   C     0.35429   0.79099   0.25508   0.00000  Uiso   1.00
C426   C     0.64572   0.87568   0.24492   0.00000  Uiso   1.00
C427   C     0.64574   0.79103   0.24453   0.00000  Uiso   1.00
C428   C     0.35426   0.87563   0.25548   0.00000  Uiso   1.00
C429   C     0.62391   0.83335   0.24359   0.00000  Uiso   1.00
C430   C     0.37609   0.83331   0.25642   0.00000  Uiso   1.00
C431   C     0.47491   0.69130   0.22070   0.00000  Uiso   1.00
C432   C     0.52509   0.97537   0.27930   0.00000  Uiso   1.00
C433   C     0.52511   0.69136   0.27929   0.00000  Uiso   1.00
C434   C     0.47489   0.97531   0.22071   0.00000  Uiso   1.00
C435   C     0.49991   0.83332   0.16461   0.00000  Uiso   1.00
C436   C     0.50009   0.83335   0.33539   0.00000  Uiso   1.00
C437   C     0.53638   0.84253   0.40821   0.00000  Uiso   1.00
C438   C     0.46363   0.82412   0.09178   0.00000  Uiso   1.00
C439   C     0.49997   0.83337   0.38367   0.00000  Uiso   1.00
C440   C     0.50005   0.83327   0.11633   0.00000  Uiso   1.00
C441   C     0.46352   0.82388   0.40487   0.00000  Uiso   1.00
C442   C     0.53651   0.84266   0.09514   0.00000  Uiso   1.00
C443   C     0.46477   0.81748   0.45153   0.00000  Uiso   1.00
C444   C     0.53528   0.84901   0.04848   0.00000  Uiso   1.00
C445   C     0.49995   0.83329   0.47654   0.00000  Uiso   1.00
C446   C     0.50010   0.83321   0.02346   0.00000  Uiso   1.00
C447   C     0.53494   0.84931   0.45454   0.00000  Uiso   1.00
C448   C     0.46509   0.81724   0.04546   0.00000  Uiso   1.00
C449   C     0.43314   0.79463   0.47389   0.00000  Uiso   1.00
C450   C     0.56691   0.87186   0.02611   0.00000  Uiso   1.00
Cu451  Cu    0.50000   0.88022   0.25000   0.00000  Uiso   1.00
Cu452  Cu    0.50000   0.78645   0.25000   0.00000  Uiso   1.00
N453   N     0.50000   0.95069   0.25000   0.00000  Uiso   1.00
N454   N     0.50000   0.71598   0.25000   0.00000  Uiso   1.00
O455   O     0.43988   0.87291   0.25000   0.00000  Uiso   1.00
O456   O     0.56012   0.79375   0.25001   0.00000  Uiso   1.00
O457   O     0.56012   0.87291   0.25001   0.00000  Uiso   1.00
O458   O     0.43988   0.79375   0.25000   0.00000  Uiso   1.00
O459   O     0.49999   0.87293   0.18513   0.00000  Uiso   1.00
O460   O     0.50001   0.79373   0.31487   0.00000  Uiso   1.00
O461   O     0.50001   0.87293   0.31487   0.00000  Uiso   1.00
O462   O     0.49999   0.79373   0.18513   0.00000  Uiso   1.00
Br463  Br    0.58766   0.83492   0.37870   0.00000  Uiso   1.00
Br464  Br    0.41234   0.83186   0.12126   0.00000  Uiso   1.00
Br465  Br    0.41256   0.82689   0.36961   0.00000  Uiso   1.00
Br466  Br    0.58749   0.83965   0.13043   0.00000  Uiso   1.00
C467   C     0.40309   0.76601   0.44998   0.00000  Uiso   1.00
N468   N     0.37907   0.74286   0.43124   0.00000  Uiso   1.00
C469   C     0.59693   0.90049   0.05003   0.00000  Uiso   1.00
N470   N     0.62092   0.92367   0.06876   0.00000  Uiso   1.00
Br471  Br    0.39666   0.75137   0.04896   0.00000  Uiso   1.00
Br472  Br    0.60325   0.91530   0.45107   0.00000  Uiso   1.00
Br473  Br    0.37829   0.73292   0.27560   0.00000  Uiso   1.00
Br474  Br    0.62171   0.93374   0.22439   0.00000  Uiso   1.00
Br475  Br    0.62170   0.73317   0.22350   0.00000  Uiso   1.00
Br476  Br    0.37830   0.93350   0.27651   0.00000  Uiso   1.00
Br477  Br    0.43863   0.72251   0.17836   0.00000  Uiso   1.00
Br478  Br    0.56137   0.94416   0.32164   0.00000  Uiso   1.00
Br479  Br    0.56153   0.72269   0.32151   0.00000  Uiso   1.00
Br480  Br    0.43846   0.94398   0.17850   0.00000  Uiso   1.00
C481   C     0.75426   0.83334   0.25336   0.00000  Uiso   1.00
C482   C     0.91241   0.83333   0.24664   0.00000  Uiso   1.00
C483   C     0.76696   0.79393   0.02065   0.00000  Uiso   1.00
C484   C     0.89974   0.87261   0.47936   0.00000  Uiso   1.00
C485   C     0.68762   0.79099   0.25508   0.00000  Uiso   1.00
C486   C     0.97905   0.87568   0.24492   0.00000  Uiso   1.00
C487   C     0.97907   0.79103   0.24453   0.00000  Uiso   1.00
C488   C     0.68760   0.87563   0.25548   0.00000  Uiso   1.00
C489   C     0.95724   0.83335   0.24359   0.00000  Uiso   1.00
C490   C     0.70943   0.83331   0.25642   0.00000  Uiso   1.00
C491   C     0.80824   0.69130   0.22070   0.00000  Uiso   1.00
C492   C     0.85843   0.97537   0.27930   0.00000  Uiso   1.00
C493   C     0.85845   0.69136   0.27929   0.00000  Uiso   1.00
C494   C     0.80822   0.97531   0.22071   0.00000  Uiso   1.00
C495   C     0.83324   0.83332   0.16461   0.00000  Uiso   1.00
C496   C     0.83343   0.83335   0.33539   0.00000  Uiso   1.00
C497   C     0.86971   0.84253   0.40821   0.00000  Uiso   1.00
C498   C     0.79697   0.82412   0.09178   0.00000  Uiso   1.00
C499   C     0.83330   0.83337   0.38367   0.00000  Uiso   1.00
C500   C     0.83338   0.83327   0.11633   0.00000  Uiso   1.00
C501   C     0.79686   0.82388   0.40487   0.00000  Uiso   1.00
C502   C     0.86984   0.84266   0.09514   0.00000  Uiso   1.00
C503   C     0.79811   0.81748   0.45153   0.00000  Uiso   1.00
C504   C     0.86861   0.84901   0.04848   0.00000  Uiso   1.00
C505   C     0.83328   0.83329   0.47654   0.00000  Uiso   1.00
C506   C     0.83343   0.83321   0.02346   0.00000  Uiso   1.00
C507   C     0.86827   0.84931   0.45454   0.00000  Uiso   1.00
C508   C     0.79843   0.81724   0.04546   0.00000  Uiso   1.00
C509   C     0.76647   0.79463   0.47389   0.00000  Uiso   1.00
C510   C     0.90024   0.87186   0.02611   0.00000  Uiso   1.00
Cu511  Cu    0.83333   0.88022   0.25000   0.00000  Uiso   1.00
Cu512  Cu    0.83333   0.78645   0.25000   0.00000  Uiso   1.00
N513   N     0.83333   0.95069   0.25000   0.00000  Uiso   1.00
N514   N     0.83333   0.71598   0.25000   0.00000  Uiso   1.00
O515   O     0.77321   0.87291   0.25000   0.00000  Uiso   1.00
O516   O     0.89345   0.79375   0.25001   0.00000  Uiso   1.00
O517   O     0.89345   0.87291   0.25001   0.00000  Uiso   1.00
O518   O     0.77321   0.79375   0.25000   0.00000  Uiso   1.00
O519   O     0.83332   0.87293   0.18513   0.00000  Uiso   1.00
O520   O     0.83334   0.79373   0.31487   0.00000  Uiso   1.00
O521   O     0.83334   0.87293   0.31487   0.00000  Uiso   1.00
O522   O     0.83332   0.79373   0.18513   0.00000  Uiso   1.00
Br523  Br    0.92100   0.83492   0.37870   0.00000  Uiso   1.00
Br524  Br    0.74567   0.83186   0.12126   0.00000  Uiso   1.00
Br525  Br    0.74589   0.82689   0.36961   0.00000  Uiso   1.00
Br526  Br    0.92082   0.83965   0.13043   0.00000  Uiso   1.00
C527   C     0.73642   0.76601   0.44998   0.00000  Uiso   1.00
N528   N     0.71240   0.74286   0.43124   0.00000  Uiso   1.00
C529   C     0.93027   0.90049   0.05003   0.00000  Uiso   1.00
N530   N     0.95426   0.92367   0.06876   0.00000  Uiso   1.00
Br531  Br    0.72999   0.75137   0.04896   0.00000  Uiso   1.00
Br532  Br    0.93659   0.91530   0.45107   0.00000  Uiso   1.00
Br533  Br    0.71162   0.73292   0.27560   0.00000  Uiso   1.00
Br534  Br    0.95505   0.93374   0.22439   0.00000  Uiso   1.00
Br535  Br    0.95503   0.73317   0.22350   0.00000  Uiso   1.00
Br536  Br    0.71164   0.93350   0.27651   0.00000  Uiso   1.00
Br537  Br    0.77196   0.72251   0.17836   0.00000  Uiso   1.00
Br538  Br    0.89471   0.94416   0.32164   0.00000  Uiso   1.00
Br539  Br    0.89487   0.72269   0.32151   0.00000  Uiso   1.00
Br540  Br    0.77179   0.94398   0.17850   0.00000  Uiso   1.00
C541   C     0.08759   0.16667   0.75336   0.00000  Uiso   1.00
C542   C     0.24574   0.16666   0.74664   0.00000  Uiso   1.00
C543   C     0.10029   0.12726   0.52065   0.00000  Uiso   1.00
C544   C     0.23307   0.20594   0.97936   0.00000  Uiso   1.00
C545   C     0.02095   0.12432   0.75508   0.00000  Uiso   1.00
C546   C     0.31238   0.20901   0.74492   0.00000  Uiso   1.00
C547   C     0.31240   0.12436   0.74453   0.00000  Uiso   1.00
C548   C     0.02093   0.20897   0.75548   0.00000  Uiso   1.00
C549   C     0.29057   0.16668   0.74359   0.00000  Uiso   1.00
C550   C     0.04276   0.16665   0.75642   0.00000  Uiso   1.00
C551   C     0.14157   0.02463   0.72070   0.00000  Uiso   1.00
C552   C     0.19176   0.30870   0.77930   0.00000  Uiso   1.00
C553   C     0.19178   0.02469   0.77929   0.00000  Uiso   1.00
C554   C     0.14155   0.30864   0.72071   0.00000  Uiso   1.00
C555   C     0.16658   0.16665   0.66461   0.00000  Uiso   1.00
C556   C     0.16676   0.16668   0.83539   0.00000  Uiso   1.00
C557   C     0.20305   0.17586   0.90821   0.00000  Uiso   1.00
C558   C     0.13030   0.15746   0.59178   0.00000  Uiso   1.00
C559   C     0.16663   0.16671   0.88367   0.00000  Uiso   1.00
C560   C     0.16671   0.16661   0.61633   0.00000  Uiso   1.00
C561   C     0.13019   0.15722   0.90487   0.00000  Uiso   1.00
C562   C     0.20318   0.17600   0.59514   0.00000  Uiso   1.00
C563   C     0.13144   0.15082   0.95153   0.00000  Uiso   1.00
C564   C     0.20194   0.18235   0.54848   0.00000  Uiso   1.00
C565   C     0.16662   0.16662   0.97654   0.00000  Uiso   1.00
C566   C     0.16677   0.16654   0.52346   0.00000  Uiso   1.00
C567   C     0.20160   0.18265   0.95454   0.00000  Uiso   1.00
C568   C     0.13176   0.15057   0.54546   0.00000  Uiso   1.00
C569   C     0.09981   0.12797   0.97389   0.00000  Uiso   1.00
C570   C     0.23358   0.20519   0.52611   0.00000  Uiso   1.00
Cu571  Cu    0.16667   0.21355   0.75000   0.00000  Uiso   1.00
Cu572  Cu    0.16667   0.11978   0.75000   0.00000  Uiso   1.00
N573   N     0.16667   0.28402   0.75000   0.00000  Uiso   1.00
N574   N     0.16667   0.04931   0.75000   0.00000  Uiso   1.00
O575   O     0.10655   0.20625   0.75000   0.00000  Uiso   1.00
O576   O     0.22679   0.12709   0.75001   0.00000  Uiso   1.00
O577   O     0.22679   0.20625   0.75001   0.00000  Uiso   1.00
O578   O     0.10655   0.12709   0.75000   0.00000  Uiso   1.00
O579   O     0.16666   0.20627   0.68513   0.00000  Uiso   1.00
O580   O     0.16668   0.12707   0.81487   0.00000  Uiso   1.00
O581   O     0.16668   0.20627   0.81487   0.00000  Uiso   1.00
O582   O     0.16666   0.12707   0.68513   0.00000  Uiso   1.00
Br583  Br    0.25433   0.16826   0.87870   0.00000  Uiso   1.00
Br584  Br    0.07901   0.16519   0.62126   0.00000  Uiso   1.00
Br585  Br    0.07922   0.16023   0.86961   0.00000  Uiso   1.00
Br586  Br    0.25415   0.17298   0.63043   0.00000  Uiso   1.00
C587   C     0.06976   0.09935   0.94998   0.00000  Uiso   1.00
N588   N     0.04574   0.07620   0.93124   0.00000  Uiso   1.00
C589   C     0.26360   0.23383   0.55003   0.00000  Uiso   1.00
N590   N     0.28759   0.25701   0.56876   0.00000  Uiso   1.00
Br591  Br    0.06332   0.08470   0.54896   0.00000  Uiso   1.00
Br592  Br    0.26992   0.24864   0.95107   0.00000  Uiso   1.00
Br593  Br    0.04496   0.06626   0.77560   0.00000  Uiso   1.00
Br594  Br    0.28838   0.26707   0.72439   0.00000  Uiso   1.00
Br595  Br    0.28836   0.06650   0.72350   0.00000  Uiso   1.00
Br596  Br    0.04497   0.26683   0.77651   0.00000  Uiso   1.00
Br597  Br    0.10530   0.05585   0.67836   0.00000  Uiso   1.00
Br598  Br    0.22804   0.27749   0.82164   0.00000  Uiso   1.00
Br599  Br    0.22820   0.05603   0.82151   0.00000  Uiso   1.00
Br600  Br    0.10513   0.27731   0.67850   0.00000  Uiso   1.00
C601   C     0.42092   0.16667   0.75336   0.00000  Uiso   1.00
C602   C     0.57908   0.16666   0.74664   0.00000  Uiso   1.00
C603   C     0.43363   0.12726   0.52065   0.00000  Uiso   1.00
C604   C     0.56640   0.20594   0.97936   0.00000  Uiso   1.00
C605   C     0.35429   0.12432   0.75508   0.00000  Uiso   1.00
C606   C     0.64572   0.20901   0.74492   0.00000  Uiso   1.00
C607   C     0.64574   0.12436   0.74453   0.00000  Uiso   1.00
C608   C     0.35426   0.20897   0.75548   0.00000  Uiso   1.00
C609   C     0.62391   0.16668   0.74359   0.00000  Uiso   1.00
C610   C     0.37609   0.16665   0.75642   0.00000  Uiso   1.00
C611   C     0.47491   0.02463   0.72070   0.00000  Uiso   1.00
C612   C     0.52509   0.30870   0.77930   0.00000  Uiso   1.00
C613   C     0.52511   0.02469   0.77929   0.00000  Uiso   1.00
C614   C     0.47489   0.30864   0.72071   0.00000  Uiso   1.00
C615   C     0.49991   0.16665   0.66461   0.00000  Uiso   1.00
C616   C     0.50009   0.16668   0.83539   0.00000  Uiso   1.00
C617   C     0.53638   0.17586   0.90821   0.00000  Uiso   1.00
C618   C     0.46363   0.15746   0.59178   0.00000  Uiso   1.00
C619   C     0.49997   0.16671   0.88367   0.00000  Uiso   1.00
C620   C     0.50005   0.16661   0.61633   0.00000  Uiso   1.00
C621   C     0.46352   0.15722   0.90487   0.00000  Uiso   1.00
C622   C     0.53651   0.17600   0.59514   0.00000  Uiso   1.00
C623   C     0.46477   0.15082   0.95153   0.00000  Uiso   1.00
C624   C     0.53528   0.18235   0.54848   0.00000  Uiso   1.00
C625   C     0.49995   0.16662   0.97654   0.00000  Uiso   1.00
C626   C     0.50010   0.16654   0.52346   0.00000  Uiso   1.00
C627   C     0.53494   0.18265   0.95454   0.00000  Uiso   1.00
C628   C     0.46509   0.15057   0.54546   0.00000  Uiso   1.00
C629   C     0.43314   0.12797   0.97389   0.00000  Uiso   1.00
C630   C     0.56691   0.20519   0.52611   0.00000  Uiso   1.00
Cu631  Cu    0.50000   0.21355   0.75000   0.00000  Uiso   1.00
Cu632  Cu    0.50000   0.11978   0.75000   0.00000  Uiso   1.00
N633   N     0.50000   0.28402   0.75000   0.00000  Uiso   1.00
N634   N     0.50000   0.04931   0.75000   0.00000  Uiso   1.00
O635   O     0.43988   0.20625   0.75000   0.00000  Uiso   1.00
O636   O     0.56012   0.12709   0.75001   0.00000  Uiso   1.00
O637   O     0.56012   0.20625   0.75001   0.00000  Uiso   1.00
O638   O     0.43988   0.12709   0.75000   0.00000  Uiso   1.00
O639   O     0.49999   0.20627   0.68513   0.00000  Uiso   1.00
O640   O     0.50001   0.12707   0.81487   0.00000  Uiso   1.00
O641   O     0.50001   0.20627   0.81487   0.00000  Uiso   1.00
O642   O     0.49999   0.12707   0.68513   0.00000  Uiso   1.00
Br643  Br    0.58766   0.16826   0.87870   0.00000  Uiso   1.00
Br644  Br    0.41234   0.16519   0.62126   0.00000  Uiso   1.00
Br645  Br    0.41256   0.16023   0.86961   0.00000  Uiso   1.00
Br646  Br    0.58749   0.17298   0.63043   0.00000  Uiso   1.00
C647   C     0.40309   0.09935   0.94998   0.00000  Uiso   1.00
N648   N     0.37907   0.07620   0.93124   0.00000  Uiso   1.00
C649   C     0.59693   0.23383   0.55003   0.00000  Uiso   1.00
N650   N     0.62092   0.25701   0.56876   0.00000  Uiso   1.00
Br651  Br    0.39666   0.08470   0.54896   0.00000  Uiso   1.00
Br652  Br    0.60325   0.24864   0.95107   0.00000  Uiso   1.00
Br653  Br    0.37829   0.06626   0.77560   0.00000  Uiso   1.00
Br654  Br    0.62171   0.26707   0.72439   0.00000  Uiso   1.00
Br655  Br    0.62170   0.06650   0.72350   0.00000  Uiso   1.00
Br656  Br    0.37830   0.26683   0.77651   0.00000  Uiso   1.00
Br657  Br    0.43863   0.05585   0.67836   0.00000  Uiso   1.00
Br658  Br    0.56137   0.27749   0.82164   0.00000  Uiso   1.00
Br659  Br    0.56153   0.05603   0.82151   0.00000  Uiso   1.00
Br660  Br    0.43846   0.27731   0.67850   0.00000  Uiso   1.00
C661   C     0.75426   0.16667   0.75336   0.00000  Uiso   1.00
C662   C     0.91241   0.16666   0.74664   0.00000  Uiso   1.00
C663   C     0.76696   0.12726   0.52065   0.00000  Uiso   1.00
C664   C     0.89974   0.20594   0.97936   0.00000  Uiso   1.00
C665   C     0.68762   0.12432   0.75508   0.00000  Uiso   1.00
C666   C     0.97905   0.20901   0.74492   0.00000  Uiso   1.00
C667   C     0.97907   0.12436   0.74453   0.00000  Uiso   1.00
C668   C     0.68760   0.20897   0.75548   0.00000  Uiso   1.00
C669   C     0.95724   0.16668   0.74359   0.00000  Uiso   1.00
C670   C     0.70943   0.16665   0.75642   0.00000  Uiso   1.00
C671   C     0.80824   0.02463   0.72070   0.00000  Uiso   1.00
C672   C     0.85843   0.30870   0.77930   0.00000  Uiso   1.00
C673   C     0.85845   0.02469   0.77929   0.00000  Uiso   1.00
C674   C     0.80822   0.30864   0.72071   0.00000  Uiso   1.00
C675   C     0.83324   0.16665   0.66461   0.00000  Uiso   1.00
C676   C     0.83343   0.16668   0.83539   0.00000  Uiso   1.00
C677   C     0.86971   0.17586   0.90821   0.00000  Uiso   1.00
C678   C     0.79697   0.15746   0.59178   0.00000  Uiso   1.00
C679   C     0.83330   0.16671   0.88367   0.00000  Uiso   1.00
C680   C     0.83338   0.16661   0.61633   0.00000  Uiso   1.00
C681   C     0.79686   0.15722   0.90487   0.00000  Uiso   1.00
C682   C     0.86984   0.17600   0.59514   0.00000  Uiso   1.00
C683   C     0.79811   0.15082   0.95153   0.00000  Uiso   1.00
C684   C     0.86861   0.18235   0.54848   0.00000  Uiso   1.00
C685   C     0.83328   0.16662   0.97654   0.00000  Uiso   1.00
C686   C     0.83343   0.16654   0.52346   0.00000  Uiso   1.00
C687   C     0.86827   0.18265   0.95454   0.00000  Uiso   1.00
C688   C     0.79843   0.15057   0.54546   0.00000  Uiso   1.00
C689   C     0.76647   0.12797   0.97389   0.00000  Uiso   1.00
C690   C     0.90024   0.20519   0.52611   0.00000  Uiso   1.00
Cu691  Cu    0.83333   0.21355   0.75000   0.00000  Uiso   1.00
Cu692  Cu    0.83333   0.11978   0.75000   0.00000  Uiso   1.00
N693   N     0.83333   0.28402   0.75000   0.00000  Uiso   1.00
N694   N     0.83333   0.04931   0.75000   0.00000  Uiso   1.00
O695   O     0.77321   0.20625   0.75000   0.00000  Uiso   1.00
O696   O     0.89345   0.12709   0.75001   0.00000  Uiso   1.00
O697   O     0.89345   0.20625   0.75001   0.00000  Uiso   1.00
O698   O     0.77321   0.12709   0.75000   0.00000  Uiso   1.00
O699   O     0.83332   0.20627   0.68513   0.00000  Uiso   1.00
O700   O     0.83334   0.12707   0.81487   0.00000  Uiso   1.00
O701   O     0.83334   0.20627   0.81487   0.00000  Uiso   1.00
O702   O     0.83332   0.12707   0.68513   0.00000  Uiso   1.00
Br703  Br    0.92100   0.16826   0.87870   0.00000  Uiso   1.00
Br704  Br    0.74567   0.16519   0.62126   0.00000  Uiso   1.00
Br705  Br    0.74589   0.16023   0.86961   0.00000  Uiso   1.00
Br706  Br    0.92082   0.17298   0.63043   0.00000  Uiso   1.00
C707   C     0.73642   0.09935   0.94998   0.00000  Uiso   1.00
N708   N     0.71240   0.07620   0.93124   0.00000  Uiso   1.00
C709   C     0.93027   0.23383   0.55003   0.00000  Uiso   1.00
N710   N     0.95426   0.25701   0.56876   0.00000  Uiso   1.00
Br711  Br    0.72999   0.08470   0.54896   0.00000  Uiso   1.00
Br712  Br    0.93659   0.24864   0.95107   0.00000  Uiso   1.00
Br713  Br    0.71162   0.06626   0.77560   0.00000  Uiso   1.00
Br714  Br    0.95505   0.26707   0.72439   0.00000  Uiso   1.00
Br715  Br    0.95503   0.06650   0.72350   0.00000  Uiso   1.00
Br716  Br    0.71164   0.26683   0.77651   0.00000  Uiso   1.00
Br717  Br    0.77196   0.05585   0.67836   0.00000  Uiso   1.00
Br718  Br    0.89471   0.27749   0.82164   0.00000  Uiso   1.00
Br719  Br    0.89487   0.05603   0.82151   0.00000  Uiso   1.00
Br720  Br    0.77179   0.27731   0.67850   0.00000  Uiso   1.00
C721   C     0.08759   0.50001   0.75336   0.00000  Uiso   1.00
C722   C     0.24574   0.49999   0.74664   0.00000  Uiso   1.00
C723   C     0.10029   0.46059   0.52065   0.00000  Uiso   1.00
C724   C     0.23307   0.53927   0.97936   0.00000  Uiso   1.00
C725   C     0.02095   0.45765   0.75508   0.00000  Uiso   1.00
C726   C     0.31238   0.54234   0.74492   0.00000  Uiso   1.00
C727   C     0.31240   0.45770   0.74453   0.00000  Uiso   1.00
C728   C     0.02093   0.54230   0.75548   0.00000  Uiso   1.00
C729   C     0.29057   0.50002   0.74359   0.00000  Uiso   1.00
C730   C     0.04276   0.49998   0.75642   0.00000  Uiso   1.00
C731   C     0.14157   0.35797   0.72070   0.00000  Uiso   1.00
C732   C     0.19176   0.64204   0.77930   0.00000  Uiso   1.00
C733   C     0.19178   0.35803   0.77929   0.00000  Uiso   1.00
C734   C     0.14155   0.64198   0.72071   0.00000  Uiso   1.00
C735   C     0.16658   0.49998   0.66461   0.00000  Uiso   1.00
C736   C     0.16676   0.50002   0.83539   0.00000  Uiso   1.00
C737   C     0.20305   0.50920   0.90821   0.00000  Uiso   1.00
C738   C     0.13030   0.49079   0.59178   0.00000  Uiso   1.00
C739   C     0.16663   0.50004   0.88367   0.00000  Uiso   1.00
C740   C     0.16671   0.49994   0.61633   0.00000  Uiso   1.00
C741   C     0.13019   0.49055   0.90487   0.00000  Uiso   1.00
C742   C     0.20318   0.50933   0.59514   0.00000  Uiso   1.00
C743   C     0.13144   0.48415   0.95153   0.00000  Uiso   1.00
C744   C     0.20194   0.51568   0.54848   0.00000  Uiso   1.00
C745   C     0.16662   0.49995   0.97654   0.00000  Uiso   1.00
C746   C     0.16677   0.49987   0.52346   0.00000  Uiso   1.00
C747   C     0.20160   0.51598   0.95454   0.00000  Uiso   1.00
C748   C     0.13176   0.48390   0.54546   0.00000  Uiso   1.00
C749   C     0.09981   0.46130   0.97389   0.00000  Uiso   1.00
C750   C     0.23358   0.53852   0.52611   0.00000  Uiso   1.00
Cu751  Cu    0.16667   0.54689   0.75000   0.00000  Uiso   1.00
Cu752  Cu    0.16667   0.45311   0.75000   0.00000  Uiso   1.00
N753   N     0.16667   0.61736   0.75000   0.00000  Uiso   1.00
N754   N     0.16667   0.38264   0.75000   0.00000  Uiso   1.00
O755   O     0.10655   0.53958   0.75000   0.00000  Uiso   1.00
O756   O     0.22679   0.46042   0.75001   0.00000  Uiso   1.00
O757   O     0.22679   0.53958   0.75001   0.00000  Uiso   1.00
O758   O     0.10655   0.46042   0.75000   0.00000  Uiso   1.00
O759   O     0.16666   0.53960   0.68513   0.00000  Uiso   1.00
O760   O     0.16668   0.46040   0.81487   0.00000  Uiso   1.00
O761   O     0.16668   0.53960   0.81487   0.00000  Uiso   1.00
O762   O     0.16666   0.46040   0.68513   0.00000  Uiso   1.00
Br763  Br    0.25433   0.50159   0.87870   0.00000  Uiso   1.00
Br764  Br    0.07901   0.49853   0.62126   0.00000  Uiso   1.00
Br765  Br    0.07922   0.49356   0.86961   0.00000  Uiso   1.00
Br766  Br    0.25415   0.50632   0.63043   0.00000  Uiso   1.00
C767   C     0.06976   0.43268   0.94998   0.00000  Uiso   1.00
N768   N     0.04574   0.40953   0.93124   0.00000  Uiso   1.00
C769   C     0.26360   0.56716   0.55003   0.00000  Uiso   1.00
N770   N     0.28759   0.59034   0.56876   0.00000  Uiso   1.00
Br771  Br    0.06332   0.41804   0.54896   0.00000  Uiso   1.00
Br772  Br    0.26992   0.58197   0.95107   0.00000  Uiso   1.00
Br773  Br    0.04496   0.39959   0.77560   0.00000  Uiso   1.00
Br774  Br    0.28838   0.60040   0.72439   0.00000  Uiso   1.00
Br775  Br    0.28836   0.39983   0.72350   0.00000  Uiso   1.00
Br776  Br    0.04497   0.60016   0.77651   0.00000  Uiso   1.00
Br777  Br    0.10530   0.38918   0.67836   0.00000  Uiso   1.00
Br778  Br    0.22804   0.61082   0.82164   0.00000  Uiso   1.00
Br779  Br    0.22820   0.38936   0.82151   0.00000  Uiso   1.00
Br780  Br    0.10513   0.61064   0.67850   0.00000  Uiso   1.00
C781   C     0.42092   0.50001   0.75336   0.00000  Uiso   1.00
C782   C     0.57908   0.49999   0.74664   0.00000  Uiso   1.00
C783   C     0.43363   0.46059   0.52065   0.00000  Uiso   1.00
C784   C     0.56640   0.53927   0.97936   0.00000  Uiso   1.00
C785   C     0.35429   0.45765   0.75508   0.00000  Uiso   1.00
C786   C     0.64572   0.54234   0.74492   0.00000  Uiso   1.00
C787   C     0.64574   0.45770   0.74453   0.00000  Uiso   1.00
C788   C     0.35426   0.54230   0.75548   0.00000  Uiso   1.00
C789   C     0.62391   0.50002   0.74359   0.00000  Uiso   1.00
C790   C     0.37609   0.49998   0.75642   0.00000  Uiso   1.00
C791   C     0.47491   0.35797   0.72070   0.00000  Uiso   1.00
C792   C     0.52509   0.64204   0.77930   0.00000  Uiso   1.00
C793   C     0.52511   0.35803   0.77929   0.00000  Uiso   1.00
C794   C     0.47489   0.64198   0.72071   0.00000  Uiso   1.00
C795   C     0.49991   0.49998   0.66461   0.00000  Uiso   1.00
C796   C     0.50009   0.50002   0.83539   0.00000  Uiso   1.00
C797   C     0.53638   0.50920   0.90821   0.00000  Uiso   1.00
C798   C     0.46363   0.49079   0.59178   0.00000  Uiso   1.00
C799   C     0.49997   0.50004   0.88367   0.00000  Uiso   1.00
C800   C     0.50005   0.49994   0.61633   0.00000  Uiso   1.00
C801   C     0.46352   0.49055   0.90487   0.00000  Uiso   1.00
C802   C     0.53651   0.50933   0.59514   0.00000  Uiso   1.00
C803   C     0.46477   0.48415   0.95153   0.00000  Uiso   1.00
C804   C     0.53528   0.51568   0.54848   0.00000  Uiso   1.00
C805   C     0.49995   0.49995   0.97654   0.00000  Uiso   1.00
C806   C     0.50010   0.49987   0.52346   0.00000  Uiso   1.00
C807   C     0.53494   0.51598   0.95454   0.00000  Uiso   1.00
C808   C     0.46509   0.48390   0.54546   0.00000  Uiso   1.00
C809   C     0.43314   0.46130   0.97389   0.00000  Uiso   1.00
C810   C     0.56691   0.53852   0.52611   0.00000  Uiso   1.00
Cu811  Cu    0.50000   0.54689   0.75000   0.00000  Uiso   1.00
Cu812  Cu    0.50000   0.45311   0.75000   0.00000  Uiso   1.00
N813   N     0.50000   0.61736   0.75000   0.00000  Uiso   1.00
N814   N     0.50000   0.38264   0.75000   0.00000  Uiso   1.00
O815   O     0.43988   0.53958   0.75000   0.00000  Uiso   1.00
O816   O     0.56012   0.46042   0.75001   0.00000  Uiso   1.00
O817   O     0.56012   0.53958   0.75001   0.00000  Uiso   1.00
O818   O     0.43988   0.46042   0.75000   0.00000  Uiso   1.00
O819   O     0.49999   0.53960   0.68513   0.00000  Uiso   1.00
O820   O     0.50001   0.46040   0.81487   0.00000  Uiso   1.00
O821   O     0.50001   0.53960   0.81487   0.00000  Uiso   1.00
O822   O     0.49999   0.46040   0.68513   0.00000  Uiso   1.00
Br823  Br    0.58766   0.50159   0.87870   0.00000  Uiso   1.00
Br824  Br    0.41234   0.49853   0.62126   0.00000  Uiso   1.00
Br825  Br    0.41256   0.49356   0.86961   0.00000  Uiso   1.00
Br826  Br    0.58749   0.50632   0.63043   0.00000  Uiso   1.00
C827   C     0.40309   0.43268   0.94998   0.00000  Uiso   1.00
N828   N     0.37907   0.40953   0.93124   0.00000  Uiso   1.00
C829   C     0.59693   0.56716   0.55003   0.00000  Uiso   1.00
N830   N     0.62092   0.59034   0.56876   0.00000  Uiso   1.00
Br831  Br    0.39666   0.41804   0.54896   0.00000  Uiso   1.00
Br832  Br    0.60325   0.58197   0.95107   0.00000  Uiso   1.00
Br833  Br    0.37829   0.39959   0.77560   0.00000  Uiso   1.00
Br834  Br    0.62171   0.60040   0.72439   0.00000  Uiso   1.00
Br835  Br    0.62170   0.39983   0.72350   0.00000  Uiso   1.00
Br836  Br    0.37830   0.60016   0.77651   0.00000  Uiso   1.00
Br837  Br    0.43863   0.38918   0.67836   0.00000  Uiso   1.00
Br838  Br    0.56137   0.61082   0.82164   0.00000  Uiso   1.00
Br839  Br    0.56153   0.38936   0.82151   0.00000  Uiso   1.00
Br840  Br    0.43846   0.61064   0.67850   0.00000  Uiso   1.00
C841   C     0.75426   0.50001   0.75336   0.00000  Uiso   1.00
C842   C     0.91241   0.49999   0.74664   0.00000  Uiso   1.00
C843   C     0.76696   0.46059   0.52065   0.00000  Uiso   1.00
C844   C     0.89974   0.53927   0.97936   0.00000  Uiso   1.00
C845   C     0.68762   0.45765   0.75508   0.00000  Uiso   1.00
C846   C     0.97905   0.54234   0.74492   0.00000  Uiso   1.00
C847   C     0.97907   0.45770   0.74453   0.00000  Uiso   1.00
C848   C     0.68760   0.54230   0.75548   0.00000  Uiso   1.00
C849   C     0.95724   0.50002   0.74359   0.00000  Uiso   1.00
C850   C     0.70943   0.49998   0.75642   0.00000  Uiso   1.00
C851   C     0.80824   0.35797   0.72070   0.00000  Uiso   1.00
C852   C     0.85843   0.64204   0.77930   0.00000  Uiso   1.00
C853   C     0.85845   0.35803   0.77929   0.00000  Uiso   1.00
C854   C     0.80822   0.64198   0.72071   0.00000  Uiso   1.00
C855   C     0.83324   0.49998   0.66461   0.00000  Uiso   1.00
C856   C     0.83343   0.50002   0.83539   0.00000  Uiso   1.00
C857   C     0.86971   0.50920   0.90821   0.00000  Uiso   1.00
C858   C     0.79697   0.49079   0.59178   0.00000  Uiso   1.00
C859   C     0.83330   0.50004   0.88367   0.00000  Uiso   1.00
C860   C     0.83338   0.49994   0.61633   0.00000  Uiso   1.00
C861   C     0.79686   0.49055   0.90487   0.00000  Uiso   1.00
C862   C     0.86984   0.50933   0.59514   0.00000  Uiso   1.00
C863   C     0.79811   0.48415   0.95153   0.00000  Uiso   1.00
C864   C     0.86861   0.51568   0.54848   0.00000  Uiso   1.00
C865   C     0.83328   0.49995   0.97654   0.00000  Uiso   1.00
C866   C     0.83343   0.49987   0.52346   0.00000  Uiso   1.00
C867   C     0.86827   0.51598   0.95454   0.00000  Uiso   1.00
C868   C     0.79843   0.48390   0.54546   0.00000  Uiso   1.00
C869   C     0.76647   0.46130   0.97389   0.00000  Uiso   1.00
C870   C     0.90024   0.53852   0.52611   0.00000  Uiso   1.00
Cu871  Cu    0.83333   0.54689   0.75000   0.00000  Uiso   1.00
Cu872  Cu    0.83333   0.45311   0.75000   0.00000  Uiso   1.00
N873   N     0.83333   0.61736   0.75000   0.00000  Uiso   1.00
N874   N     0.83333   0.38264   0.75000   0.00000  Uiso   1.00
O875   O     0.77321   0.53958   0.75000   0.00000  Uiso   1.00
O876   O     0.89345   0.46042   0.75001   0.00000  Uiso   1.00
O877   O     0.89345   0.53958   0.75001   0.00000  Uiso   1.00
O878   O     0.77321   0.46042   0.75000   0.00000  Uiso   1.00
O879   O     0.83332   0.53960   0.68513   0.00000  Uiso   1.00
O880   O     0.83334   0.46040   0.81487   0.00000  Uiso   1.00
O881   O     0.83334   0.53960   0.81487   0.00000  Uiso   1.00
O882   O     0.83332   0.46040   0.68513   0.00000  Uiso   1.00
Br883  Br    0.92100   0.50159   0.87870   0.00000  Uiso   1.00
Br884  Br    0.74567   0.49853   0.62126   0.00000  Uiso   1.00
Br885  Br    0.74589   0.49356   0.86961   0.00000  Uiso   1.00
Br886  Br    0.92082   0.50632   0.63043   0.00000  Uiso   1.00
C887   C     0.73642   0.43268   0.94998   0.00000  Uiso   1.00
N888   N     0.71240   0.40953   0.93124   0.00000  Uiso   1.00
C889   C     0.93027   0.56716   0.55003   0.00000  Uiso   1.00
N890   N     0.95426   0.59034   0.56876   0.00000  Uiso   1.00
Br891  Br    0.72999   0.41804   0.54896   0.00000  Uiso   1.00
Br892  Br    0.93659   0.58197   0.95107   0.00000  Uiso   1.00
Br893  Br    0.71162   0.39959   0.77560   0.00000  Uiso   1.00
Br894  Br    0.95505   0.60040   0.72439   0.00000  Uiso   1.00
Br895  Br    0.95503   0.39983   0.72350   0.00000  Uiso   1.00
Br896  Br    0.71164   0.60016   0.77651   0.00000  Uiso   1.00
Br897  Br    0.77196   0.38918   0.67836   0.00000  Uiso   1.00
Br898  Br    0.89471   0.61082   0.82164   0.00000  Uiso   1.00
Br899  Br    0.89487   0.38936   0.82151   0.00000  Uiso   1.00
Br900  Br    0.77179   0.61064   0.67850   0.00000  Uiso   1.00
C901   C     0.08759   0.83334   0.75336   0.00000  Uiso   1.00
C902   C     0.24574   0.83333   0.74664   0.00000  Uiso   1.00
C903   C     0.10029   0.79393   0.52065   0.00000  Uiso   1.00
C904   C     0.23307   0.87261   0.97936   0.00000  Uiso   1.00
C905   C     0.02095   0.79099   0.75508   0.00000  Uiso   1.00
C906   C     0.31238   0.87568   0.74492   0.00000  Uiso   1.00
C907   C     0.31240   0.79103   0.74453   0.00000  Uiso   1.00
C908   C     0.02093   0.87563   0.75548   0.00000  Uiso   1.00
C909   C     0.29057   0.83335   0.74359   0.00000  Uiso   1.00
C910   C     0.04276   0.83331   0.75642   0.00000  Uiso   1.00
C911   C     0.14157   0.69130   0.72070   0.00000  Uiso   1.00
C912   C     0.19176   0.97537   0.77930   0.00000  Uiso   1.00
C913   C     0.19178   0.69136   0.77929   0.00000  Uiso   1.00
C914   C     0.14155   0.97531   0.72071   0.00000  Uiso   1.00
C915   C     0.16658   0.83332   0.66461   0.00000  Uiso   1.00
C916   C     0.16676   0.83335   0.83539   0.00000  Uiso   1.00
C917   C     0.20305   0.84253   0.90821   0.00000  Uiso   1.00
C918   C     0.13030   0.82412   0.59178   0.00000  Uiso   1.00
C919   C     0.16663   0.83337   0.88367   0.00000  Uiso   1.00
C920   C     0.16671   0.83327   0.61633   0.00000  Uiso   1.00
C921   C     0.13019   0.82388   0.90487   0.00000  Uiso   1.00
C922   C     0.20318   0.84266   0.59514   0.00000  Uiso   1.00
C923   C     0.13144   0.81748   0.95153   0.00000  Uiso   1.00
C924   C     0.20194   0.84901   0.54848   0.00000  Uiso   1.00
C925   C     0.16662   0.83329   0.97654   0.00000  Uiso   1.00
C926   C     0.16677   0.83321   0.52346   0.00000  Uiso   1.00
C927   C     0.20160   0.84931   0.95454   0.00000  Uiso   1.00
C928   C     0.13176   0.81724   0.54546   0.00000  Uiso   1.00
C929   C     0.09981   0.79463   0.97389   0.00000  Uiso   1.00
C930   C     0.23358   0.87186   0.52611   0.00000  Uiso   1.00
Cu931  Cu    0.16667   0.88022   0.75000   0.00000  Uiso   1.00
Cu932  Cu    0.16667   0.78645   0.75000   0.00000  Uiso   1.00
N933   N     0.16667   0.95069   0.75000   0.00000  Uiso   1.00
N934   N     0.16667   0.71598   0.75000   0.00000  Uiso   1.00
O935   O     0.10655   0.87291   0.75000   0.00000  Uiso   1.00
O936   O     0.22679   0.79375   0.75001   0.00000  Uiso   1.00
O937   O     0.22679   0.87291   0.75001   0.00000  Uiso   1.00
O938   O     0.10655   0.79375   0.75000   0.00000  Uiso   1.00
O939   O     0.16666   0.87293   0.68513   0.00000  Uiso   1.00
O940   O     0.16668   0.79373   0.81487   0.00000  Uiso   1.00
O941   O     0.16668   0.87293   0.81487   0.00000  Uiso   1.00
O942   O     0.16666   0.79373   0.68513   0.00000  Uiso   1.00
Br943  Br    0.25433   0.83492   0.87870   0.00000  Uiso   1.00
Br944  Br    0.07901   0.83186   0.62126   0.00000  Uiso   1.00
Br945  Br    0.07922   0.82689   0.86961   0.00000  Uiso   1.00
Br946  Br    0.25415   0.83965   0.63043   0.00000  Uiso   1.00
C947   C     0.06976   0.76601   0.94998   0.00000  Uiso   1.00
N948   N     0.04574   0.74286   0.93124   0.00000  Uiso   1.00
C949   C     0.26360   0.90049   0.55003   0.00000  Uiso   1.00
N950   N     0.28759   0.92367   0.56876   0.00000  Uiso   1.00
Br951  Br    0.06332   0.75137   0.54896   0.00000  Uiso   1.00
Br952  Br    0.26992   0.91530   0.95107   0.00000  Uiso   1.00
Br953  Br    0.04496   0.73292   0.77560   0.00000  Uiso   1.00
Br954  Br    0.28838   0.93374   0.72439   0.00000  Uiso   1.00
Br955  Br    0.28836   0.73317   0.72350   0.00000  Uiso   1.00
Br956  Br    0.04497   0.93350   0.77651   0.00000  Uiso   1.00
Br957  Br    0.10530   0.72251   0.67836   0.00000  Uiso   1.00
Br958  Br    0.22804   0.94416   0.82164   0.00000  Uiso   1.00
Br959  Br    0.22820   0.72269   0.82151   0.00000  Uiso   1.00
Br960  Br    0.10513   0.94398   0.67850   0.00000  Uiso   1.00
C961   C     0.42092   0.83334   0.75336   0.00000  Uiso   1.00
C962   C     0.57908   0.83333   0.74664   0.00000  Uiso   1.00
C963   C     0.43363   0.79393   0.52065   0.00000  Uiso   1.00
C964   C     0.56640   0.87261   0.97936   0.00000  Uiso   1.00
C965   C     0.35429   0.79099   0.75508   0.00000  Uiso   1.00
C966   C     0.64572   0.87568   0.74492   0.00000  Uiso   1.00
C967   C     0.64574   0.79103   0.74453   0.00000  Uiso   1.00
C968   C     0.35426   0.87563   0.75548   0.00000  Uiso   1.00
C969   C     0.62391   0.83335   0.74359   0.00000  Uiso   1.00
C970   C     0.37609   0.83331   0.75642   0.00000  Uiso   1.00
C971   C     0.47491   0.69130   0.72070   0.00000  Uiso   1.00
C972   C     0.52509   0.97537   0.77930   0.00000  Uiso   1.00
C973   C     0.52511   0.69136   0.77929   0.00000  Uiso   1.00
C974   C     0.47489   0.97531   0.72071   0.00000  Uiso   1.00
C975   C     0.49991   0.83332   0.66461   0.00000  Uiso   1.00
C976   C     0.50009   0.83335   0.83539   0.00000  Uiso   1.00
C977   C     0.53638   0.84253   0.90821   0.00000  Uiso   1.00
C978   C     0.46363   0.82412   0.59178   0.00000  Uiso   1.00
C979   C     0.49997   0.83337   0.88367   0.00000  Uiso   1.00
C980   C     0.50005   0.83327   0.61633   0.00000  Uiso   1.00
C981   C     0.46352   0.82388   0.90487   0.00000  Uiso   1.00
C982   C     0.53651   0.84266   0.59514   0.00000  Uiso   1.00
C983   C     0.46477   0.81748   0.95153   0.00000  Uiso   1.00
C984   C     0.53528   0.84901   0.54848   0.00000  Uiso   1.00
C985   C     0.49995   0.83329   0.97654   0.00000  Uiso   1.00
C986   C     0.50010   0.83321   0.52346   0.00000  Uiso   1.00
C987   C     0.53494   0.84931   0.95454   0.00000  Uiso   1.00
C988   C     0.46509   0.81724   0.54546   0.00000  Uiso   1.00
C989   C     0.43314   0.79463   0.97389   0.00000  Uiso   1.00
C990   C     0.56691   0.87186   0.52611   0.00000  Uiso   1.00
Cu991  Cu    0.50000   0.88022   0.75000   0.00000  Uiso   1.00
Cu992  Cu    0.50000   0.78645   0.75000   0.00000  Uiso   1.00
N993   N     0.50000   0.95069   0.75000   0.00000  Uiso   1.00
N994   N     0.50000   0.71598   0.75000   0.00000  Uiso   1.00
O995   O     0.43988   0.87291   0.75000   0.00000  Uiso   1.00
O996   O     0.56012   0.79375   0.75001   0.00000  Uiso   1.00
O997   O     0.56012   0.87291   0.75001   0.00000  Uiso   1.00
O998   O     0.43988   0.79375   0.75000   0.00000  Uiso   1.00
O999   O     0.49999   0.87293   0.68513   0.00000  Uiso   1.00
O1000  O     0.50001   0.79373   0.81487   0.00000  Uiso   1.00
O1001  O     0.50001   0.87293   0.81487   0.00000  Uiso   1.00
O1002  O     0.49999   0.79373   0.68513   0.00000  Uiso   1.00
Br1003 Br    0.58766   0.83492   0.87870   0.00000  Uiso   1.00
Br1004 Br    0.41234   0.83186   0.62126   0.00000  Uiso   1.00
Br1005 Br    0.41256   0.82689   0.86961   0.00000  Uiso   1.00
Br1006 Br    0.58749   0.83965   0.63043   0.00000  Uiso   1.00
C1007  C     0.40309   0.76601   0.94998   0.00000  Uiso   1.00
N1008  N     0.37907   0.74286   0.93124   0.00000  Uiso   1.00
C1009  C     0.59693   0.90049   0.55003   0.00000  Uiso   1.00
N1010  N     0.62092   0.92367   0.56876   0.00000  Uiso   1.00
Br1011 Br    0.39666   0.75137   0.54896   0.00000  Uiso   1.00
Br1012 Br    0.60325   0.91530   0.95107   0.00000  Uiso   1.00
Br1013 Br    0.37829   0.73292   0.77560   0.00000  Uiso   1.00
Br1014 Br    0.62171   0.93374   0.72439   0.00000  Uiso   1.00
Br1015 Br    0.62170   0.73317   0.72350   0.00000  Uiso   1.00
Br1016 Br    0.37830   0.93350   0.77651   0.00000  Uiso   1.00
Br1017 Br    0.43863   0.72251   0.67836   0.00000  Uiso   1.00
Br1018 Br    0.56137   0.94416   0.82164   0.00000  Uiso   1.00
Br1019 Br    0.56153   0.72269   0.82151   0.00000  Uiso   1.00
Br1020 Br    0.43846   0.94398   0.67850   0.00000  Uiso   1.00
C1021  C     0.75426   0.83334   0.75336   0.00000  Uiso   1.00
C1022  C     0.91241   0.83333   0.74664   0.00000  Uiso   1.00
C1023  C     0.76696   0.79393   0.52065   0.00000  Uiso   1.00
C1024  C     0.89974   0.87261   0.97936   0.00000  Uiso   1.00
C1025  C     0.68762   0.79099   0.75508   0.00000  Uiso   1.00
C1026  C     0.97905   0.87568   0.74492   0.00000  Uiso   1.00
C1027  C     0.97907   0.79103   0.74453   0.00000  Uiso   1.00
C1028  C     0.68760   0.87563   0.75548   0.00000  Uiso   1.00
C1029  C     0.95724   0.83335   0.74359   0.00000  Uiso   1.00
C1030  C     0.70943   0.83331   0.75642   0.00000  Uiso   1.00
C1031  C     0.80824   0.69130   0.72070   0.00000  Uiso   1.00
C1032  C     0.85843   0.97537   0.77930   0.00000  Uiso   1.00
C1033  C     0.85845   0.69136   0.77929   0.00000  Uiso   1.00
C1034  C     0.80822   0.97531   0.72071   0.00000  Uiso   1.00
C1035  C     0.83324   0.83332   0.66461   0.00000  Uiso   1.00
C1036  C     0.83343   0.83335   0.83539   0.00000  Uiso   1.00
C1037  C     0.86971   0.84253   0.90821   0.00000  Uiso   1.00
C1038  C     0.79697   0.82412   0.59178   0.00000  Uiso   1.00
C1039  C     0.83330   0.83337   0.88367   0.00000  Uiso   1.00
C1040  C     0.83338   0.83327   0.61633   0.00000  Uiso   1.00
C1041  C     0.79686   0.82388   0.90487   0.00000  Uiso   1.00
C1042  C     0.86984   0.84266   0.59514   0.00000  Uiso   1.00
C1043  C     0.79811   0.81748   0.95153   0.00000  Uiso   1.00
C1044  C     0.86861   0.84901   0.54848   0.00000  Uiso   1.00
C1045  C     0.83328   0.83329   0.97654   0.00000  Uiso   1.00
C1046  C     0.83343   0.83321   0.52346   0.00000  Uiso   1.00
C1047  C     0.86827   0.84931   0.95454   0.00000  Uiso   1.00
C1048  C     0.79843   0.81724   0.54546   0.00000  Uiso   1.00
C1049  C     0.76647   0.79463   0.97389   0.00000  Uiso   1.00
C1050  C     0.90024   0.87186   0.52611   0.00000  Uiso   1.00
Cu1051 Cu    0.83333   0.88022   0.75000   0.00000  Uiso   1.00
Cu1052 Cu    0.83333   0.78645   0.75000   0.00000  Uiso   1.00
N1053  N     0.83333   0.95069   0.75000   0.00000  Uiso   1.00
N1054  N     0.83333   0.71598   0.75000   0.00000  Uiso   1.00
O1055  O     0.77321   0.87291   0.75000   0.00000  Uiso   1.00
O1056  O     0.89345   0.79375   0.75001   0.00000  Uiso   1.00
O1057  O     0.89345   0.87291   0.75001   0.00000  Uiso   1.00
O1058  O     0.77321   0.79375   0.75000   0.00000  Uiso   1.00
O1059  O     0.83332   0.87293   0.68513   0.00000  Uiso   1.00
O1060  O     0.83334   0.79373   0.81487   0.00000  Uiso   1.00
O1061  O     0.83334   0.87293   0.81487   0.00000  Uiso   1.00
O1062  O     0.83332   0.79373   0.68513   0.00000  Uiso   1.00
Br1063 Br    0.92100   0.83492   0.87870   0.00000  Uiso   1.00
Br1064 Br    0.74567   0.83186   0.62126   0.00000  Uiso   1.00
Br1065 Br    0.74589   0.82689   0.86961   0.00000  Uiso   1.00
Br1066 Br    0.92082   0.83965   0.63043   0.00000  Uiso   1.00
C1067  C     0.73642   0.76601   0.94998   0.00000  Uiso   1.00
N1068  N     0.71240   0.74286   0.93124   0.00000  Uiso   1.00
C1069  C     0.93027   0.90049   0.55003   0.00000  Uiso   1.00
N1070  N     0.95426   0.92367   0.56876   0.00000  Uiso   1.00
Br1071 Br    0.72999   0.75137   0.54896   0.00000  Uiso   1.00
Br1072 Br    0.93659   0.91530   0.95107   0.00000  Uiso   1.00
Br1073 Br    0.71162   0.73292   0.77560   0.00000  Uiso   1.00
Br1074 Br    0.95505   0.93374   0.72439   0.00000  Uiso   1.00
Br1075 Br    0.95503   0.73317   0.72350   0.00000  Uiso   1.00
Br1076 Br    0.71164   0.93350   0.77651   0.00000  Uiso   1.00
Br1077 Br    0.77196   0.72251   0.67836   0.00000  Uiso   1.00
Br1078 Br    0.89471   0.94416   0.82164   0.00000  Uiso   1.00
Br1079 Br    0.89487   0.72269   0.82151   0.00000  Uiso   1.00
Br1080 Br    0.77179   0.94398   0.67850   0.00000  Uiso   1.00
loop_
_geom_bond_atom_site_label_1
_geom_bond_atom_site_label_2
_geom_bond_distance
_geom_bond_site_symmetry_2
_ccdc_geom_bond_type
C1     O38     1.304   .     A
C1     O35     1.305   .     A
C1     C10     1.470   .     S
C2     O37     1.304   .     A
C2     O36     1.305   .     A
C2     C9      1.470   .     S
C3     C28     1.414   .     A
C3     Br51    1.943   .     S
C3     C569    1.405   1_554 S
C4     Br52    1.943   .     S
C4     C27     1.414   .     A
C4     C570    1.405   .     S
C5     Br53    1.939   .     S
C5     C10     1.413   .     A
C5     C127    1.391   1_455 S
C6     C9      1.413   .     A
C6     Br54    1.939   .     S
C6     C68     1.391   .     S
C7     Br55    1.939   .     S
C7     C9      1.413   .     A
C7     C65     1.391   .     S
C8     Br56    1.939   .     S
C8     C10     1.413   .     A
C8     C126    1.391   1_455 S
C11    Br57    1.926   .     S
C11    N34     1.376   .     A
C11    C374    1.422   1_545 S
C12    Br58    1.926   .     S
C12    N33     1.376   .     A
C12    C193    1.422   .     S
C13    Br59    1.927   .     S
C13    N34     1.376   .     A
C13    C372    1.422   1_545 S
C14    N33     1.376   .     A
C14    Br60    1.927   .     S
C14    C191    1.422   .     S
C15    O39     1.298   .     A
C15    C20     1.451   .     S
C15    O42     1.298   .     A
C16    C19     1.451   .     S
C16    O40     1.298   .     A
C16    O41     1.298   .     A
C17    C27     1.408   .     A
C17    Br43    1.939   .     S
C17    C19     1.398   .     A
C18    C20     1.398   .     A
C18    Br44    1.939   .     S
C18    C28     1.409   .     A
C19    C21     1.400   .     A
C20    C22     1.400   .     A
C21    Br45    1.937   .     S
C21    C23     1.413   .     A
C22    C24     1.413   .     A
C22    Br46    1.938   .     S
C23    C29     1.418   .     A
C23    C25     1.421   .     A
C24    C26     1.421   .     A
C24    C30     1.418   .     A
C25    C27     1.421   .     A
C25    C566    1.410   .     S
C26    C28     1.421   .     A
C26    C565    1.410   1_554 S
C29    C47     1.450   .     S
C29    C543    1.405   .     S
C30    C49     1.449   .     S
C30    C544    1.405   1_554 S
Cu31   N33     2.032   .     S
Cu31   O37     1.974   .     S
Cu31   O35     1.974   .     S
Cu31   O41     1.961   .     S
Cu31   Cu32    2.704   .     S
Cu31   O39     1.960   .     S
Cu32   O38     1.974   .     S
Cu32   O40     1.960   .     S
Cu32   O36     1.974   .     S
Cu32   O42     1.961   .     S
Cu32   N34     2.032   .     S
C47    N48     1.158   .     T
C49    N50     1.158   .     T
C61    O98     1.304   .     A
C61    O95     1.305   .     A
C61    C70     1.470   .     S
C62    O97     1.304   .     A
C62    O96     1.305   .     A
C62    C69     1.470   .     S
C63    C88     1.414   .     A
C63    Br111   1.943   .     S
C63    C629    1.405   1_554 S
C64    Br112   1.943   .     S
C64    C87     1.414   .     A
C64    C630    1.405   .     S
C65    Br113   1.939   .     S
C65    C70     1.413   .     A
C66    C69     1.413   .     A
C66    Br114   1.939   .     S
C66    C128    1.391   .     S
C67    Br115   1.939   .     S
C67    C69     1.413   .     A
C67    C125    1.391   .     S
C68    Br116   1.939   .     S
C68    C70     1.413   .     A
C71    Br117   1.926   .     S
C71    N94     1.376   .     A
C71    C434    1.422   1_545 S
C72    Br118   1.926   .     S
C72    N93     1.376   .     A
C72    C253    1.422   .     S
C73    Br119   1.927   .     S
C73    N94     1.376   .     A
C73    C432    1.422   1_545 S
C74    N93     1.376   .     A
C74    Br120   1.927   .     S
C74    C251    1.422   .     S
C75    O99     1.298   .     A
C75    C80     1.451   .     S
C75    O102    1.298   .     A
C76    C79     1.451   .     S
C76    O100    1.298   .     A
C76    O101    1.298   .     A
C77    C87     1.408   .     A
C77    Br103   1.939   .     S
C77    C79     1.398   .     A
C78    C80     1.398   .     A
C78    Br104   1.939   .     S
C78    C88     1.409   .     A
C79    C81     1.400   .     A
C80    C82     1.400   .     A
C81    Br105   1.937   .     S
C81    C83     1.413   .     A
C82    C84     1.413   .     A
C82    Br106   1.938   .     S
C83    C89     1.418   .     A
C83    C85     1.421   .     A
C84    C86     1.421   .     A
C84    C90     1.418   .     A
C85    C87     1.421   .     A
C85    C626    1.410   .     S
C86    C88     1.421   .     A
C86    C625    1.410   1_554 S
C89    C107    1.450   .     S
C89    C603    1.405   .     S
C90    C109    1.449   .     S
C90    C604    1.405   1_554 S
Cu91   N93     2.032   .     S
Cu91   O97     1.974   .     S
Cu91   O95     1.974   .     S
Cu91   O101    1.961   .     S
Cu91   Cu92    2.704   .     S
Cu91   O99     1.960   .     S
Cu92   O98     1.974   .     S
Cu92   O100    1.960   .     S
Cu92   O96     1.974   .     S
Cu92   O102    1.961   .     S
Cu92   N94     2.032   .     S
C107   N108    1.158   .     T
C109   N110    1.158   .     T
C121   O158    1.304   .     A
C121   O155    1.305   .     A
C121   C130    1.470   .     S
C122   O157    1.304   .     A
C122   O156    1.305   .     A
C122   C129    1.470   .     S
C123   C148    1.414   .     A
C123   Br171   1.943   .     S
C123   C689    1.405   1_554 S
C124   Br172   1.943   .     S
C124   C147    1.414   .     A
C124   C690    1.405   .     S
C125   Br173   1.939   .     S
C125   C130    1.413   .     A
C126   C129    1.413   .     A
C126   Br174   1.939   .     S
C126   C8      1.391   1_655 S
C127   Br175   1.939   .     S
C127   C129    1.413   .     A
C127   C5      1.391   1_655 S
C128   Br176   1.939   .     S
C128   C130    1.413   .     A
C131   Br177   1.926   .     S
C131   N154    1.376   .     A
C131   C494    1.422   1_545 S
C132   Br178   1.926   .     S
C132   N153    1.376   .     A
C132   C313    1.422   .     S
C133   Br179   1.927   .     S
C133   N154    1.376   .     A
C133   C492    1.422   1_545 S
C134   N153    1.376   .     A
C134   Br180   1.927   .     S
C134   C311    1.422   .     S
C135   O159    1.298   .     A
C135   C140    1.451   .     S
C135   O162    1.298   .     A
C136   C139    1.451   .     S
C136   O160    1.298   .     A
C136   O161    1.298   .     A
C137   C147    1.408   .     A
C137   Br163   1.939   .     S
C137   C139    1.398   .     A
C138   C140    1.398   .     A
C138   Br164   1.939   .     S
C138   C148    1.409   .     A
C139   C141    1.400   .     A
C140   C142    1.400   .     A
C141   Br165   1.937   .     S
C141   C143    1.413   .     A
C142   C144    1.413   .     A
C142   Br166   1.938   .     S
C143   C149    1.418   .     A
C143   C145    1.421   .     A
C144   C146    1.421   .     A
C144   C150    1.418   .     A
C145   C147    1.421   .     A
C145   C686    1.410   .     S
C146   C148    1.421   .     A
C146   C685    1.410   1_554 S
C149   C167    1.450   .     S
C149   C663    1.405   .     S
C150   C169    1.449   .     S
C150   C664    1.405   1_554 S
Cu151  N153    2.032   .     S
Cu151  O157    1.974   .     S
Cu151  O155    1.974   .     S
Cu151  O161    1.961   .     S
Cu151  Cu152   2.704   .     S
Cu151  O159    1.960   .     S
Cu152  O158    1.974   .     S
Cu152  O160    1.960   .     S
Cu152  O156    1.974   .     S
Cu152  O162    1.961   .     S
Cu152  N154    2.032   .     S
C167   N168    1.158   .     T
C169   N170    1.158   .     T
C181   O218    1.304   .     A
C181   O215    1.305   .     A
C181   C190    1.470   .     S
C182   O217    1.304   .     A
C182   O216    1.305   .     A
C182   C189    1.470   .     S
C183   C208    1.414   .     A
C183   Br231   1.943   .     S
C183   C749    1.405   1_554 S
C184   Br232   1.943   .     S
C184   C207    1.414   .     A
C184   C750    1.405   .     S
C185   Br233   1.939   .     S
C185   C190    1.413   .     A
C185   C307    1.391   1_455 S
C186   C189    1.413   .     A
C186   Br234   1.939   .     S
C186   C248    1.391   .     S
C187   Br235   1.939   .     S
C187   C189    1.413   .     A
C187   C245    1.391   .     S
C188   Br236   1.939   .     S
C188   C190    1.413   .     A
C188   C306    1.391   1_455 S
C191   Br237   1.926   .     S
C191   N214    1.376   .     A
C192   Br238   1.926   .     S
C192   N213    1.376   .     A
C192   C373    1.422   .     S
C193   Br239   1.927   .     S
C193   N214    1.376   .     A
C194   N213    1.376   .     A
C194   Br240   1.927   .     S
C194   C371    1.422   .     S
C195   O219    1.298   .     A
C195   C200    1.451   .     S
C195   O222    1.298   .     A
C196   C199    1.451   .     S
C196   O220    1.298   .     A
C196   O221    1.298   .     A
C197   C207    1.408   .     A
C197   Br223   1.939   .     S
C197   C199    1.398   .     A
C198   C200    1.398   .     A
C198   Br224   1.939   .     S
C198   C208    1.409   .     A
C199   C201    1.400   .     A
C200   C202    1.400   .     A
C201   Br225   1.937   .     S
C201   C203    1.413   .     A
C202   C204    1.413   .     A
C202   Br226   1.938   .     S
C203   C209    1.418   .     A
C203   C205    1.421   .     A
C204   C206    1.421   .     A
C204   C210    1.418   .     A
C205   C207    1.421   .     A
C205   C746    1.410   .     S
C206   C208    1.421   .     A
C206   C745    1.410   1_554 S
C209   C227    1.450   .     S
C209   C723    1.405   .     S
C210   C229    1.449   .     S
C210   C724    1.405   1_554 S
Cu211  N213    2.032   .     S
Cu211  O217    1.974   .     S
Cu211  O215    1.974   .     S
Cu211  O221    1.961   .     S
Cu211  Cu212   2.704   .     S
Cu211  O219    1.960   .     S
Cu212  O218    1.974   .     S
Cu212  O220    1.960   .     S
Cu212  O216    1.974   .     S
Cu212  O222    1.961   .     S
Cu212  N214    2.032   .     S
C227   N228    1.158   .     T
C229   N230    1.158   .     T
C241   O278    1.304   .     A
C241   O275    1.305   .     A
C241   C250    1.470   .     S
C242   O277    1.304   .     A
C242   O276    1.305   .     A
C242   C249    1.470   .     S
C243   C268    1.414   .     A
C243   Br291   1.943   .     S
C243   C809    1.405   1_554 S
C244   Br292   1.943   .     S
C244   C267    1.414   .     A
C244   C810    1.405   .     S
C245   Br293   1.939   .     S
C245   C250    1.413   .     A
C246   C249    1.413   .     A
C246   Br294   1.939   .     S
C246   C308    1.391   .     S
C247   Br295   1.939   .     S
C247   C249    1.413   .     A
C247   C305    1.391   .     S
C248   Br296   1.939   .     S
C248   C250    1.413   .     A
C251   Br297   1.926   .     S
C251   N274    1.376   .     A
C252   Br298   1.926   .     S
C252   N273    1.376   .     A
C252   C433    1.422   .     S
C253   Br299   1.927   .     S
C253   N274    1.376   .     A
C254   N273    1.376   .     A
C254   Br300   1.927   .     S
C254   C431    1.422   .     S
C255   O279    1.298   .     A
C255   C260    1.451   .     S
C255   O282    1.298   .     A
C256   C259    1.451   .     S
C256   O280    1.298   .     A
C256   O281    1.298   .     A
C257   C267    1.408   .     A
C257   Br283   1.939   .     S
C257   C259    1.398   .     A
C258   C260    1.398   .     A
C258   Br284   1.939   .     S
C258   C268    1.409   .     A
C259   C261    1.400   .     A
C260   C262    1.400   .     A
C261   Br285   1.937   .     S
C261   C263    1.413   .     A
C262   C264    1.413   .     A
C262   Br286   1.938   .     S
C263   C269    1.418   .     A
C263   C265    1.421   .     A
C264   C266    1.421   .     A
C264   C270    1.418   .     A
C265   C267    1.421   .     A
C265   C806    1.410   .     S
C266   C268    1.421   .     A
C266   C805    1.410   1_554 S
C269   C287    1.450   .     S
C269   C783    1.405   .     S
C270   C289    1.449   .     S
C270   C784    1.405   1_554 S
Cu271  N273    2.032   .     S
Cu271  O277    1.974   .     S
Cu271  O275    1.974   .     S
Cu271  O281    1.961   .     S
Cu271  Cu272   2.704   .     S
Cu271  O279    1.960   .     S
Cu272  O278    1.974   .     S
Cu272  O280    1.960   .     S
Cu272  O276    1.974   .     S
Cu272  O282    1.961   .     S
Cu272  N274    2.032   .     S
C287   N288    1.158   .     T
C289   N290    1.158   .     T
C301   O338    1.304   .     A
C301   O335    1.305   .     A
C301   C310    1.470   .     S
C302   O337    1.304   .     A
C302   O336    1.305   .     A
C302   C309    1.470   .     S
C303   C328    1.414   .     A
C303   Br351   1.943   .     S
C303   C869    1.405   1_554 S
C304   Br352   1.943   .     S
C304   C327    1.414   .     A
C304   C870    1.405   .     S
C305   Br353   1.939   .     S
C305   C310    1.413   .     A
C306   C309    1.413   .     A
C306   Br354   1.939   .     S
C306   C188    1.391   1_655 S
C307   Br355   1.939   .     S
C307   C309    1.413   .     A
C307   C185    1.391   1_655 S
C308   Br356   1.939   .     S
C308   C310    1.413   .     A
C311   Br357   1.926   .     S
C311   N334    1.376   .     A
C312   Br358   1.926   .     S
C312   N333    1.376   .     A
C312   C493    1.422   .     S
C313   Br359   1.927   .     S
C313   N334    1.376   .     A
C314   N333    1.376   .     A
C314   Br360   1.927   .     S
C314   C491    1.422   .     S
C315   O339    1.298   .     A
C315   C320    1.451   .     S
C315   O342    1.298   .     A
C316   C319    1.451   .     S
C316   O340    1.298   .     A
C316   O341    1.298   .     A
C317   C327    1.408   .     A
C317   Br343   1.939   .     S
C317   C319    1.398   .     A
C318   C320    1.398   .     A
C318   Br344   1.939   .     S
C318   C328    1.409   .     A
C319   C321    1.400   .     A
C320   C322    1.400   .     A
C321   Br345   1.937   .     S
C321   C323    1.413   .     A
C322   C324    1.413   .     A
C322   Br346   1.938   .     S
C323   C329    1.418   .     A
C323   C325    1.421   .     A
C324   C326    1.421   .     A
C324   C330    1.418   .     A
C325   C327    1.421   .     A
C325   C866    1.410   .     S
C326   C328    1.421   .     A
C326   C865    1.410   1_554 S
C329   C347    1.450   .     S
C329   C843    1.405   .     S
C330   C349    1.449   .     S
C330   C844    1.405   1_554 S
Cu331  N333    2.032   .     S
Cu331  O337    1.974   .     S
Cu331  O335    1.974   .     S
Cu331  O341    1.961   .     S
Cu331  Cu332   2.704   .     S
Cu331  O339    1.960   .     S
Cu332  O338    1.974   .     S
Cu332  O340    1.960   .     S
Cu332  O336    1.974   .     S
Cu332  O342    1.961   .     S
Cu332  N334    2.032   .     S
C347   N348    1.158   .     T
C349   N350    1.158   .     T
C361   O398    1.304   .     A
C361   O395    1.305   .     A
C361   C370    1.470   .     S
C362   O397    1.304   .     A
C362   O396    1.305   .     A
C362   C369    1.470   .     S
C363   C388    1.414   .     A
C363   Br411   1.943   .     S
C363   C929    1.405   1_554 S
C364   Br412   1.943   .     S
C364   C387    1.414   .     A
C364   C930    1.405   .     S
C365   Br413   1.939   .     S
C365   C370    1.413   .     A
C365   C487    1.391   1_455 S
C366   C369    1.413   .     A
C366   Br414   1.939   .     S
C366   C428    1.391   .     S
C367   Br415   1.939   .     S
C367   C369    1.413   .     A
C367   C425    1.391   .     S
C368   Br416   1.939   .     S
C368   C370    1.413   .     A
C368   C486    1.391   1_455 S
C371   Br417   1.926   .     S
C371   N394    1.376   .     A
C372   Br418   1.926   .     S
C372   N393    1.376   .     A
C372   C13     1.422   1_565 S
C373   Br419   1.927   .     S
C373   N394    1.376   .     A
C374   N393    1.376   .     A
C374   Br420   1.927   .     S
C374   C11     1.422   1_565 S
C375   O399    1.298   .     A
C375   C380    1.451   .     S
C375   O402    1.298   .     A
C376   C379    1.451   .     S
C376   O400    1.298   .     A
C376   O401    1.298   .     A
C377   C387    1.408   .     A
C377   Br403   1.939   .     S
C377   C379    1.398   .     A
C378   C380    1.398   .     A
C378   Br404   1.939   .     S
C378   C388    1.409   .     A
C379   C381    1.400   .     A
C380   C382    1.400   .     A
C381   Br405   1.937   .     S
C381   C383    1.413   .     A
C382   C384    1.413   .     A
C382   Br406   1.938   .     S
C383   C389    1.418   .     A
C383   C385    1.421   .     A
C384   C386    1.421   .     A
C384   C390    1.418   .     A
C385   C387    1.421   .     A
C385   C926    1.410   .     S
C386   C388    1.421   .     A
C386   C925    1.410   1_554 S
C389   C407    1.450   .     S
C389   C903    1.405   .     S
C390   C409    1.449   .     S
C390   C904    1.405   1_554 S
Cu391  N393    2.032   .     S
Cu391  O397    1.974   .     S
Cu391  O395    1.974   .     S
Cu391  O401    1.961   .     S
Cu391  Cu392   2.704   .     S
Cu391  O399    1.960   .     S
Cu392  O398    1.974   .     S
Cu392  O400    1.960   .     S
Cu392  O396    1.974   .     S
Cu392  O402    1.961   .     S
Cu392  N394    2.032   .     S
C407   N408    1.158   .     T
C409   N410    1.158   .     T
C421   O458    1.304   .     A
C421   O455    1.305   .     A
C421   C430    1.470   .     S
C422   O457    1.304   .     A
C422   O456    1.305   .     A
C422   C429    1.470   .     S
C423   C448    1.414   .     A
C423   Br471   1.943   .     S
C423   C989    1.405   1_554 S
C424   Br472   1.943   .     S
C424   C447    1.414   .     A
C424   C990    1.405   .     S
C425   Br473   1.939   .     S
C425   C430    1.413   .     A
C426   C429    1.413   .     A
C426   Br474   1.939   .     S
C426   C488    1.391   .     S
C427   Br475   1.939   .     S
C427   C429    1.413   .     A
C427   C485    1.391   .     S
C428   Br476   1.939   .     S
C428   C430    1.413   .     A
C431   Br477   1.926   .     S
C431   N454    1.376   .     A
C432   Br478   1.926   .     S
C432   N453    1.376   .     A
C432   C73     1.422   1_565 S
C433   Br479   1.927   .     S
C433   N454    1.376   .     A
C434   N453    1.376   .     A
C434   Br480   1.927   .     S
C434   C71     1.422   1_565 S
C435   O459    1.298   .     A
C435   C440    1.451   .     S
C435   O462    1.298   .     A
C436   C439    1.451   .     S
C436   O460    1.298   .     A
C436   O461    1.298   .     A
C437   C447    1.408   .     A
C437   Br463   1.939   .     S
C437   C439    1.398   .     A
C438   C440    1.398   .     A
C438   Br464   1.939   .     S
C438   C448    1.409   .     A
C439   C441    1.400   .     A
C440   C442    1.400   .     A
C441   Br465   1.937   .     S
C441   C443    1.413   .     A
C442   C444    1.413   .     A
C442   Br466   1.938   .     S
C443   C449    1.418   .     A
C443   C445    1.421   .     A
C444   C446    1.421   .     A
C444   C450    1.418   .     A
C445   C447    1.421   .     A
C445   C986    1.410   .     S
C446   C448    1.421   .     A
C446   C985    1.410   1_554 S
C449   C467    1.450   .     S
C449   C963    1.405   .     S
C450   C469    1.449   .     S
C450   C964    1.405   1_554 S
Cu451  N453    2.032   .     S
Cu451  O457    1.974   .     S
Cu451  O455    1.974   .     S
Cu451  O461    1.961   .     S
Cu451  Cu452   2.704   .     S
Cu451  O459    1.960   .     S
Cu452  O458    1.974   .     S
Cu452  O460    1.960   .     S
Cu452  O456    1.974   .     S
Cu452  O462    1.961   .     S
Cu452  N454    2.032   .     S
C467   N468    1.158   .     T
C469   N470    1.158   .     T
C481   O518    1.304   .     A
C481   O515    1.305   .     A
C481   C490    1.470   .     S
C482   O517    1.304   .     A
C482   O516    1.305   .     A
C482   C489    1.470   .     S
C483   C508    1.414   .     A
C483   Br531   1.943   .     S
C483   C1049   1.405   1_554 S
C484   Br532   1.943   .     S
C484   C507    1.414   .     A
C484   C1050   1.405   .     S
C485   Br533   1.939   .     S
C485   C490    1.413   .     A
C486   C489    1.413   .     A
C486   Br534   1.939   .     S
C486   C368    1.391   1_655 S
C487   Br535   1.939   .     S
C487   C489    1.413   .     A
C487   C365    1.391   1_655 S
C488   Br536   1.939   .     S
C488   C490    1.413   .     A
C491   Br537   1.926   .     S
C491   N514    1.376   .     A
C492   Br538   1.926   .     S
C492   N513    1.376   .     A
C492   C133    1.422   1_565 S
C493   Br539   1.927   .     S
C493   N514    1.376   .     A
C494   N513    1.376   .     A
C494   Br540   1.927   .     S
C494   C131    1.422   1_565 S
C495   O519    1.298   .     A
C495   C500    1.451   .     S
C495   O522    1.298   .     A
C496   C499    1.451   .     S
C496   O520    1.298   .     A
C496   O521    1.298   .     A
C497   C507    1.408   .     A
C497   Br523   1.939   .     S
C497   C499    1.398   .     A
C498   C500    1.398   .     A
C498   Br524   1.939   .     S
C498   C508    1.409   .     A
C499   C501    1.400   .     A
C500   C502    1.400   .     A
C501   Br525   1.937   .     S
C501   C503    1.413   .     A
C502   C504    1.413   .     A
C502   Br526   1.938   .     S
C503   C509    1.418   .     A
C503   C505    1.421   .     A
C504   C506    1.421   .     A
C504   C510    1.418   .     A
C505   C507    1.421   .     A
C505   C1046   1.410   .     S
C506   C508    1.421   .     A
C506   C1045   1.410   1_554 S
C509   C527    1.450   .     S
C509   C1023   1.405   .     S
C510   C529    1.449   .     S
C510   C1024   1.405   1_554 S
Cu511  N513    2.032   .     S
Cu511  O517    1.974   .     S
Cu511  O515    1.974   .     S
Cu511  O521    1.961   .     S
Cu511  Cu512   2.704   .     S
Cu511  O519    1.960   .     S
Cu512  O518    1.974   .     S
Cu512  O520    1.960   .     S
Cu512  O516    1.974   .     S
Cu512  O522    1.961   .     S
Cu512  N514    2.032   .     S
C527   N528    1.158   .     T
C529   N530    1.158   .     T
C541   O578    1.304   .     A
C541   O575    1.305   .     A
C541   C550    1.470   .     S
C542   O577    1.304   .     A
C542   O576    1.305   .     A
C542   C549    1.470   .     S
C543   C568    1.414   .     A
C543   Br591   1.943   .     S
C544   Br592   1.943   .     S
C544   C567    1.414   .     A
C544   C30     1.405   1_556 S
C545   Br593   1.939   .     S
C545   C550    1.413   .     A
C545   C667    1.391   1_455 S
C546   C549    1.413   .     A
C546   Br594   1.939   .     S
C546   C608    1.391   .     S
C547   Br595   1.939   .     S
C547   C549    1.413   .     A
C547   C605    1.391   .     S
C548   Br596   1.939   .     S
C548   C550    1.413   .     A
C548   C666    1.391   1_455 S
C551   Br597   1.926   .     S
C551   N574    1.376   .     A
C551   C914    1.422   1_545 S
C552   Br598   1.926   .     S
C552   N573    1.376   .     A
C552   C733    1.422   .     S
C553   Br599   1.927   .     S
C553   N574    1.376   .     A
C553   C912    1.422   1_545 S
C554   N573    1.376   .     A
C554   Br600   1.927   .     S
C554   C731    1.422   .     S
C555   O579    1.298   .     A
C555   C560    1.451   .     S
C555   O582    1.298   .     A
C556   C559    1.451   .     S
C556   O580    1.298   .     A
C556   O581    1.298   .     A
C557   C567    1.408   .     A
C557   Br583   1.939   .     S
C557   C559    1.398   .     A
C558   C560    1.398   .     A
C558   Br584   1.939   .     S
C558   C568    1.409   .     A
C559   C561    1.400   .     A
C560   C562    1.400   .     A
C561   Br585   1.937   .     S
C561   C563    1.413   .     A
C562   C564    1.413   .     A
C562   Br586   1.938   .     S
C563   C569    1.418   .     A
C563   C565    1.421   .     A
C564   C566    1.421   .     A
C564   C570    1.418   .     A
C565   C567    1.421   .     A
C565   C26     1.410   1_556 S
C566   C568    1.421   .     A
C569   C587    1.450   .     S
C569   C3      1.405   1_556 S
C570   C589    1.449   .     S
Cu571  N573    2.032   .     S
Cu571  O577    1.974   .     S
Cu571  O575    1.974   .     S
Cu571  O581    1.961   .     S
Cu571  Cu572   2.704   .     S
Cu571  O579    1.960   .     S
Cu572  O578    1.974   .     S
Cu572  O580    1.960   .     S
Cu572  O576    1.974   .     S
Cu572  O582    1.961   .     S
Cu572  N574    2.032   .     S
C587   N588    1.158   .     T
C589   N590    1.158   .     T
C601   O638    1.304   .     A
C601   O635    1.305   .     A
C601   C610    1.470   .     S
C602   O637    1.304   .     A
C602   O636    1.305   .     A
C602   C609    1.470   .     S
C603   C628    1.414   .     A
C603   Br651   1.943   .     S
C604   Br652   1.943   .     S
C604   C627    1.414   .     A
C604   C90     1.405   1_556 S
C605   Br653   1.939   .     S
C605   C610    1.413   .     A
C606   C609    1.413   .     A
C606   Br654   1.939   .     S
C606   C668    1.391   .     S
C607   Br655   1.939   .     S
C607   C609    1.413   .     A
C607   C665    1.391   .     S
C608   Br656   1.939   .     S
C608   C610    1.413   .     A
C611   Br657   1.926   .     S
C611   N634    1.376   .     A
C611   C974    1.422   1_545 S
C612   Br658   1.926   .     S
C612   N633    1.376   .     A
C612   C793    1.422   .     S
C613   Br659   1.927   .     S
C613   N634    1.376   .     A
C613   C972    1.422   1_545 S
C614   N633    1.376   .     A
C614   Br660   1.927   .     S
C614   C791    1.422   .     S
C615   O639    1.298   .     A
C615   C620    1.451   .     S
C615   O642    1.298   .     A
C616   C619    1.451   .     S
C616   O640    1.298   .     A
C616   O641    1.298   .     A
C617   C627    1.408   .     A
C617   Br643   1.939   .     S
C617   C619    1.398   .     A
C618   C620    1.398   .     A
C618   Br644   1.939   .     S
C618   C628    1.409   .     A
C619   C621    1.400   .     A
C620   C622    1.400   .     A
C621   Br645   1.937   .     S
C621   C623    1.413   .     A
C622   C624    1.413   .     A
C622   Br646   1.938   .     S
C623   C629    1.418   .     A
C623   C625    1.421   .     A
C624   C626    1.421   .     A
C624   C630    1.418   .     A
C625   C627    1.421   .     A
C625   C86     1.410   1_556 S
C626   C628    1.421   .     A
C629   C647    1.450   .     S
C629   C63     1.405   1_556 S
C630   C649    1.449   .     S
Cu631  N633    2.032   .     S
Cu631  O637    1.974   .     S
Cu631  O635    1.974   .     S
Cu631  O641    1.961   .     S
Cu631  Cu632   2.704   .     S
Cu631  O639    1.960   .     S
Cu632  O638    1.974   .     S
Cu632  O640    1.960   .     S
Cu632  O636    1.974   .     S
Cu632  O642    1.961   .     S
Cu632  N634    2.032   .     S
C647   N648    1.158   .     T
C649   N650    1.158   .     T
C661   O698    1.304   .     A
C661   O695    1.305   .     A
C661   C670    1.470   .     S
C662   O697    1.304   .     A
C662   O696    1.305   .     A
C662   C669    1.470   .     S
C663   C688    1.414   .     A
C663   Br711   1.943   .     S
C664   Br712   1.943   .     S
C664   C687    1.414   .     A
C664   C150    1.405   1_556 S
C665   Br713   1.939   .     S
C665   C670    1.413   .     A
C666   C669    1.413   .     A
C666   Br714   1.939   .     S
C666   C548    1.391   1_655 S
C667   Br715   1.939   .     S
C667   C669    1.413   .     A
C667   C545    1.391   1_655 S
C668   Br716   1.939   .     S
C668   C670    1.413   .     A
C671   Br717   1.926   .     S
C671   N694    1.376   .     A
C671   C1034   1.422   1_545 S
C672   Br718   1.926   .     S
C672   N693    1.376   .     A
C672   C853    1.422   .     S
C673   Br719   1.927   .     S
C673   N694    1.376   .     A
C673   C1032   1.422   1_545 S
C674   N693    1.376   .     A
C674   Br720   1.927   .     S
C674   C851    1.422   .     S
C675   O699    1.298   .     A
C675   C680    1.451   .     S
C675   O702    1.298   .     A
C676   C679    1.451   .     S
C676   O700    1.298   .     A
C676   O701    1.298   .     A
C677   C687    1.408   .     A
C677   Br703   1.939   .     S
C677   C679    1.398   .     A
C678   C680    1.398   .     A
C678   Br704   1.939   .     S
C678   C688    1.409   .     A
C679   C681    1.400   .     A
C680   C682    1.400   .     A
C681   Br705   1.937   .     S
C681   C683    1.413   .     A
C682   C684    1.413   .     A
C682   Br706   1.938   .     S
C683   C689    1.418   .     A
C683   C685    1.421   .     A
C684   C686    1.421   .     A
C684   C690    1.418   .     A
C685   C687    1.421   .     A
C685   C146    1.410   1_556 S
C686   C688    1.421   .     A
C689   C707    1.450   .     S
C689   C123    1.405   1_556 S
C690   C709    1.449   .     S
Cu691  N693    2.032   .     S
Cu691  O697    1.974   .     S
Cu691  O695    1.974   .     S
Cu691  O701    1.961   .     S
Cu691  Cu692   2.704   .     S
Cu691  O699    1.960   .     S
Cu692  O698    1.974   .     S
Cu692  O700    1.960   .     S
Cu692  O696    1.974   .     S
Cu692  O702    1.961   .     S
Cu692  N694    2.032   .     S
C707   N708    1.158   .     T
C709   N710    1.158   .     T
C721   O758    1.304   .     A
C721   O755    1.305   .     A
C721   C730    1.470   .     S
C722   O757    1.304   .     A
C722   O756    1.305   .     A
C722   C729    1.470   .     S
C723   C748    1.414   .     A
C723   Br771   1.943   .     S
C724   Br772   1.943   .     S
C724   C747    1.414   .     A
C724   C210    1.405   1_556 S
C725   Br773   1.939   .     S
C725   C730    1.413   .     A
C725   C847    1.391   1_455 S
C726   C729    1.413   .     A
C726   Br774   1.939   .     S
C726   C788    1.391   .     S
C727   Br775   1.939   .     S
C727   C729    1.413   .     A
C727   C785    1.391   .     S
C728   Br776   1.939   .     S
C728   C730    1.413   .     A
C728   C846    1.391   1_455 S
C731   Br777   1.926   .     S
C731   N754    1.376   .     A
C732   Br778   1.926   .     S
C732   N753    1.376   .     A
C732   C913    1.422   .     S
C733   Br779   1.927   .     S
C733   N754    1.376   .     A
C734   N753    1.376   .     A
C734   Br780   1.927   .     S
C734   C911    1.422   .     S
C735   O759    1.298   .     A
C735   C740    1.451   .     S
C735   O762    1.298   .     A
C736   C739    1.451   .     S
C736   O760    1.298   .     A
C736   O761    1.298   .     A
C737   C747    1.408   .     A
C737   Br763   1.939   .     S
C737   C739    1.398   .     A
C738   C740    1.398   .     A
C738   Br764   1.939   .     S
C738   C748    1.409   .     A
C739   C741    1.400   .     A
C740   C742    1.400   .     A
C741   Br765   1.937   .     S
C741   C743    1.413   .     A
C742   C744    1.413   .     A
C742   Br766   1.938   .     S
C743   C749    1.418   .     A
C743   C745    1.421   .     A
C744   C746    1.421   .     A
C744   C750    1.418   .     A
C745   C747    1.421   .     A
C745   C206    1.410   1_556 S
C746   C748    1.421   .     A
C749   C767    1.450   .     S
C749   C183    1.405   1_556 S
C750   C769    1.449   .     S
Cu751  N753    2.032   .     S
Cu751  O757    1.974   .     S
Cu751  O755    1.974   .     S
Cu751  O761    1.961   .     S
Cu751  Cu752   2.704   .     S
Cu751  O759    1.960   .     S
Cu752  O758    1.974   .     S
Cu752  O760    1.960   .     S
Cu752  O756    1.974   .     S
Cu752  O762    1.961   .     S
Cu752  N754    2.032   .     S
C767   N768    1.158   .     T
C769   N770    1.158   .     T
C781   O818    1.304   .     A
C781   O815    1.305   .     A
C781   C790    1.470   .     S
C782   O817    1.304   .     A
C782   O816    1.305   .     A
C782   C789    1.470   .     S
C783   C808    1.414   .     A
C783   Br831   1.943   .     S
C784   Br832   1.943   .     S
C784   C807    1.414   .     A
C784   C270    1.405   1_556 S
C785   Br833   1.939   .     S
C785   C790    1.413   .     A
C786   C789    1.413   .     A
C786   Br834   1.939   .     S
C786   C848    1.391   .     S
C787   Br835   1.939   .     S
C787   C789    1.413   .     A
C787   C845    1.391   .     S
C788   Br836   1.939   .     S
C788   C790    1.413   .     A
C791   Br837   1.926   .     S
C791   N814    1.376   .     A
C792   Br838   1.926   .     S
C792   N813    1.376   .     A
C792   C973    1.422   .     S
C793   Br839   1.927   .     S
C793   N814    1.376   .     A
C794   N813    1.376   .     A
C794   Br840   1.927   .     S
C794   C971    1.422   .     S
C795   O819    1.298   .     A
C795   C800    1.451   .     S
C795   O822    1.298   .     A
C796   C799    1.451   .     S
C796   O820    1.298   .     A
C796   O821    1.298   .     A
C797   C807    1.408   .     A
C797   Br823   1.939   .     S
C797   C799    1.398   .     A
C798   C800    1.398   .     A
C798   Br824   1.939   .     S
C798   C808    1.409   .     A
C799   C801    1.400   .     A
C800   C802    1.400   .     A
C801   Br825   1.937   .     S
C801   C803    1.413   .     A
C802   C804    1.413   .     A
C802   Br826   1.938   .     S
C803   C809    1.418   .     A
C803   C805    1.421   .     A
C804   C806    1.421   .     A
C804   C810    1.418   .     A
C805   C807    1.421   .     A
C805   C266    1.410   1_556 S
C806   C808    1.421   .     A
C809   C827    1.450   .     S
C809   C243    1.405   1_556 S
C810   C829    1.449   .     S
Cu811  N813    2.032   .     S
Cu811  O817    1.974   .     S
Cu811  O815    1.974   .     S
Cu811  O821    1.961   .     S
Cu811  Cu812   2.704   .     S
Cu811  O819    1.960   .     S
Cu812  O818    1.974   .     S
Cu812  O820    1.960   .     S
Cu812  O816    1.974   .     S
Cu812  O822    1.961   .     S
Cu812  N814    2.032   .     S
C827   N828    1.158   .     T
C829   N830    1.158   .     T
C841   O878    1.304   .     A
C841   O875    1.305   .     A
C841   C850    1.470   .     S
C842   O877    1.304   .     A
C842   O876    1.305   .     A
C842   C849    1.470   .     S
C843   C868    1.414   .     A
C843   Br891   1.943   .     S
C844   Br892   1.943   .     S
C844   C867    1.414   .     A
C844   C330    1.405   1_556 S
C845   Br893   1.939   .     S
C845   C850    1.413   .     A
C846   C849    1.413   .     A
C846   Br894   1.939   .     S
C846   C728    1.391   1_655 S
C847   Br895   1.939   .     S
C847   C849    1.413   .     A
C847   C725    1.391   1_655 S
C848   Br896   1.939   .     S
C848   C850    1.413   .     A
C851   Br897   1.926   .     S
C851   N874    1.376   .     A
C852   Br898   1.926   .     S
C852   N873    1.376   .     A
C852   C1033   1.422   .     S
C853   Br899   1.927   .     S
C853   N874    1.376   .     A
C854   N873    1.376   .     A
C854   Br900   1.927   .     S
C854   C1031   1.422   .     S
C855   O879    1.298   .     A
C855   C860    1.451   .     S
C855   O882    1.298   .     A
C856   C859    1.451   .     S
C856   O880    1.298   .     A
C856   O881    1.298   .     A
C857   C867    1.408   .     A
C857   Br883   1.939   .     S
C857   C859    1.398   .     A
C858   C860    1.398   .     A
C858   Br884   1.939   .     S
C858   C868    1.409   .     A
C859   C861    1.400   .     A
C860   C862    1.400   .     A
C861   Br885   1.937   .     S
C861   C863    1.413   .     A
C862   C864    1.413   .     A
C862   Br886   1.938   .     S
C863   C869    1.418   .     A
C863   C865    1.421   .     A
C864   C866    1.421   .     A
C864   C870    1.418   .     A
C865   C867    1.421   .     A
C865   C326    1.410   1_556 S
C866   C868    1.421   .     A
C869   C887    1.450   .     S
C869   C303    1.405   1_556 S
C870   C889    1.449   .     S
Cu871  N873    2.032   .     S
Cu871  O877    1.974   .     S
Cu871  O875    1.974   .     S
Cu871  O881    1.961   .     S
Cu871  Cu872   2.704   .     S
Cu871  O879    1.960   .     S
Cu872  O878    1.974   .     S
Cu872  O880    1.960   .     S
Cu872  O876    1.974   .     S
Cu872  O882    1.961   .     S
Cu872  N874    2.032   .     S
C887   N888    1.158   .     T
C889   N890    1.158   .     T
C901   O938    1.304   .     A
C901   O935    1.305   .     A
C901   C910    1.470   .     S
C902   O937    1.304   .     A
C902   O936    1.305   .     A
C902   C909    1.470   .     S
C903   C928    1.414   .     A
C903   Br951   1.943   .     S
C904   Br952   1.943   .     S
C904   C927    1.414   .     A
C904   C390    1.405   1_556 S
C905   Br953   1.939   .     S
C905   C910    1.413   .     A
C905   C1027   1.391   1_455 S
C906   C909    1.413   .     A
C906   Br954   1.939   .     S
C906   C968    1.391   .     S
C907   Br955   1.939   .     S
C907   C909    1.413   .     A
C907   C965    1.391   .     S
C908   Br956   1.939   .     S
C908   C910    1.413   .     A
C908   C1026   1.391   1_455 S
C911   Br957   1.926   .     S
C911   N934    1.376   .     A
C912   Br958   1.926   .     S
C912   N933    1.376   .     A
C912   C553    1.422   1_565 S
C913   Br959   1.927   .     S
C913   N934    1.376   .     A
C914   N933    1.376   .     A
C914   Br960   1.927   .     S
C914   C551    1.422   1_565 S
C915   O939    1.298   .     A
C915   C920    1.451   .     S
C915   O942    1.298   .     A
C916   C919    1.451   .     S
C916   O940    1.298   .     A
C916   O941    1.298   .     A
C917   C927    1.408   .     A
C917   Br943   1.939   .     S
C917   C919    1.398   .     A
C918   C920    1.398   .     A
C918   Br944   1.939   .     S
C918   C928    1.409   .     A
C919   C921    1.400   .     A
C920   C922    1.400   .     A
C921   Br945   1.937   .     S
C921   C923    1.413   .     A
C922   C924    1.413   .     A
C922   Br946   1.938   .     S
C923   C929    1.418   .     A
C923   C925    1.421   .     A
C924   C926    1.421   .     A
C924   C930    1.418   .     A
C925   C927    1.421   .     A
C925   C386    1.410   1_556 S
C926   C928    1.421   .     A
C929   C947    1.450   .     S
C929   C363    1.405   1_556 S
C930   C949    1.449   .     S
Cu931  N933    2.032   .     S
Cu931  O937    1.974   .     S
Cu931  O935    1.974   .     S
Cu931  O941    1.961   .     S
Cu931  Cu932   2.704   .     S
Cu931  O939    1.960   .     S
Cu932  O938    1.974   .     S
Cu932  O940    1.960   .     S
Cu932  O936    1.974   .     S
Cu932  O942    1.961   .     S
Cu932  N934    2.032   .     S
C947   N948    1.158   .     T
C949   N950    1.158   .     T
C961   O998    1.304   .     A
C961   O995    1.305   .     A
C961   C970    1.470   .     S
C962   O997    1.304   .     A
C962   O996    1.305   .     A
C962   C969    1.470   .     S
C963   C988    1.414   .     A
C963   Br1011  1.943   .     S
C964   Br1012  1.943   .     S
C964   C987    1.414   .     A
C964   C450    1.405   1_556 S
C965   Br1013  1.939   .     S
C965   C970    1.413   .     A
C966   C969    1.413   .     A
C966   Br1014  1.939   .     S
C966   C1028   1.391   .     S
C967   Br1015  1.939   .     S
C967   C969    1.413   .     A
C967   C1025   1.391   .     S
C968   Br1016  1.939   .     S
C968   C970    1.413   .     A
C971   Br1017  1.926   .     S
C971   N994    1.376   .     A
C972   Br1018  1.926   .     S
C972   N993    1.376   .     A
C972   C613    1.422   1_565 S
C973   Br1019  1.927   .     S
C973   N994    1.376   .     A
C974   N993    1.376   .     A
C974   Br1020  1.927   .     S
C974   C611    1.422   1_565 S
C975   O999    1.298   .     A
C975   C980    1.451   .     S
C975   O1002   1.298   .     A
C976   C979    1.451   .     S
C976   O1000   1.298   .     A
C976   O1001   1.298   .     A
C977   C987    1.408   .     A
C977   Br1003  1.939   .     S
C977   C979    1.398   .     A
C978   C980    1.398   .     A
C978   Br1004  1.939   .     S
C978   C988    1.409   .     A
C979   C981    1.400   .     A
C980   C982    1.400   .     A
C981   Br1005  1.937   .     S
C981   C983    1.413   .     A
C982   C984    1.413   .     A
C982   Br1006  1.938   .     S
C983   C989    1.418   .     A
C983   C985    1.421   .     A
C984   C986    1.421   .     A
C984   C990    1.418   .     A
C985   C987    1.421   .     A
C985   C446    1.410   1_556 S
C986   C988    1.421   .     A
C989   C1007   1.450   .     S
C989   C423    1.405   1_556 S
C990   C1009   1.449   .     S
Cu991  N993    2.032   .     S
Cu991  O997    1.974   .     S
Cu991  O995    1.974   .     S
Cu991  O1001   1.961   .     S
Cu991  Cu992   2.704   .     S
Cu991  O999    1.960   .     S
Cu992  O998    1.974   .     S
Cu992  O1000   1.960   .     S
Cu992  O996    1.974   .     S
Cu992  O1002   1.961   .     S
Cu992  N994    2.032   .     S
C1007  N1008   1.158   .     T
C1009  N1010   1.158   .     T
C1021  O1058   1.304   .     A
C1021  O1055   1.305   .     A
C1021  C1030   1.470   .     S
C1022  O1057   1.304   .     A
C1022  O1056   1.305   .     A
C1022  C1029   1.470   .     S
C1023  C1048   1.414   .     A
C1023  Br1071  1.943   .     S
C1024  Br1072  1.943   .     S
C1024  C1047   1.414   .     A
C1024  C510    1.405   1_556 S
C1025  Br1073  1.939   .     S
C1025  C1030   1.413   .     A
C1026  C1029   1.413   .     A
C1026  Br1074  1.939   .     S
C1026  C908    1.391   1_655 S
C1027  Br1075  1.939   .     S
C1027  C1029   1.413   .     A
C1027  C905    1.391   1_655 S
C1028  Br1076  1.939   .     S
C1028  C1030   1.413   .     A
C1031  Br1077  1.926   .     S
C1031  N1054   1.376   .     A
C1032  Br1078  1.926   .     S
C1032  N1053   1.376   .     A
C1032  C673    1.422   1_565 S
C1033  Br1079  1.927   .     S
C1033  N1054   1.376   .     A
C1034  N1053   1.376   .     A
C1034  Br1080  1.927   .     S
C1034  C671    1.422   1_565 S
C1035  O1059   1.298   .     A
C1035  C1040   1.451   .     S
C1035  O1062   1.298   .     A
C1036  C1039   1.451   .     S
C1036  O1060   1.298   .     A
C1036  O1061   1.298   .     A
C1037  C1047   1.408   .     A
C1037  Br1063  1.939   .     S
C1037  C1039   1.398   .     A
C1038  C1040   1.398   .     A
C1038  Br1064  1.939   .     S
C1038  C1048   1.409   .     A
C1039  C1041   1.400   .     A
C1040  C1042   1.400   .     A
C1041  Br1065  1.937   .     S
C1041  C1043   1.413   .     A
C1042  C1044   1.413   .     A
C1042  Br1066  1.938   .     S
C1043  C1049   1.418   .     A
C1043  C1045   1.421   .     A
C1044  C1046   1.421   .     A
C1044  C1050   1.418   .     A
C1045  C1047   1.421   .     A
C1045  C506    1.410   1_556 S
C1046  C1048   1.421   .     A
C1049  C1067   1.450   .     S
C1049  C483    1.405   1_556 S
C1050  C1069   1.449   .     S
Cu1051 N1053   2.032   .     S
Cu1051 O1057   1.974   .     S
Cu1051 O1055   1.974   .     S
Cu1051 O1061   1.961   .     S
Cu1051 Cu1052  2.704   .     S
Cu1051 O1059   1.960   .     S
Cu1052 O1058   1.974   .     S
Cu1052 O1060   1.960   .     S
Cu1052 O1056   1.974   .     S
Cu1052 O1062   1.961   .     S
Cu1052 N1054   2.032   .     S
C1067  N1068   1.158   .     T
C1069  N1070   1.158   .     T
