data_str_m1_o10_o18_pcu_sym.88
_audit_creation_date              2020-01-03
_audit_creation_method            'Materials Studio'
_symmetry_space_group_name_H-M    'P1'
_symmetry_Int_Tables_number       1
_symmetry_cell_setting            triclinic
loop_
_symmetry_equiv_pos_as_xyz
  x,y,z
_cell_length_a                    32.5950
_cell_length_b                    32.5174
_cell_length_c                    35.5789
_cell_angle_alpha                 98.2698
_cell_angle_beta                  72.6689
_cell_angle_gamma                 99.0360
loop_
_atom_site_label
_atom_site_type_symbol
_atom_site_fract_x
_atom_site_fract_y
_atom_site_fract_z
_atom_site_U_iso_or_equiv
_atom_site_adp_type
_atom_site_occupancy
C1     C     0.05231   0.15932   0.25920   0.00000  Uiso   1.00
C2     C     0.19195   0.12490   0.45898   0.00000  Uiso   1.00
C3     C     0.21160   0.10297   0.47855   0.00000  Uiso   1.00
C4     C     0.28128   0.17501   0.24172   0.00000  Uiso   1.00
C5     C     0.20716   0.11379   0.01947   0.00000  Uiso   1.00
C6     C     0.17917   0.14403   0.04061   0.00000  Uiso   1.00
C7     C     0.22898   0.09463   0.04000   0.00000  Uiso   1.00
C8     C     0.22134   0.10413   0.08102   0.00000  Uiso   1.00
C9     C     0.18008   0.16040   0.07971   0.00000  Uiso   1.00
C10    C     0.32759   0.18185   0.24003   0.00000  Uiso   1.00
C11    C     0.00738   0.15733   0.26051   0.00000  Uiso   1.00
C12    C     0.08884   0.20025   0.42079   0.00000  Uiso   1.00
C13    C     0.18126   0.32229   0.23797   0.00000  Uiso   1.00
C14    C     0.15147   0.01194   0.26176   0.00000  Uiso   1.00
C15    C     0.15597   0.05606   0.25874   0.00000  Uiso   1.00
C16    C     0.17697   0.27774   0.24125   0.00000  Uiso   1.00
C17    C     0.18794   0.14569   0.14382   0.00000  Uiso   1.00
C18    C     0.14514   0.18762   0.35631   0.00000  Uiso   1.00
C19    C     0.13151   0.19232   0.40012   0.00000  Uiso   1.00
C20    C     0.19711   0.13712   0.10082   0.00000  Uiso   1.00
C21    C     0.07381   0.19810   0.46162   0.00000  Uiso   1.00
C22    C     0.03913   0.19450   0.04730   0.00000  Uiso   1.00
C23    C     0.15957   0.18487   0.42130   0.00000  Uiso   1.00
C24    C     0.02742   0.19463   0.09228   0.00000  Uiso   1.00
C25    C     0.29823   0.08266   0.00852   0.00000  Uiso   1.00
C26    C     0.02719   0.21459   0.21617   0.00000  Uiso   1.00
C27    C     0.00911   0.24681   0.20013   0.00000  Uiso   1.00
C28    C     0.16983   0.20508   0.09646   0.00000  Uiso   1.00
C29    C     0.19917   0.23743   0.07003   0.00000  Uiso   1.00
C30    C     0.27049   0.10218   0.11562   0.00000  Uiso   1.00
C31    C     0.21020   0.03538   0.45161   0.00000  Uiso   1.00
C32    C     0.05414   0.24927   0.40718   0.00000  Uiso   1.00
C33    C     0.20851   0.19636   0.40422   0.00000  Uiso   1.00
C34    C     0.14126   0.17446   0.46090   0.00000  Uiso   1.00
C35    C     0.22762   0.22915   0.43181   0.00000  Uiso   1.00
C36    C     0.09947   0.18547   0.48237   0.00000  Uiso   1.00
C37    C     0.16330   0.15379   0.47997   0.00000  Uiso   1.00
C38    C     0.15189   0.15741   0.02148   0.00000  Uiso   1.00
C39    C     0.11087   0.16885   0.04260   0.00000  Uiso   1.00
C40    C     0.08388   0.18248   0.02380   0.00000  Uiso   1.00
H41    H     0.31870   0.13263   0.27620   0.00000  Uiso   1.00
H42    H     0.03707   0.22672   0.04155   0.00000  Uiso   1.00
H43    H     0.01415   0.17275   0.03658   0.00000  Uiso   1.00
H44    H     0.31110   0.09442   0.03416   0.00000  Uiso   1.00
H45    H     0.30169   0.10850   0.48995   0.00000  Uiso   1.00
H46    H     0.31850   0.05866   0.49016   0.00000  Uiso   1.00
H47    H     0.32895   0.23204   0.17558   0.00000  Uiso   1.00
H48    H     0.31747   0.26222   0.22413   0.00000  Uiso   1.00
H49    H     0.03574   0.27132   0.18798   0.00000  Uiso   1.00
H50    H     0.04620   0.23299   0.23550   0.00000  Uiso   1.00
H51    H     0.05013   0.19812   0.19101   0.00000  Uiso   1.00
H52    H     0.20887   0.00315   0.21612   0.00000  Uiso   1.00
H53    H     0.23372   0.23376   0.06532   0.00000  Uiso   1.00
H54    H     0.19234   0.23412   0.04092   0.00000  Uiso   1.00
H55    H     0.19341   0.26946   0.08446   0.00000  Uiso   1.00
H56    H     0.13569   0.20939   0.10138   0.00000  Uiso   1.00
H57    H     0.17497   0.21382   0.12606   0.00000  Uiso   1.00
H58    H     0.25869   0.10953   0.14819   0.00000  Uiso   1.00
H59    H     0.28491   0.13169   0.10173   0.00000  Uiso   1.00
H60    H     0.29679   0.08216   0.10960   0.00000  Uiso   1.00
H61    H     0.19026   0.02463   0.48059   0.00000  Uiso   1.00
H62    H     0.23088   0.01062   0.43593   0.00000  Uiso   1.00
H63    H     0.12337   0.33175   0.28352   0.00000  Uiso   1.00
H64    H     0.18904   0.03884   0.43311   0.00000  Uiso   1.00
H65    H     0.03431   0.25481   0.38832   0.00000  Uiso   1.00
H66    H     0.08547   0.26985   0.39868   0.00000  Uiso   1.00
H67    H     0.03618   0.25805   0.43847   0.00000  Uiso   1.00
H68    H     0.26176   0.24006   0.41637   0.00000  Uiso   1.00
H69    H     0.20902   0.25653   0.44033   0.00000  Uiso   1.00
H70    H     0.22743   0.21590   0.45890   0.00000  Uiso   1.00
H71    H     0.21579   0.21070   0.37611   0.00000  Uiso   1.00
H72    H     0.22647   0.16880   0.39660   0.00000  Uiso   1.00
H73    H     0.04084   0.20416   0.47621   0.00000  Uiso   1.00
H74    H     0.09849   0.16305   0.07323   0.00000  Uiso   1.00
H75    H     0.19575   0.11567   0.42785   0.00000  Uiso   1.00
H76    H     0.02568   0.16261   0.10051   0.00000  Uiso   1.00
H77    H     0.05143   0.21633   0.10436   0.00000  Uiso   1.00
H78    H     0.32844   0.20553   0.10583   0.00000  Uiso   1.00
O79    O     0.16667   0.16667   0.25000   0.00000  Uiso   1.00
O80    O     0.15693   0.12393   0.16625   0.00000  Uiso   1.00
O81    O     0.12687   0.20646   0.33749   0.00000  Uiso   1.00
O82    O     0.21088   0.17493   0.15877   0.00000  Uiso   1.00
O83    O     0.17198   0.16135   0.33749   0.00000  Uiso   1.00
O84    O     0.25500   0.06379   0.02097   0.00000  Uiso   1.00
O85    O     0.23653   0.07935   0.10137   0.00000  Uiso   1.00
O86    O     0.23723   0.07287   0.45671   0.00000  Uiso   1.00
O87    O     0.06038   0.20658   0.40064   0.00000  Uiso   1.00
O88    O     0.17849   0.08101   0.27821   0.00000  Uiso   1.00
O89    O     0.14581   0.26136   0.26767   0.00000  Uiso   1.00
O90    O     0.07452   0.13251   0.23607   0.00000  Uiso   1.00
O91    O     0.26785   0.19179   0.21806   0.00000  Uiso   1.00
O92    O     0.06990   0.18960   0.27820   0.00000  Uiso   1.00
O93    O     0.25440   0.15277   0.26768   0.00000  Uiso   1.00
O94    O     0.13800   0.06903   0.23607   0.00000  Uiso   1.00
O95    O     0.20437   0.25527   0.21806   0.00000  Uiso   1.00
Zn96   Zn    0.19244   0.14090   0.28278   0.00000  Uiso   1.00
Zn97   Zn    0.13459   0.12378   0.22258   0.00000  Uiso   1.00
Zn98   Zn    0.21166   0.19664   0.21188   0.00000  Uiso   1.00
Zn99   Zn    0.12798   0.20535   0.28277   0.00000  Uiso   1.00
C100   C     0.38564   0.15932   0.25920   0.00000  Uiso   1.00
C101   C     0.52528   0.12490   0.45898   0.00000  Uiso   1.00
C102   C     0.54493   0.10297   0.47855   0.00000  Uiso   1.00
C103   C     0.61462   0.17501   0.24172   0.00000  Uiso   1.00
C104   C     0.54049   0.11379   0.01947   0.00000  Uiso   1.00
C105   C     0.51251   0.14403   0.04061   0.00000  Uiso   1.00
C106   C     0.56232   0.09463   0.04000   0.00000  Uiso   1.00
C107   C     0.55468   0.10413   0.08102   0.00000  Uiso   1.00
C108   C     0.51341   0.16040   0.07971   0.00000  Uiso   1.00
C109   C     0.66092   0.18185   0.24003   0.00000  Uiso   1.00
C110   C     0.34072   0.15733   0.26051   0.00000  Uiso   1.00
C111   C     0.42217   0.20025   0.42079   0.00000  Uiso   1.00
C112   C     0.51460   0.32229   0.23797   0.00000  Uiso   1.00
C113   C     0.48480   0.01194   0.26176   0.00000  Uiso   1.00
C114   C     0.48930   0.05606   0.25874   0.00000  Uiso   1.00
C115   C     0.51030   0.27774   0.24125   0.00000  Uiso   1.00
C116   C     0.52127   0.14569   0.14382   0.00000  Uiso   1.00
C117   C     0.47847   0.18762   0.35631   0.00000  Uiso   1.00
C118   C     0.46485   0.19232   0.40012   0.00000  Uiso   1.00
C119   C     0.53045   0.13712   0.10082   0.00000  Uiso   1.00
C120   C     0.40714   0.19810   0.46162   0.00000  Uiso   1.00
C121   C     0.37246   0.19450   0.04730   0.00000  Uiso   1.00
C122   C     0.49290   0.18487   0.42130   0.00000  Uiso   1.00
C123   C     0.36076   0.19463   0.09228   0.00000  Uiso   1.00
C124   C     0.63157   0.08266   0.00852   0.00000  Uiso   1.00
C125   C     0.36053   0.21459   0.21617   0.00000  Uiso   1.00
C126   C     0.34244   0.24681   0.20013   0.00000  Uiso   1.00
C127   C     0.50317   0.20508   0.09646   0.00000  Uiso   1.00
C128   C     0.53250   0.23743   0.07003   0.00000  Uiso   1.00
C129   C     0.60382   0.10218   0.11562   0.00000  Uiso   1.00
C130   C     0.54353   0.03538   0.45161   0.00000  Uiso   1.00
C131   C     0.38748   0.24927   0.40718   0.00000  Uiso   1.00
C132   C     0.54184   0.19636   0.40422   0.00000  Uiso   1.00
C133   C     0.47460   0.17446   0.46090   0.00000  Uiso   1.00
C134   C     0.56095   0.22915   0.43181   0.00000  Uiso   1.00
C135   C     0.43280   0.18547   0.48237   0.00000  Uiso   1.00
C136   C     0.49663   0.15379   0.47997   0.00000  Uiso   1.00
C137   C     0.48522   0.15741   0.02148   0.00000  Uiso   1.00
C138   C     0.44420   0.16885   0.04260   0.00000  Uiso   1.00
C139   C     0.41721   0.18248   0.02380   0.00000  Uiso   1.00
H140   H     0.65204   0.13263   0.27620   0.00000  Uiso   1.00
H141   H     0.37040   0.22672   0.04155   0.00000  Uiso   1.00
H142   H     0.34749   0.17275   0.03658   0.00000  Uiso   1.00
H143   H     0.64444   0.09442   0.03416   0.00000  Uiso   1.00
H144   H     0.63502   0.10850   0.48995   0.00000  Uiso   1.00
H145   H     0.65183   0.05866   0.49016   0.00000  Uiso   1.00
H146   H     0.66228   0.23204   0.17558   0.00000  Uiso   1.00
H147   H     0.65080   0.26222   0.22413   0.00000  Uiso   1.00
H148   H     0.36907   0.27132   0.18798   0.00000  Uiso   1.00
H149   H     0.37954   0.23299   0.23550   0.00000  Uiso   1.00
H150   H     0.38346   0.19812   0.19101   0.00000  Uiso   1.00
H151   H     0.54220   0.00315   0.21612   0.00000  Uiso   1.00
H152   H     0.56705   0.23376   0.06532   0.00000  Uiso   1.00
H153   H     0.52568   0.23412   0.04092   0.00000  Uiso   1.00
H154   H     0.52675   0.26946   0.08446   0.00000  Uiso   1.00
H155   H     0.46902   0.20939   0.10138   0.00000  Uiso   1.00
H156   H     0.50831   0.21382   0.12606   0.00000  Uiso   1.00
H157   H     0.59202   0.10953   0.14819   0.00000  Uiso   1.00
H158   H     0.61825   0.13169   0.10173   0.00000  Uiso   1.00
H159   H     0.63013   0.08216   0.10960   0.00000  Uiso   1.00
H160   H     0.52360   0.02463   0.48059   0.00000  Uiso   1.00
H161   H     0.56421   0.01062   0.43593   0.00000  Uiso   1.00
H162   H     0.45671   0.33175   0.28352   0.00000  Uiso   1.00
H163   H     0.52237   0.03884   0.43311   0.00000  Uiso   1.00
H164   H     0.36764   0.25481   0.38832   0.00000  Uiso   1.00
H165   H     0.41880   0.26985   0.39868   0.00000  Uiso   1.00
H166   H     0.36951   0.25805   0.43847   0.00000  Uiso   1.00
H167   H     0.59509   0.24006   0.41637   0.00000  Uiso   1.00
H168   H     0.54235   0.25653   0.44033   0.00000  Uiso   1.00
H169   H     0.56076   0.21590   0.45890   0.00000  Uiso   1.00
H170   H     0.54912   0.21070   0.37611   0.00000  Uiso   1.00
H171   H     0.55981   0.16880   0.39660   0.00000  Uiso   1.00
H172   H     0.37417   0.20416   0.47621   0.00000  Uiso   1.00
H173   H     0.43182   0.16305   0.07323   0.00000  Uiso   1.00
H174   H     0.52908   0.11567   0.42785   0.00000  Uiso   1.00
H175   H     0.35901   0.16261   0.10051   0.00000  Uiso   1.00
H176   H     0.38476   0.21633   0.10436   0.00000  Uiso   1.00
H177   H     0.66177   0.20553   0.10583   0.00000  Uiso   1.00
O178   O     0.50000   0.16667   0.25000   0.00000  Uiso   1.00
O179   O     0.49027   0.12393   0.16625   0.00000  Uiso   1.00
O180   O     0.46020   0.20646   0.33749   0.00000  Uiso   1.00
O181   O     0.54421   0.17493   0.15877   0.00000  Uiso   1.00
O182   O     0.50532   0.16135   0.33749   0.00000  Uiso   1.00
O183   O     0.58833   0.06379   0.02097   0.00000  Uiso   1.00
O184   O     0.56987   0.07935   0.10137   0.00000  Uiso   1.00
O185   O     0.57056   0.07287   0.45671   0.00000  Uiso   1.00
O186   O     0.39371   0.20658   0.40064   0.00000  Uiso   1.00
O187   O     0.51182   0.08101   0.27821   0.00000  Uiso   1.00
O188   O     0.47914   0.26136   0.26767   0.00000  Uiso   1.00
O189   O     0.40785   0.13251   0.23607   0.00000  Uiso   1.00
O190   O     0.60119   0.19179   0.21806   0.00000  Uiso   1.00
O191   O     0.40323   0.18960   0.27820   0.00000  Uiso   1.00
O192   O     0.58773   0.15277   0.26768   0.00000  Uiso   1.00
O193   O     0.47133   0.06903   0.23607   0.00000  Uiso   1.00
O194   O     0.53771   0.25527   0.21806   0.00000  Uiso   1.00
Zn195  Zn    0.52577   0.14090   0.28278   0.00000  Uiso   1.00
Zn196  Zn    0.46792   0.12378   0.22258   0.00000  Uiso   1.00
Zn197  Zn    0.54500   0.19664   0.21188   0.00000  Uiso   1.00
Zn198  Zn    0.46131   0.20535   0.28277   0.00000  Uiso   1.00
C199   C     0.71897   0.15932   0.25920   0.00000  Uiso   1.00
C200   C     0.85861   0.12490   0.45898   0.00000  Uiso   1.00
C201   C     0.87827   0.10297   0.47855   0.00000  Uiso   1.00
C202   C     0.94795   0.17501   0.24172   0.00000  Uiso   1.00
C203   C     0.87382   0.11379   0.01947   0.00000  Uiso   1.00
C204   C     0.84584   0.14403   0.04061   0.00000  Uiso   1.00
C205   C     0.89565   0.09463   0.04000   0.00000  Uiso   1.00
C206   C     0.88801   0.10413   0.08102   0.00000  Uiso   1.00
C207   C     0.84675   0.16040   0.07971   0.00000  Uiso   1.00
C208   C     0.99426   0.18185   0.24003   0.00000  Uiso   1.00
C209   C     0.67405   0.15733   0.26051   0.00000  Uiso   1.00
C210   C     0.75551   0.20025   0.42079   0.00000  Uiso   1.00
C211   C     0.84793   0.32229   0.23797   0.00000  Uiso   1.00
C212   C     0.81814   0.01194   0.26176   0.00000  Uiso   1.00
C213   C     0.82264   0.05606   0.25874   0.00000  Uiso   1.00
C214   C     0.84363   0.27774   0.24125   0.00000  Uiso   1.00
C215   C     0.85461   0.14569   0.14382   0.00000  Uiso   1.00
C216   C     0.81180   0.18762   0.35631   0.00000  Uiso   1.00
C217   C     0.79818   0.19232   0.40012   0.00000  Uiso   1.00
C218   C     0.86378   0.13712   0.10082   0.00000  Uiso   1.00
C219   C     0.74048   0.19810   0.46162   0.00000  Uiso   1.00
C220   C     0.70580   0.19450   0.04730   0.00000  Uiso   1.00
C221   C     0.82623   0.18487   0.42130   0.00000  Uiso   1.00
C222   C     0.69409   0.19463   0.09228   0.00000  Uiso   1.00
C223   C     0.96490   0.08266   0.00852   0.00000  Uiso   1.00
C224   C     0.69386   0.21459   0.21617   0.00000  Uiso   1.00
C225   C     0.67577   0.24681   0.20013   0.00000  Uiso   1.00
C226   C     0.83650   0.20508   0.09646   0.00000  Uiso   1.00
C227   C     0.86583   0.23743   0.07003   0.00000  Uiso   1.00
C228   C     0.93716   0.10218   0.11562   0.00000  Uiso   1.00
C229   C     0.87687   0.03538   0.45161   0.00000  Uiso   1.00
C230   C     0.72081   0.24927   0.40718   0.00000  Uiso   1.00
C231   C     0.87518   0.19636   0.40422   0.00000  Uiso   1.00
C232   C     0.80793   0.17446   0.46090   0.00000  Uiso   1.00
C233   C     0.89429   0.22915   0.43181   0.00000  Uiso   1.00
C234   C     0.76613   0.18547   0.48237   0.00000  Uiso   1.00
C235   C     0.82996   0.15379   0.47997   0.00000  Uiso   1.00
C236   C     0.81855   0.15741   0.02148   0.00000  Uiso   1.00
C237   C     0.77753   0.16885   0.04260   0.00000  Uiso   1.00
C238   C     0.75054   0.18248   0.02380   0.00000  Uiso   1.00
H239   H     0.98537   0.13263   0.27620   0.00000  Uiso   1.00
H240   H     0.70374   0.22672   0.04155   0.00000  Uiso   1.00
H241   H     0.68082   0.17275   0.03658   0.00000  Uiso   1.00
H242   H     0.97777   0.09442   0.03416   0.00000  Uiso   1.00
H243   H     0.96836   0.10850   0.48995   0.00000  Uiso   1.00
H244   H     0.98517   0.05866   0.49016   0.00000  Uiso   1.00
H245   H     0.99561   0.23204   0.17558   0.00000  Uiso   1.00
H246   H     0.98414   0.26222   0.22413   0.00000  Uiso   1.00
H247   H     0.70241   0.27132   0.18798   0.00000  Uiso   1.00
H248   H     0.71287   0.23299   0.23550   0.00000  Uiso   1.00
H249   H     0.71679   0.19812   0.19101   0.00000  Uiso   1.00
H250   H     0.87554   0.00315   0.21612   0.00000  Uiso   1.00
H251   H     0.90038   0.23376   0.06532   0.00000  Uiso   1.00
H252   H     0.85901   0.23412   0.04092   0.00000  Uiso   1.00
H253   H     0.86008   0.26946   0.08446   0.00000  Uiso   1.00
H254   H     0.80236   0.20939   0.10138   0.00000  Uiso   1.00
H255   H     0.84164   0.21382   0.12606   0.00000  Uiso   1.00
H256   H     0.92535   0.10953   0.14819   0.00000  Uiso   1.00
H257   H     0.95158   0.13169   0.10173   0.00000  Uiso   1.00
H258   H     0.96346   0.08216   0.10960   0.00000  Uiso   1.00
H259   H     0.85693   0.02463   0.48059   0.00000  Uiso   1.00
H260   H     0.89755   0.01062   0.43593   0.00000  Uiso   1.00
H261   H     0.79004   0.33175   0.28352   0.00000  Uiso   1.00
H262   H     0.85571   0.03884   0.43311   0.00000  Uiso   1.00
H263   H     0.70097   0.25481   0.38832   0.00000  Uiso   1.00
H264   H     0.75213   0.26985   0.39868   0.00000  Uiso   1.00
H265   H     0.70284   0.25805   0.43847   0.00000  Uiso   1.00
H266   H     0.92843   0.24006   0.41637   0.00000  Uiso   1.00
H267   H     0.87569   0.25653   0.44033   0.00000  Uiso   1.00
H268   H     0.89409   0.21590   0.45890   0.00000  Uiso   1.00
H269   H     0.88246   0.21070   0.37611   0.00000  Uiso   1.00
H270   H     0.89314   0.16880   0.39660   0.00000  Uiso   1.00
H271   H     0.70751   0.20416   0.47621   0.00000  Uiso   1.00
H272   H     0.76515   0.16305   0.07323   0.00000  Uiso   1.00
H273   H     0.86241   0.11567   0.42785   0.00000  Uiso   1.00
H274   H     0.69235   0.16261   0.10051   0.00000  Uiso   1.00
H275   H     0.71809   0.21633   0.10436   0.00000  Uiso   1.00
H276   H     0.99511   0.20553   0.10583   0.00000  Uiso   1.00
O277   O     0.83333   0.16667   0.25000   0.00000  Uiso   1.00
O278   O     0.82360   0.12393   0.16625   0.00000  Uiso   1.00
O279   O     0.79354   0.20646   0.33749   0.00000  Uiso   1.00
O280   O     0.87755   0.17493   0.15877   0.00000  Uiso   1.00
O281   O     0.83865   0.16135   0.33749   0.00000  Uiso   1.00
O282   O     0.92167   0.06379   0.02097   0.00000  Uiso   1.00
O283   O     0.90320   0.07935   0.10137   0.00000  Uiso   1.00
O284   O     0.90390   0.07287   0.45671   0.00000  Uiso   1.00
O285   O     0.72705   0.20658   0.40064   0.00000  Uiso   1.00
O286   O     0.84515   0.08101   0.27821   0.00000  Uiso   1.00
O287   O     0.81247   0.26136   0.26767   0.00000  Uiso   1.00
O288   O     0.74119   0.13251   0.23607   0.00000  Uiso   1.00
O289   O     0.93452   0.19179   0.21806   0.00000  Uiso   1.00
O290   O     0.73656   0.18960   0.27820   0.00000  Uiso   1.00
O291   O     0.92106   0.15277   0.26768   0.00000  Uiso   1.00
O292   O     0.80467   0.06903   0.23607   0.00000  Uiso   1.00
O293   O     0.87104   0.25527   0.21806   0.00000  Uiso   1.00
Zn294  Zn    0.85910   0.14090   0.28278   0.00000  Uiso   1.00
Zn295  Zn    0.80125   0.12378   0.22258   0.00000  Uiso   1.00
Zn296  Zn    0.87833   0.19664   0.21188   0.00000  Uiso   1.00
Zn297  Zn    0.79465   0.20535   0.28277   0.00000  Uiso   1.00
C298   C     0.05231   0.49266   0.25920   0.00000  Uiso   1.00
C299   C     0.19195   0.45823   0.45898   0.00000  Uiso   1.00
C300   C     0.21160   0.43630   0.47855   0.00000  Uiso   1.00
C301   C     0.28128   0.50834   0.24172   0.00000  Uiso   1.00
C302   C     0.20716   0.44712   0.01947   0.00000  Uiso   1.00
C303   C     0.17917   0.47737   0.04061   0.00000  Uiso   1.00
C304   C     0.22898   0.42796   0.04000   0.00000  Uiso   1.00
C305   C     0.22134   0.43747   0.08102   0.00000  Uiso   1.00
C306   C     0.18008   0.49373   0.07971   0.00000  Uiso   1.00
C307   C     0.32759   0.51518   0.24003   0.00000  Uiso   1.00
C308   C     0.00738   0.49066   0.26051   0.00000  Uiso   1.00
C309   C     0.08884   0.53358   0.42079   0.00000  Uiso   1.00
C310   C     0.18126   0.65562   0.23797   0.00000  Uiso   1.00
C311   C     0.15147   0.34527   0.26176   0.00000  Uiso   1.00
C312   C     0.15597   0.38939   0.25874   0.00000  Uiso   1.00
C313   C     0.17697   0.61108   0.24125   0.00000  Uiso   1.00
C314   C     0.18794   0.47902   0.14382   0.00000  Uiso   1.00
C315   C     0.14514   0.52095   0.35631   0.00000  Uiso   1.00
C316   C     0.13151   0.52566   0.40012   0.00000  Uiso   1.00
C317   C     0.19711   0.47045   0.10082   0.00000  Uiso   1.00
C318   C     0.07381   0.53143   0.46162   0.00000  Uiso   1.00
C319   C     0.03913   0.52784   0.04730   0.00000  Uiso   1.00
C320   C     0.15957   0.51821   0.42130   0.00000  Uiso   1.00
C321   C     0.02742   0.52797   0.09228   0.00000  Uiso   1.00
C322   C     0.29823   0.41599   0.00852   0.00000  Uiso   1.00
C323   C     0.02719   0.54792   0.21617   0.00000  Uiso   1.00
C324   C     0.00911   0.58014   0.20013   0.00000  Uiso   1.00
C325   C     0.16983   0.53841   0.09646   0.00000  Uiso   1.00
C326   C     0.19917   0.57077   0.07003   0.00000  Uiso   1.00
C327   C     0.27049   0.43551   0.11562   0.00000  Uiso   1.00
C328   C     0.21020   0.36871   0.45161   0.00000  Uiso   1.00
C329   C     0.05414   0.58260   0.40718   0.00000  Uiso   1.00
C330   C     0.20851   0.52969   0.40422   0.00000  Uiso   1.00
C331   C     0.14126   0.50780   0.46090   0.00000  Uiso   1.00
C332   C     0.22762   0.56248   0.43181   0.00000  Uiso   1.00
C333   C     0.09947   0.51880   0.48237   0.00000  Uiso   1.00
C334   C     0.16330   0.48712   0.47997   0.00000  Uiso   1.00
C335   C     0.15189   0.49074   0.02148   0.00000  Uiso   1.00
C336   C     0.11087   0.50219   0.04260   0.00000  Uiso   1.00
C337   C     0.08388   0.51582   0.02380   0.00000  Uiso   1.00
H338   H     0.31870   0.46597   0.27620   0.00000  Uiso   1.00
H339   H     0.03707   0.56005   0.04155   0.00000  Uiso   1.00
H340   H     0.01415   0.50608   0.03658   0.00000  Uiso   1.00
H341   H     0.31110   0.42776   0.03416   0.00000  Uiso   1.00
H342   H     0.30169   0.44183   0.48995   0.00000  Uiso   1.00
H343   H     0.31850   0.39199   0.49016   0.00000  Uiso   1.00
H344   H     0.32895   0.56537   0.17558   0.00000  Uiso   1.00
H345   H     0.31747   0.59556   0.22413   0.00000  Uiso   1.00
H346   H     0.03574   0.60465   0.18798   0.00000  Uiso   1.00
H347   H     0.04620   0.56632   0.23550   0.00000  Uiso   1.00
H348   H     0.05013   0.53145   0.19101   0.00000  Uiso   1.00
H349   H     0.20887   0.33648   0.21612   0.00000  Uiso   1.00
H350   H     0.23372   0.56710   0.06532   0.00000  Uiso   1.00
H351   H     0.19234   0.56745   0.04092   0.00000  Uiso   1.00
H352   H     0.19341   0.60279   0.08446   0.00000  Uiso   1.00
H353   H     0.13569   0.54273   0.10138   0.00000  Uiso   1.00
H354   H     0.17497   0.54715   0.12606   0.00000  Uiso   1.00
H355   H     0.25869   0.44286   0.14819   0.00000  Uiso   1.00
H356   H     0.28491   0.46503   0.10173   0.00000  Uiso   1.00
H357   H     0.29679   0.41549   0.10960   0.00000  Uiso   1.00
H358   H     0.19026   0.35796   0.48059   0.00000  Uiso   1.00
H359   H     0.23088   0.34395   0.43593   0.00000  Uiso   1.00
H360   H     0.12337   0.66508   0.28352   0.00000  Uiso   1.00
H361   H     0.18904   0.37217   0.43311   0.00000  Uiso   1.00
H362   H     0.03431   0.58815   0.38832   0.00000  Uiso   1.00
H363   H     0.08547   0.60319   0.39868   0.00000  Uiso   1.00
H364   H     0.03618   0.59138   0.43847   0.00000  Uiso   1.00
H365   H     0.26176   0.57339   0.41637   0.00000  Uiso   1.00
H366   H     0.20902   0.58986   0.44033   0.00000  Uiso   1.00
H367   H     0.22743   0.54924   0.45890   0.00000  Uiso   1.00
H368   H     0.21579   0.54404   0.37611   0.00000  Uiso   1.00
H369   H     0.22647   0.50213   0.39660   0.00000  Uiso   1.00
H370   H     0.04084   0.53749   0.47621   0.00000  Uiso   1.00
H371   H     0.09849   0.49638   0.07323   0.00000  Uiso   1.00
H372   H     0.19575   0.44901   0.42785   0.00000  Uiso   1.00
H373   H     0.02568   0.49594   0.10051   0.00000  Uiso   1.00
H374   H     0.05143   0.54966   0.10436   0.00000  Uiso   1.00
H375   H     0.32844   0.53887   0.10583   0.00000  Uiso   1.00
O376   O     0.16667   0.50000   0.25000   0.00000  Uiso   1.00
O377   O     0.15693   0.45726   0.16625   0.00000  Uiso   1.00
O378   O     0.12687   0.53979   0.33749   0.00000  Uiso   1.00
O379   O     0.21088   0.50826   0.15877   0.00000  Uiso   1.00
O380   O     0.17198   0.49468   0.33749   0.00000  Uiso   1.00
O381   O     0.25500   0.39712   0.02097   0.00000  Uiso   1.00
O382   O     0.23653   0.41268   0.10137   0.00000  Uiso   1.00
O383   O     0.23723   0.40620   0.45671   0.00000  Uiso   1.00
O384   O     0.06038   0.53991   0.40064   0.00000  Uiso   1.00
O385   O     0.17849   0.41434   0.27821   0.00000  Uiso   1.00
O386   O     0.14581   0.59469   0.26767   0.00000  Uiso   1.00
O387   O     0.07452   0.46584   0.23607   0.00000  Uiso   1.00
O388   O     0.26785   0.52512   0.21806   0.00000  Uiso   1.00
O389   O     0.06990   0.52293   0.27820   0.00000  Uiso   1.00
O390   O     0.25440   0.48610   0.26768   0.00000  Uiso   1.00
O391   O     0.13800   0.40236   0.23607   0.00000  Uiso   1.00
O392   O     0.20437   0.58860   0.21806   0.00000  Uiso   1.00
Zn393  Zn    0.19244   0.47423   0.28278   0.00000  Uiso   1.00
Zn394  Zn    0.13459   0.45711   0.22258   0.00000  Uiso   1.00
Zn395  Zn    0.21166   0.52997   0.21188   0.00000  Uiso   1.00
Zn396  Zn    0.12798   0.53868   0.28277   0.00000  Uiso   1.00
C397   C     0.38564   0.49266   0.25920   0.00000  Uiso   1.00
C398   C     0.52528   0.45823   0.45898   0.00000  Uiso   1.00
C399   C     0.54493   0.43630   0.47855   0.00000  Uiso   1.00
C400   C     0.61462   0.50834   0.24172   0.00000  Uiso   1.00
C401   C     0.54049   0.44712   0.01947   0.00000  Uiso   1.00
C402   C     0.51251   0.47737   0.04061   0.00000  Uiso   1.00
C403   C     0.56232   0.42796   0.04000   0.00000  Uiso   1.00
C404   C     0.55468   0.43747   0.08102   0.00000  Uiso   1.00
C405   C     0.51341   0.49373   0.07971   0.00000  Uiso   1.00
C406   C     0.66092   0.51518   0.24003   0.00000  Uiso   1.00
C407   C     0.34072   0.49066   0.26051   0.00000  Uiso   1.00
C408   C     0.42217   0.53358   0.42079   0.00000  Uiso   1.00
C409   C     0.51460   0.65562   0.23797   0.00000  Uiso   1.00
C410   C     0.48480   0.34527   0.26176   0.00000  Uiso   1.00
C411   C     0.48930   0.38939   0.25874   0.00000  Uiso   1.00
C412   C     0.51030   0.61108   0.24125   0.00000  Uiso   1.00
C413   C     0.52127   0.47902   0.14382   0.00000  Uiso   1.00
C414   C     0.47847   0.52095   0.35631   0.00000  Uiso   1.00
C415   C     0.46485   0.52566   0.40012   0.00000  Uiso   1.00
C416   C     0.53045   0.47045   0.10082   0.00000  Uiso   1.00
C417   C     0.40714   0.53143   0.46162   0.00000  Uiso   1.00
C418   C     0.37246   0.52784   0.04730   0.00000  Uiso   1.00
C419   C     0.49290   0.51821   0.42130   0.00000  Uiso   1.00
C420   C     0.36076   0.52797   0.09228   0.00000  Uiso   1.00
C421   C     0.63157   0.41599   0.00852   0.00000  Uiso   1.00
C422   C     0.36053   0.54792   0.21617   0.00000  Uiso   1.00
C423   C     0.34244   0.58014   0.20013   0.00000  Uiso   1.00
C424   C     0.50317   0.53841   0.09646   0.00000  Uiso   1.00
C425   C     0.53250   0.57077   0.07003   0.00000  Uiso   1.00
C426   C     0.60382   0.43551   0.11562   0.00000  Uiso   1.00
C427   C     0.54353   0.36871   0.45161   0.00000  Uiso   1.00
C428   C     0.38748   0.58260   0.40718   0.00000  Uiso   1.00
C429   C     0.54184   0.52969   0.40422   0.00000  Uiso   1.00
C430   C     0.47460   0.50780   0.46090   0.00000  Uiso   1.00
C431   C     0.56095   0.56248   0.43181   0.00000  Uiso   1.00
C432   C     0.43280   0.51880   0.48237   0.00000  Uiso   1.00
C433   C     0.49663   0.48712   0.47997   0.00000  Uiso   1.00
C434   C     0.48522   0.49074   0.02148   0.00000  Uiso   1.00
C435   C     0.44420   0.50219   0.04260   0.00000  Uiso   1.00
C436   C     0.41721   0.51582   0.02380   0.00000  Uiso   1.00
H437   H     0.65204   0.46597   0.27620   0.00000  Uiso   1.00
H438   H     0.37040   0.56005   0.04155   0.00000  Uiso   1.00
H439   H     0.34749   0.50608   0.03658   0.00000  Uiso   1.00
H440   H     0.64444   0.42776   0.03416   0.00000  Uiso   1.00
H441   H     0.63502   0.44183   0.48995   0.00000  Uiso   1.00
H442   H     0.65183   0.39199   0.49016   0.00000  Uiso   1.00
H443   H     0.66228   0.56537   0.17558   0.00000  Uiso   1.00
H444   H     0.65080   0.59556   0.22413   0.00000  Uiso   1.00
H445   H     0.36907   0.60465   0.18798   0.00000  Uiso   1.00
H446   H     0.37954   0.56632   0.23550   0.00000  Uiso   1.00
H447   H     0.38346   0.53145   0.19101   0.00000  Uiso   1.00
H448   H     0.54220   0.33648   0.21612   0.00000  Uiso   1.00
H449   H     0.56705   0.56710   0.06532   0.00000  Uiso   1.00
H450   H     0.52568   0.56745   0.04092   0.00000  Uiso   1.00
H451   H     0.52675   0.60279   0.08446   0.00000  Uiso   1.00
H452   H     0.46902   0.54273   0.10138   0.00000  Uiso   1.00
H453   H     0.50831   0.54715   0.12606   0.00000  Uiso   1.00
H454   H     0.59202   0.44286   0.14819   0.00000  Uiso   1.00
H455   H     0.61825   0.46503   0.10173   0.00000  Uiso   1.00
H456   H     0.63013   0.41549   0.10960   0.00000  Uiso   1.00
H457   H     0.52360   0.35796   0.48059   0.00000  Uiso   1.00
H458   H     0.56421   0.34395   0.43593   0.00000  Uiso   1.00
H459   H     0.45671   0.66508   0.28352   0.00000  Uiso   1.00
H460   H     0.52237   0.37217   0.43311   0.00000  Uiso   1.00
H461   H     0.36764   0.58815   0.38832   0.00000  Uiso   1.00
H462   H     0.41880   0.60319   0.39868   0.00000  Uiso   1.00
H463   H     0.36951   0.59138   0.43847   0.00000  Uiso   1.00
H464   H     0.59509   0.57339   0.41637   0.00000  Uiso   1.00
H465   H     0.54235   0.58986   0.44033   0.00000  Uiso   1.00
H466   H     0.56076   0.54924   0.45890   0.00000  Uiso   1.00
H467   H     0.54912   0.54404   0.37611   0.00000  Uiso   1.00
H468   H     0.55981   0.50213   0.39660   0.00000  Uiso   1.00
H469   H     0.37417   0.53749   0.47621   0.00000  Uiso   1.00
H470   H     0.43182   0.49638   0.07323   0.00000  Uiso   1.00
H471   H     0.52908   0.44901   0.42785   0.00000  Uiso   1.00
H472   H     0.35901   0.49594   0.10051   0.00000  Uiso   1.00
H473   H     0.38476   0.54966   0.10436   0.00000  Uiso   1.00
H474   H     0.66177   0.53887   0.10583   0.00000  Uiso   1.00
O475   O     0.50000   0.50000   0.25000   0.00000  Uiso   1.00
O476   O     0.49027   0.45726   0.16625   0.00000  Uiso   1.00
O477   O     0.46020   0.53979   0.33749   0.00000  Uiso   1.00
O478   O     0.54421   0.50826   0.15877   0.00000  Uiso   1.00
O479   O     0.50532   0.49468   0.33749   0.00000  Uiso   1.00
O480   O     0.58833   0.39712   0.02097   0.00000  Uiso   1.00
O481   O     0.56987   0.41268   0.10137   0.00000  Uiso   1.00
O482   O     0.57056   0.40620   0.45671   0.00000  Uiso   1.00
O483   O     0.39371   0.53991   0.40064   0.00000  Uiso   1.00
O484   O     0.51182   0.41434   0.27821   0.00000  Uiso   1.00
O485   O     0.47914   0.59469   0.26767   0.00000  Uiso   1.00
O486   O     0.40785   0.46584   0.23607   0.00000  Uiso   1.00
O487   O     0.60119   0.52512   0.21806   0.00000  Uiso   1.00
O488   O     0.40323   0.52293   0.27820   0.00000  Uiso   1.00
O489   O     0.58773   0.48610   0.26768   0.00000  Uiso   1.00
O490   O     0.47133   0.40236   0.23607   0.00000  Uiso   1.00
O491   O     0.53771   0.58860   0.21806   0.00000  Uiso   1.00
Zn492  Zn    0.52577   0.47423   0.28278   0.00000  Uiso   1.00
Zn493  Zn    0.46792   0.45711   0.22258   0.00000  Uiso   1.00
Zn494  Zn    0.54500   0.52997   0.21188   0.00000  Uiso   1.00
Zn495  Zn    0.46131   0.53868   0.28277   0.00000  Uiso   1.00
C496   C     0.71897   0.49266   0.25920   0.00000  Uiso   1.00
C497   C     0.85861   0.45823   0.45898   0.00000  Uiso   1.00
C498   C     0.87827   0.43630   0.47855   0.00000  Uiso   1.00
C499   C     0.94795   0.50834   0.24172   0.00000  Uiso   1.00
C500   C     0.87382   0.44712   0.01947   0.00000  Uiso   1.00
C501   C     0.84584   0.47737   0.04061   0.00000  Uiso   1.00
C502   C     0.89565   0.42796   0.04000   0.00000  Uiso   1.00
C503   C     0.88801   0.43747   0.08102   0.00000  Uiso   1.00
C504   C     0.84675   0.49373   0.07971   0.00000  Uiso   1.00
C505   C     0.99426   0.51518   0.24003   0.00000  Uiso   1.00
C506   C     0.67405   0.49066   0.26051   0.00000  Uiso   1.00
C507   C     0.75551   0.53358   0.42079   0.00000  Uiso   1.00
C508   C     0.84793   0.65562   0.23797   0.00000  Uiso   1.00
C509   C     0.81814   0.34527   0.26176   0.00000  Uiso   1.00
C510   C     0.82264   0.38939   0.25874   0.00000  Uiso   1.00
C511   C     0.84363   0.61108   0.24125   0.00000  Uiso   1.00
C512   C     0.85461   0.47902   0.14382   0.00000  Uiso   1.00
C513   C     0.81180   0.52095   0.35631   0.00000  Uiso   1.00
C514   C     0.79818   0.52566   0.40012   0.00000  Uiso   1.00
C515   C     0.86378   0.47045   0.10082   0.00000  Uiso   1.00
C516   C     0.74048   0.53143   0.46162   0.00000  Uiso   1.00
C517   C     0.70580   0.52784   0.04730   0.00000  Uiso   1.00
C518   C     0.82623   0.51821   0.42130   0.00000  Uiso   1.00
C519   C     0.69409   0.52797   0.09228   0.00000  Uiso   1.00
C520   C     0.96490   0.41599   0.00852   0.00000  Uiso   1.00
C521   C     0.69386   0.54792   0.21617   0.00000  Uiso   1.00
C522   C     0.67577   0.58014   0.20013   0.00000  Uiso   1.00
C523   C     0.83650   0.53841   0.09646   0.00000  Uiso   1.00
C524   C     0.86583   0.57077   0.07003   0.00000  Uiso   1.00
C525   C     0.93716   0.43551   0.11562   0.00000  Uiso   1.00
C526   C     0.87687   0.36871   0.45161   0.00000  Uiso   1.00
C527   C     0.72081   0.58260   0.40718   0.00000  Uiso   1.00
C528   C     0.87518   0.52969   0.40422   0.00000  Uiso   1.00
C529   C     0.80793   0.50780   0.46090   0.00000  Uiso   1.00
C530   C     0.89429   0.56248   0.43181   0.00000  Uiso   1.00
C531   C     0.76613   0.51880   0.48237   0.00000  Uiso   1.00
C532   C     0.82996   0.48712   0.47997   0.00000  Uiso   1.00
C533   C     0.81855   0.49074   0.02148   0.00000  Uiso   1.00
C534   C     0.77753   0.50219   0.04260   0.00000  Uiso   1.00
C535   C     0.75054   0.51582   0.02380   0.00000  Uiso   1.00
H536   H     0.98537   0.46597   0.27620   0.00000  Uiso   1.00
H537   H     0.70374   0.56005   0.04155   0.00000  Uiso   1.00
H538   H     0.68082   0.50608   0.03658   0.00000  Uiso   1.00
H539   H     0.97777   0.42776   0.03416   0.00000  Uiso   1.00
H540   H     0.96836   0.44183   0.48995   0.00000  Uiso   1.00
H541   H     0.98517   0.39199   0.49016   0.00000  Uiso   1.00
H542   H     0.99561   0.56537   0.17558   0.00000  Uiso   1.00
H543   H     0.98414   0.59556   0.22413   0.00000  Uiso   1.00
H544   H     0.70241   0.60465   0.18798   0.00000  Uiso   1.00
H545   H     0.71287   0.56632   0.23550   0.00000  Uiso   1.00
H546   H     0.71679   0.53145   0.19101   0.00000  Uiso   1.00
H547   H     0.87554   0.33648   0.21612   0.00000  Uiso   1.00
H548   H     0.90038   0.56710   0.06532   0.00000  Uiso   1.00
H549   H     0.85901   0.56745   0.04092   0.00000  Uiso   1.00
H550   H     0.86008   0.60279   0.08446   0.00000  Uiso   1.00
H551   H     0.80236   0.54273   0.10138   0.00000  Uiso   1.00
H552   H     0.84164   0.54715   0.12606   0.00000  Uiso   1.00
H553   H     0.92535   0.44286   0.14819   0.00000  Uiso   1.00
H554   H     0.95158   0.46503   0.10173   0.00000  Uiso   1.00
H555   H     0.96346   0.41549   0.10960   0.00000  Uiso   1.00
H556   H     0.85693   0.35796   0.48059   0.00000  Uiso   1.00
H557   H     0.89755   0.34395   0.43593   0.00000  Uiso   1.00
H558   H     0.79004   0.66508   0.28352   0.00000  Uiso   1.00
H559   H     0.85571   0.37217   0.43311   0.00000  Uiso   1.00
H560   H     0.70097   0.58815   0.38832   0.00000  Uiso   1.00
H561   H     0.75213   0.60319   0.39868   0.00000  Uiso   1.00
H562   H     0.70284   0.59138   0.43847   0.00000  Uiso   1.00
H563   H     0.92843   0.57339   0.41637   0.00000  Uiso   1.00
H564   H     0.87569   0.58986   0.44033   0.00000  Uiso   1.00
H565   H     0.89409   0.54924   0.45890   0.00000  Uiso   1.00
H566   H     0.88246   0.54404   0.37611   0.00000  Uiso   1.00
H567   H     0.89314   0.50213   0.39660   0.00000  Uiso   1.00
H568   H     0.70751   0.53749   0.47621   0.00000  Uiso   1.00
H569   H     0.76515   0.49638   0.07323   0.00000  Uiso   1.00
H570   H     0.86241   0.44901   0.42785   0.00000  Uiso   1.00
H571   H     0.69235   0.49594   0.10051   0.00000  Uiso   1.00
H572   H     0.71809   0.54966   0.10436   0.00000  Uiso   1.00
H573   H     0.99511   0.53887   0.10583   0.00000  Uiso   1.00
O574   O     0.83333   0.50000   0.25000   0.00000  Uiso   1.00
O575   O     0.82360   0.45726   0.16625   0.00000  Uiso   1.00
O576   O     0.79354   0.53979   0.33749   0.00000  Uiso   1.00
O577   O     0.87755   0.50826   0.15877   0.00000  Uiso   1.00
O578   O     0.83865   0.49468   0.33749   0.00000  Uiso   1.00
O579   O     0.92167   0.39712   0.02097   0.00000  Uiso   1.00
O580   O     0.90320   0.41268   0.10137   0.00000  Uiso   1.00
O581   O     0.90390   0.40620   0.45671   0.00000  Uiso   1.00
O582   O     0.72705   0.53991   0.40064   0.00000  Uiso   1.00
O583   O     0.84515   0.41434   0.27821   0.00000  Uiso   1.00
O584   O     0.81247   0.59469   0.26767   0.00000  Uiso   1.00
O585   O     0.74119   0.46584   0.23607   0.00000  Uiso   1.00
O586   O     0.93452   0.52512   0.21806   0.00000  Uiso   1.00
O587   O     0.73656   0.52293   0.27820   0.00000  Uiso   1.00
O588   O     0.92106   0.48610   0.26768   0.00000  Uiso   1.00
O589   O     0.80467   0.40236   0.23607   0.00000  Uiso   1.00
O590   O     0.87104   0.58860   0.21806   0.00000  Uiso   1.00
Zn591  Zn    0.85910   0.47423   0.28278   0.00000  Uiso   1.00
Zn592  Zn    0.80125   0.45711   0.22258   0.00000  Uiso   1.00
Zn593  Zn    0.87833   0.52997   0.21188   0.00000  Uiso   1.00
Zn594  Zn    0.79465   0.53868   0.28277   0.00000  Uiso   1.00
C595   C     0.05231   0.82599   0.25920   0.00000  Uiso   1.00
C596   C     0.19195   0.79157   0.45898   0.00000  Uiso   1.00
C597   C     0.21160   0.76964   0.47855   0.00000  Uiso   1.00
C598   C     0.28128   0.84168   0.24172   0.00000  Uiso   1.00
C599   C     0.20716   0.78045   0.01947   0.00000  Uiso   1.00
C600   C     0.17917   0.81070   0.04061   0.00000  Uiso   1.00
C601   C     0.22898   0.76130   0.04000   0.00000  Uiso   1.00
C602   C     0.22134   0.77080   0.08102   0.00000  Uiso   1.00
C603   C     0.18008   0.82706   0.07971   0.00000  Uiso   1.00
C604   C     0.32759   0.84852   0.24003   0.00000  Uiso   1.00
C605   C     0.00738   0.82400   0.26051   0.00000  Uiso   1.00
C606   C     0.08884   0.86691   0.42079   0.00000  Uiso   1.00
C607   C     0.18126   0.98895   0.23797   0.00000  Uiso   1.00
C608   C     0.15147   0.67860   0.26176   0.00000  Uiso   1.00
C609   C     0.15597   0.72273   0.25874   0.00000  Uiso   1.00
C610   C     0.17697   0.94441   0.24125   0.00000  Uiso   1.00
C611   C     0.18794   0.81236   0.14382   0.00000  Uiso   1.00
C612   C     0.14514   0.85428   0.35631   0.00000  Uiso   1.00
C613   C     0.13151   0.85899   0.40012   0.00000  Uiso   1.00
C614   C     0.19711   0.80379   0.10082   0.00000  Uiso   1.00
C615   C     0.07381   0.86477   0.46162   0.00000  Uiso   1.00
C616   C     0.03913   0.86117   0.04730   0.00000  Uiso   1.00
C617   C     0.15957   0.85154   0.42130   0.00000  Uiso   1.00
C618   C     0.02742   0.86130   0.09228   0.00000  Uiso   1.00
C619   C     0.29823   0.74932   0.00852   0.00000  Uiso   1.00
C620   C     0.02719   0.88126   0.21617   0.00000  Uiso   1.00
C621   C     0.00911   0.91348   0.20013   0.00000  Uiso   1.00
C622   C     0.16983   0.87175   0.09646   0.00000  Uiso   1.00
C623   C     0.19917   0.90410   0.07003   0.00000  Uiso   1.00
C624   C     0.27049   0.76884   0.11562   0.00000  Uiso   1.00
C625   C     0.21020   0.70204   0.45161   0.00000  Uiso   1.00
C626   C     0.05414   0.91594   0.40718   0.00000  Uiso   1.00
C627   C     0.20851   0.86303   0.40422   0.00000  Uiso   1.00
C628   C     0.14126   0.84113   0.46090   0.00000  Uiso   1.00
C629   C     0.22762   0.89582   0.43181   0.00000  Uiso   1.00
C630   C     0.09947   0.85214   0.48237   0.00000  Uiso   1.00
C631   C     0.16330   0.82045   0.47997   0.00000  Uiso   1.00
C632   C     0.15189   0.82407   0.02148   0.00000  Uiso   1.00
C633   C     0.11087   0.83552   0.04260   0.00000  Uiso   1.00
C634   C     0.08388   0.84915   0.02380   0.00000  Uiso   1.00
H635   H     0.31870   0.79930   0.27620   0.00000  Uiso   1.00
H636   H     0.03707   0.89339   0.04155   0.00000  Uiso   1.00
H637   H     0.01415   0.83941   0.03658   0.00000  Uiso   1.00
H638   H     0.31110   0.76109   0.03416   0.00000  Uiso   1.00
H639   H     0.30169   0.77516   0.48995   0.00000  Uiso   1.00
H640   H     0.31850   0.72533   0.49016   0.00000  Uiso   1.00
H641   H     0.32895   0.89871   0.17558   0.00000  Uiso   1.00
H642   H     0.31747   0.92889   0.22413   0.00000  Uiso   1.00
H643   H     0.03574   0.93798   0.18798   0.00000  Uiso   1.00
H644   H     0.04620   0.89965   0.23550   0.00000  Uiso   1.00
H645   H     0.05013   0.86478   0.19101   0.00000  Uiso   1.00
H646   H     0.20887   0.66982   0.21612   0.00000  Uiso   1.00
H647   H     0.23372   0.90043   0.06532   0.00000  Uiso   1.00
H648   H     0.19234   0.90079   0.04092   0.00000  Uiso   1.00
H649   H     0.19341   0.93612   0.08446   0.00000  Uiso   1.00
H650   H     0.13569   0.87606   0.10138   0.00000  Uiso   1.00
H651   H     0.17497   0.88049   0.12606   0.00000  Uiso   1.00
H652   H     0.25869   0.77619   0.14819   0.00000  Uiso   1.00
H653   H     0.28491   0.79836   0.10173   0.00000  Uiso   1.00
H654   H     0.29679   0.74882   0.10960   0.00000  Uiso   1.00
H655   H     0.19026   0.69129   0.48059   0.00000  Uiso   1.00
H656   H     0.23088   0.67729   0.43593   0.00000  Uiso   1.00
H657   H     0.12337   0.99842   0.28352   0.00000  Uiso   1.00
H658   H     0.18904   0.70550   0.43311   0.00000  Uiso   1.00
H659   H     0.03431   0.92148   0.38832   0.00000  Uiso   1.00
H660   H     0.08547   0.93652   0.39868   0.00000  Uiso   1.00
H661   H     0.03618   0.92471   0.43847   0.00000  Uiso   1.00
H662   H     0.26176   0.90673   0.41637   0.00000  Uiso   1.00
H663   H     0.20902   0.92320   0.44033   0.00000  Uiso   1.00
H664   H     0.22743   0.88257   0.45890   0.00000  Uiso   1.00
H665   H     0.21579   0.87737   0.37611   0.00000  Uiso   1.00
H666   H     0.22647   0.83546   0.39660   0.00000  Uiso   1.00
H667   H     0.04084   0.87082   0.47621   0.00000  Uiso   1.00
H668   H     0.09849   0.82972   0.07323   0.00000  Uiso   1.00
H669   H     0.19575   0.78234   0.42785   0.00000  Uiso   1.00
H670   H     0.02568   0.82928   0.10051   0.00000  Uiso   1.00
H671   H     0.05143   0.88300   0.10436   0.00000  Uiso   1.00
H672   H     0.32844   0.87220   0.10583   0.00000  Uiso   1.00
O673   O     0.16667   0.83333   0.25000   0.00000  Uiso   1.00
O674   O     0.15693   0.79060   0.16625   0.00000  Uiso   1.00
O675   O     0.12687   0.87313   0.33749   0.00000  Uiso   1.00
O676   O     0.21088   0.84159   0.15877   0.00000  Uiso   1.00
O677   O     0.17198   0.82802   0.33749   0.00000  Uiso   1.00
O678   O     0.25500   0.73046   0.02097   0.00000  Uiso   1.00
O679   O     0.23653   0.74601   0.10137   0.00000  Uiso   1.00
O680   O     0.23723   0.73953   0.45671   0.00000  Uiso   1.00
O681   O     0.06038   0.87324   0.40064   0.00000  Uiso   1.00
O682   O     0.17849   0.74768   0.27821   0.00000  Uiso   1.00
O683   O     0.14581   0.92803   0.26767   0.00000  Uiso   1.00
O684   O     0.07452   0.79917   0.23607   0.00000  Uiso   1.00
O685   O     0.26785   0.85845   0.21806   0.00000  Uiso   1.00
O686   O     0.06990   0.85627   0.27820   0.00000  Uiso   1.00
O687   O     0.25440   0.81944   0.26768   0.00000  Uiso   1.00
O688   O     0.13800   0.73570   0.23607   0.00000  Uiso   1.00
O689   O     0.20437   0.92193   0.21806   0.00000  Uiso   1.00
Zn690  Zn    0.19244   0.80756   0.28278   0.00000  Uiso   1.00
Zn691  Zn    0.13459   0.79044   0.22258   0.00000  Uiso   1.00
Zn692  Zn    0.21166   0.86331   0.21188   0.00000  Uiso   1.00
Zn693  Zn    0.12798   0.87202   0.28277   0.00000  Uiso   1.00
C694   C     0.38564   0.82599   0.25920   0.00000  Uiso   1.00
C695   C     0.52528   0.79157   0.45898   0.00000  Uiso   1.00
C696   C     0.54493   0.76964   0.47855   0.00000  Uiso   1.00
C697   C     0.61462   0.84168   0.24172   0.00000  Uiso   1.00
C698   C     0.54049   0.78045   0.01947   0.00000  Uiso   1.00
C699   C     0.51251   0.81070   0.04061   0.00000  Uiso   1.00
C700   C     0.56232   0.76130   0.04000   0.00000  Uiso   1.00
C701   C     0.55468   0.77080   0.08102   0.00000  Uiso   1.00
C702   C     0.51341   0.82706   0.07971   0.00000  Uiso   1.00
C703   C     0.66092   0.84852   0.24003   0.00000  Uiso   1.00
C704   C     0.34072   0.82400   0.26051   0.00000  Uiso   1.00
C705   C     0.42217   0.86691   0.42079   0.00000  Uiso   1.00
C706   C     0.51460   0.98895   0.23797   0.00000  Uiso   1.00
C707   C     0.48480   0.67860   0.26176   0.00000  Uiso   1.00
C708   C     0.48930   0.72273   0.25874   0.00000  Uiso   1.00
C709   C     0.51030   0.94441   0.24125   0.00000  Uiso   1.00
C710   C     0.52127   0.81236   0.14382   0.00000  Uiso   1.00
C711   C     0.47847   0.85428   0.35631   0.00000  Uiso   1.00
C712   C     0.46485   0.85899   0.40012   0.00000  Uiso   1.00
C713   C     0.53045   0.80379   0.10082   0.00000  Uiso   1.00
C714   C     0.40714   0.86477   0.46162   0.00000  Uiso   1.00
C715   C     0.37246   0.86117   0.04730   0.00000  Uiso   1.00
C716   C     0.49290   0.85154   0.42130   0.00000  Uiso   1.00
C717   C     0.36076   0.86130   0.09228   0.00000  Uiso   1.00
C718   C     0.63157   0.74932   0.00852   0.00000  Uiso   1.00
C719   C     0.36053   0.88126   0.21617   0.00000  Uiso   1.00
C720   C     0.34244   0.91348   0.20013   0.00000  Uiso   1.00
C721   C     0.50317   0.87175   0.09646   0.00000  Uiso   1.00
C722   C     0.53250   0.90410   0.07003   0.00000  Uiso   1.00
C723   C     0.60382   0.76884   0.11562   0.00000  Uiso   1.00
C724   C     0.54353   0.70204   0.45161   0.00000  Uiso   1.00
C725   C     0.38748   0.91594   0.40718   0.00000  Uiso   1.00
C726   C     0.54184   0.86303   0.40422   0.00000  Uiso   1.00
C727   C     0.47460   0.84113   0.46090   0.00000  Uiso   1.00
C728   C     0.56095   0.89582   0.43181   0.00000  Uiso   1.00
C729   C     0.43280   0.85214   0.48237   0.00000  Uiso   1.00
C730   C     0.49663   0.82045   0.47997   0.00000  Uiso   1.00
C731   C     0.48522   0.82407   0.02148   0.00000  Uiso   1.00
C732   C     0.44420   0.83552   0.04260   0.00000  Uiso   1.00
C733   C     0.41721   0.84915   0.02380   0.00000  Uiso   1.00
H734   H     0.65204   0.79930   0.27620   0.00000  Uiso   1.00
H735   H     0.37040   0.89339   0.04155   0.00000  Uiso   1.00
H736   H     0.34749   0.83941   0.03658   0.00000  Uiso   1.00
H737   H     0.64444   0.76109   0.03416   0.00000  Uiso   1.00
H738   H     0.63502   0.77516   0.48995   0.00000  Uiso   1.00
H739   H     0.65183   0.72533   0.49016   0.00000  Uiso   1.00
H740   H     0.66228   0.89871   0.17558   0.00000  Uiso   1.00
H741   H     0.65080   0.92889   0.22413   0.00000  Uiso   1.00
H742   H     0.36907   0.93798   0.18798   0.00000  Uiso   1.00
H743   H     0.37954   0.89965   0.23550   0.00000  Uiso   1.00
H744   H     0.38346   0.86478   0.19101   0.00000  Uiso   1.00
H745   H     0.54220   0.66982   0.21612   0.00000  Uiso   1.00
H746   H     0.56705   0.90043   0.06532   0.00000  Uiso   1.00
H747   H     0.52568   0.90079   0.04092   0.00000  Uiso   1.00
H748   H     0.52675   0.93612   0.08446   0.00000  Uiso   1.00
H749   H     0.46902   0.87606   0.10138   0.00000  Uiso   1.00
H750   H     0.50831   0.88049   0.12606   0.00000  Uiso   1.00
H751   H     0.59202   0.77619   0.14819   0.00000  Uiso   1.00
H752   H     0.61825   0.79836   0.10173   0.00000  Uiso   1.00
H753   H     0.63013   0.74882   0.10960   0.00000  Uiso   1.00
H754   H     0.52360   0.69129   0.48059   0.00000  Uiso   1.00
H755   H     0.56421   0.67729   0.43593   0.00000  Uiso   1.00
H756   H     0.45671   0.99842   0.28352   0.00000  Uiso   1.00
H757   H     0.52237   0.70550   0.43311   0.00000  Uiso   1.00
H758   H     0.36764   0.92148   0.38832   0.00000  Uiso   1.00
H759   H     0.41880   0.93652   0.39868   0.00000  Uiso   1.00
H760   H     0.36951   0.92471   0.43847   0.00000  Uiso   1.00
H761   H     0.59509   0.90673   0.41637   0.00000  Uiso   1.00
H762   H     0.54235   0.92320   0.44033   0.00000  Uiso   1.00
H763   H     0.56076   0.88257   0.45890   0.00000  Uiso   1.00
H764   H     0.54912   0.87737   0.37611   0.00000  Uiso   1.00
H765   H     0.55981   0.83546   0.39660   0.00000  Uiso   1.00
H766   H     0.37417   0.87082   0.47621   0.00000  Uiso   1.00
H767   H     0.43182   0.82972   0.07323   0.00000  Uiso   1.00
H768   H     0.52908   0.78234   0.42785   0.00000  Uiso   1.00
H769   H     0.35901   0.82928   0.10051   0.00000  Uiso   1.00
H770   H     0.38476   0.88300   0.10436   0.00000  Uiso   1.00
H771   H     0.66177   0.87220   0.10583   0.00000  Uiso   1.00
O772   O     0.50000   0.83333   0.25000   0.00000  Uiso   1.00
O773   O     0.49027   0.79060   0.16625   0.00000  Uiso   1.00
O774   O     0.46020   0.87313   0.33749   0.00000  Uiso   1.00
O775   O     0.54421   0.84159   0.15877   0.00000  Uiso   1.00
O776   O     0.50532   0.82802   0.33749   0.00000  Uiso   1.00
O777   O     0.58833   0.73046   0.02097   0.00000  Uiso   1.00
O778   O     0.56987   0.74601   0.10137   0.00000  Uiso   1.00
O779   O     0.57056   0.73953   0.45671   0.00000  Uiso   1.00
O780   O     0.39371   0.87324   0.40064   0.00000  Uiso   1.00
O781   O     0.51182   0.74768   0.27821   0.00000  Uiso   1.00
O782   O     0.47914   0.92803   0.26767   0.00000  Uiso   1.00
O783   O     0.40785   0.79917   0.23607   0.00000  Uiso   1.00
O784   O     0.60119   0.85845   0.21806   0.00000  Uiso   1.00
O785   O     0.40323   0.85627   0.27820   0.00000  Uiso   1.00
O786   O     0.58773   0.81944   0.26768   0.00000  Uiso   1.00
O787   O     0.47133   0.73570   0.23607   0.00000  Uiso   1.00
O788   O     0.53771   0.92193   0.21806   0.00000  Uiso   1.00
Zn789  Zn    0.52577   0.80756   0.28278   0.00000  Uiso   1.00
Zn790  Zn    0.46792   0.79044   0.22258   0.00000  Uiso   1.00
Zn791  Zn    0.54500   0.86331   0.21188   0.00000  Uiso   1.00
Zn792  Zn    0.46131   0.87202   0.28277   0.00000  Uiso   1.00
C793   C     0.71897   0.82599   0.25920   0.00000  Uiso   1.00
C794   C     0.85861   0.79157   0.45898   0.00000  Uiso   1.00
C795   C     0.87827   0.76964   0.47855   0.00000  Uiso   1.00
C796   C     0.94795   0.84168   0.24172   0.00000  Uiso   1.00
C797   C     0.87382   0.78045   0.01947   0.00000  Uiso   1.00
C798   C     0.84584   0.81070   0.04061   0.00000  Uiso   1.00
C799   C     0.89565   0.76130   0.04000   0.00000  Uiso   1.00
C800   C     0.88801   0.77080   0.08102   0.00000  Uiso   1.00
C801   C     0.84675   0.82706   0.07971   0.00000  Uiso   1.00
C802   C     0.99426   0.84852   0.24003   0.00000  Uiso   1.00
C803   C     0.67405   0.82400   0.26051   0.00000  Uiso   1.00
C804   C     0.75551   0.86691   0.42079   0.00000  Uiso   1.00
C805   C     0.84793   0.98895   0.23797   0.00000  Uiso   1.00
C806   C     0.81814   0.67860   0.26176   0.00000  Uiso   1.00
C807   C     0.82264   0.72273   0.25874   0.00000  Uiso   1.00
C808   C     0.84363   0.94441   0.24125   0.00000  Uiso   1.00
C809   C     0.85461   0.81236   0.14382   0.00000  Uiso   1.00
C810   C     0.81180   0.85428   0.35631   0.00000  Uiso   1.00
C811   C     0.79818   0.85899   0.40012   0.00000  Uiso   1.00
C812   C     0.86378   0.80379   0.10082   0.00000  Uiso   1.00
C813   C     0.74048   0.86477   0.46162   0.00000  Uiso   1.00
C814   C     0.70580   0.86117   0.04730   0.00000  Uiso   1.00
C815   C     0.82623   0.85154   0.42130   0.00000  Uiso   1.00
C816   C     0.69409   0.86130   0.09228   0.00000  Uiso   1.00
C817   C     0.96490   0.74932   0.00852   0.00000  Uiso   1.00
C818   C     0.69386   0.88126   0.21617   0.00000  Uiso   1.00
C819   C     0.67577   0.91348   0.20013   0.00000  Uiso   1.00
C820   C     0.83650   0.87175   0.09646   0.00000  Uiso   1.00
C821   C     0.86583   0.90410   0.07003   0.00000  Uiso   1.00
C822   C     0.93716   0.76884   0.11562   0.00000  Uiso   1.00
C823   C     0.87687   0.70204   0.45161   0.00000  Uiso   1.00
C824   C     0.72081   0.91594   0.40718   0.00000  Uiso   1.00
C825   C     0.87518   0.86303   0.40422   0.00000  Uiso   1.00
C826   C     0.80793   0.84113   0.46090   0.00000  Uiso   1.00
C827   C     0.89429   0.89582   0.43181   0.00000  Uiso   1.00
C828   C     0.76613   0.85214   0.48237   0.00000  Uiso   1.00
C829   C     0.82996   0.82045   0.47997   0.00000  Uiso   1.00
C830   C     0.81855   0.82407   0.02148   0.00000  Uiso   1.00
C831   C     0.77753   0.83552   0.04260   0.00000  Uiso   1.00
C832   C     0.75054   0.84915   0.02380   0.00000  Uiso   1.00
H833   H     0.98537   0.79930   0.27620   0.00000  Uiso   1.00
H834   H     0.70374   0.89339   0.04155   0.00000  Uiso   1.00
H835   H     0.68082   0.83941   0.03658   0.00000  Uiso   1.00
H836   H     0.97777   0.76109   0.03416   0.00000  Uiso   1.00
H837   H     0.96836   0.77516   0.48995   0.00000  Uiso   1.00
H838   H     0.98517   0.72533   0.49016   0.00000  Uiso   1.00
H839   H     0.99561   0.89871   0.17558   0.00000  Uiso   1.00
H840   H     0.98414   0.92889   0.22413   0.00000  Uiso   1.00
H841   H     0.70241   0.93798   0.18798   0.00000  Uiso   1.00
H842   H     0.71287   0.89965   0.23550   0.00000  Uiso   1.00
H843   H     0.71679   0.86478   0.19101   0.00000  Uiso   1.00
H844   H     0.87554   0.66982   0.21612   0.00000  Uiso   1.00
H845   H     0.90038   0.90043   0.06532   0.00000  Uiso   1.00
H846   H     0.85901   0.90079   0.04092   0.00000  Uiso   1.00
H847   H     0.86008   0.93612   0.08446   0.00000  Uiso   1.00
H848   H     0.80236   0.87606   0.10138   0.00000  Uiso   1.00
H849   H     0.84164   0.88049   0.12606   0.00000  Uiso   1.00
H850   H     0.92535   0.77619   0.14819   0.00000  Uiso   1.00
H851   H     0.95158   0.79836   0.10173   0.00000  Uiso   1.00
H852   H     0.96346   0.74882   0.10960   0.00000  Uiso   1.00
H853   H     0.85693   0.69129   0.48059   0.00000  Uiso   1.00
H854   H     0.89755   0.67729   0.43593   0.00000  Uiso   1.00
H855   H     0.79004   0.99842   0.28352   0.00000  Uiso   1.00
H856   H     0.85571   0.70550   0.43311   0.00000  Uiso   1.00
H857   H     0.70097   0.92148   0.38832   0.00000  Uiso   1.00
H858   H     0.75213   0.93652   0.39868   0.00000  Uiso   1.00
H859   H     0.70284   0.92471   0.43847   0.00000  Uiso   1.00
H860   H     0.92843   0.90673   0.41637   0.00000  Uiso   1.00
H861   H     0.87569   0.92320   0.44033   0.00000  Uiso   1.00
H862   H     0.89409   0.88257   0.45890   0.00000  Uiso   1.00
H863   H     0.88246   0.87737   0.37611   0.00000  Uiso   1.00
H864   H     0.89314   0.83546   0.39660   0.00000  Uiso   1.00
H865   H     0.70751   0.87082   0.47621   0.00000  Uiso   1.00
H866   H     0.76515   0.82972   0.07323   0.00000  Uiso   1.00
H867   H     0.86241   0.78234   0.42785   0.00000  Uiso   1.00
H868   H     0.69235   0.82928   0.10051   0.00000  Uiso   1.00
H869   H     0.71809   0.88300   0.10436   0.00000  Uiso   1.00
H870   H     0.99511   0.87220   0.10583   0.00000  Uiso   1.00
O871   O     0.83333   0.83333   0.25000   0.00000  Uiso   1.00
O872   O     0.82360   0.79060   0.16625   0.00000  Uiso   1.00
O873   O     0.79354   0.87313   0.33749   0.00000  Uiso   1.00
O874   O     0.87755   0.84159   0.15877   0.00000  Uiso   1.00
O875   O     0.83865   0.82802   0.33749   0.00000  Uiso   1.00
O876   O     0.92167   0.73046   0.02097   0.00000  Uiso   1.00
O877   O     0.90320   0.74601   0.10137   0.00000  Uiso   1.00
O878   O     0.90390   0.73953   0.45671   0.00000  Uiso   1.00
O879   O     0.72705   0.87324   0.40064   0.00000  Uiso   1.00
O880   O     0.84515   0.74768   0.27821   0.00000  Uiso   1.00
O881   O     0.81247   0.92803   0.26767   0.00000  Uiso   1.00
O882   O     0.74119   0.79917   0.23607   0.00000  Uiso   1.00
O883   O     0.93452   0.85845   0.21806   0.00000  Uiso   1.00
O884   O     0.73656   0.85627   0.27820   0.00000  Uiso   1.00
O885   O     0.92106   0.81944   0.26768   0.00000  Uiso   1.00
O886   O     0.80467   0.73570   0.23607   0.00000  Uiso   1.00
O887   O     0.87104   0.92193   0.21806   0.00000  Uiso   1.00
Zn888  Zn    0.85910   0.80756   0.28278   0.00000  Uiso   1.00
Zn889  Zn    0.80125   0.79044   0.22258   0.00000  Uiso   1.00
Zn890  Zn    0.87833   0.86331   0.21188   0.00000  Uiso   1.00
Zn891  Zn    0.79465   0.87202   0.28277   0.00000  Uiso   1.00
C892   C     0.05231   0.15932   0.75920   0.00000  Uiso   1.00
C893   C     0.19195   0.12490   0.95898   0.00000  Uiso   1.00
C894   C     0.21160   0.10297   0.97855   0.00000  Uiso   1.00
C895   C     0.28128   0.17501   0.74172   0.00000  Uiso   1.00
C896   C     0.20716   0.11379   0.51947   0.00000  Uiso   1.00
C897   C     0.17917   0.14403   0.54061   0.00000  Uiso   1.00
C898   C     0.22898   0.09463   0.54000   0.00000  Uiso   1.00
C899   C     0.22134   0.10413   0.58102   0.00000  Uiso   1.00
C900   C     0.18008   0.16040   0.57971   0.00000  Uiso   1.00
C901   C     0.32759   0.18185   0.74003   0.00000  Uiso   1.00
C902   C     0.00738   0.15733   0.76051   0.00000  Uiso   1.00
C903   C     0.08884   0.20025   0.92079   0.00000  Uiso   1.00
C904   C     0.18126   0.32229   0.73797   0.00000  Uiso   1.00
C905   C     0.15147   0.01194   0.76176   0.00000  Uiso   1.00
C906   C     0.15597   0.05606   0.75874   0.00000  Uiso   1.00
C907   C     0.17697   0.27774   0.74125   0.00000  Uiso   1.00
C908   C     0.18794   0.14569   0.64382   0.00000  Uiso   1.00
C909   C     0.14514   0.18762   0.85631   0.00000  Uiso   1.00
C910   C     0.13151   0.19232   0.90012   0.00000  Uiso   1.00
C911   C     0.19711   0.13712   0.60082   0.00000  Uiso   1.00
C912   C     0.07381   0.19810   0.96162   0.00000  Uiso   1.00
C913   C     0.03913   0.19450   0.54730   0.00000  Uiso   1.00
C914   C     0.15957   0.18487   0.92130   0.00000  Uiso   1.00
C915   C     0.02742   0.19463   0.59228   0.00000  Uiso   1.00
C916   C     0.29823   0.08266   0.50852   0.00000  Uiso   1.00
C917   C     0.02719   0.21459   0.71617   0.00000  Uiso   1.00
C918   C     0.00911   0.24681   0.70013   0.00000  Uiso   1.00
C919   C     0.16983   0.20508   0.59646   0.00000  Uiso   1.00
C920   C     0.19917   0.23743   0.57003   0.00000  Uiso   1.00
C921   C     0.27049   0.10218   0.61562   0.00000  Uiso   1.00
C922   C     0.21020   0.03538   0.95161   0.00000  Uiso   1.00
C923   C     0.05414   0.24927   0.90718   0.00000  Uiso   1.00
C924   C     0.20851   0.19636   0.90422   0.00000  Uiso   1.00
C925   C     0.14126   0.17446   0.96090   0.00000  Uiso   1.00
C926   C     0.22762   0.22915   0.93181   0.00000  Uiso   1.00
C927   C     0.09947   0.18547   0.98237   0.00000  Uiso   1.00
C928   C     0.16330   0.15379   0.97997   0.00000  Uiso   1.00
C929   C     0.15189   0.15741   0.52148   0.00000  Uiso   1.00
C930   C     0.11087   0.16885   0.54260   0.00000  Uiso   1.00
C931   C     0.08388   0.18248   0.52380   0.00000  Uiso   1.00
H932   H     0.31870   0.13263   0.77620   0.00000  Uiso   1.00
H933   H     0.03707   0.22672   0.54155   0.00000  Uiso   1.00
H934   H     0.01415   0.17275   0.53658   0.00000  Uiso   1.00
H935   H     0.31110   0.09442   0.53416   0.00000  Uiso   1.00
H936   H     0.30169   0.10850   0.98995   0.00000  Uiso   1.00
H937   H     0.31850   0.05866   0.99016   0.00000  Uiso   1.00
H938   H     0.32895   0.23204   0.67558   0.00000  Uiso   1.00
H939   H     0.31747   0.26222   0.72413   0.00000  Uiso   1.00
H940   H     0.03574   0.27132   0.68798   0.00000  Uiso   1.00
H941   H     0.04620   0.23299   0.73550   0.00000  Uiso   1.00
H942   H     0.05013   0.19812   0.69101   0.00000  Uiso   1.00
H943   H     0.20887   0.00315   0.71612   0.00000  Uiso   1.00
H944   H     0.23372   0.23376   0.56532   0.00000  Uiso   1.00
H945   H     0.19234   0.23412   0.54092   0.00000  Uiso   1.00
H946   H     0.19341   0.26946   0.58446   0.00000  Uiso   1.00
H947   H     0.13569   0.20939   0.60138   0.00000  Uiso   1.00
H948   H     0.17497   0.21382   0.62606   0.00000  Uiso   1.00
H949   H     0.25869   0.10953   0.64819   0.00000  Uiso   1.00
H950   H     0.28491   0.13169   0.60173   0.00000  Uiso   1.00
H951   H     0.29679   0.08216   0.60960   0.00000  Uiso   1.00
H952   H     0.19026   0.02463   0.98059   0.00000  Uiso   1.00
H953   H     0.23088   0.01062   0.93593   0.00000  Uiso   1.00
H954   H     0.12337   0.33175   0.78352   0.00000  Uiso   1.00
H955   H     0.18904   0.03884   0.93311   0.00000  Uiso   1.00
H956   H     0.03431   0.25481   0.88832   0.00000  Uiso   1.00
H957   H     0.08547   0.26985   0.89868   0.00000  Uiso   1.00
H958   H     0.03618   0.25805   0.93847   0.00000  Uiso   1.00
H959   H     0.26176   0.24006   0.91637   0.00000  Uiso   1.00
H960   H     0.20902   0.25653   0.94033   0.00000  Uiso   1.00
H961   H     0.22743   0.21590   0.95890   0.00000  Uiso   1.00
H962   H     0.21579   0.21070   0.87611   0.00000  Uiso   1.00
H963   H     0.22647   0.16880   0.89660   0.00000  Uiso   1.00
H964   H     0.04084   0.20416   0.97621   0.00000  Uiso   1.00
H965   H     0.09849   0.16305   0.57323   0.00000  Uiso   1.00
H966   H     0.19575   0.11567   0.92785   0.00000  Uiso   1.00
H967   H     0.02568   0.16261   0.60051   0.00000  Uiso   1.00
H968   H     0.05143   0.21633   0.60436   0.00000  Uiso   1.00
H969   H     0.32844   0.20553   0.60583   0.00000  Uiso   1.00
O970   O     0.16667   0.16667   0.75000   0.00000  Uiso   1.00
O971   O     0.15693   0.12393   0.66625   0.00000  Uiso   1.00
O972   O     0.12687   0.20646   0.83749   0.00000  Uiso   1.00
O973   O     0.21088   0.17493   0.65877   0.00000  Uiso   1.00
O974   O     0.17198   0.16135   0.83749   0.00000  Uiso   1.00
O975   O     0.25500   0.06379   0.52097   0.00000  Uiso   1.00
O976   O     0.23653   0.07935   0.60137   0.00000  Uiso   1.00
O977   O     0.23723   0.07287   0.95671   0.00000  Uiso   1.00
O978   O     0.06038   0.20658   0.90064   0.00000  Uiso   1.00
O979   O     0.17849   0.08101   0.77821   0.00000  Uiso   1.00
O980   O     0.14581   0.26136   0.76767   0.00000  Uiso   1.00
O981   O     0.07452   0.13251   0.73607   0.00000  Uiso   1.00
O982   O     0.26785   0.19179   0.71806   0.00000  Uiso   1.00
O983   O     0.06990   0.18960   0.77820   0.00000  Uiso   1.00
O984   O     0.25440   0.15277   0.76768   0.00000  Uiso   1.00
O985   O     0.13800   0.06903   0.73607   0.00000  Uiso   1.00
O986   O     0.20437   0.25527   0.71806   0.00000  Uiso   1.00
Zn987  Zn    0.19244   0.14090   0.78278   0.00000  Uiso   1.00
Zn988  Zn    0.13459   0.12378   0.72258   0.00000  Uiso   1.00
Zn989  Zn    0.21166   0.19664   0.71188   0.00000  Uiso   1.00
Zn990  Zn    0.12798   0.20535   0.78277   0.00000  Uiso   1.00
C991   C     0.38564   0.15932   0.75920   0.00000  Uiso   1.00
C992   C     0.52528   0.12490   0.95898   0.00000  Uiso   1.00
C993   C     0.54493   0.10297   0.97855   0.00000  Uiso   1.00
C994   C     0.61462   0.17501   0.74172   0.00000  Uiso   1.00
C995   C     0.54049   0.11379   0.51947   0.00000  Uiso   1.00
C996   C     0.51251   0.14403   0.54061   0.00000  Uiso   1.00
C997   C     0.56232   0.09463   0.54000   0.00000  Uiso   1.00
C998   C     0.55468   0.10413   0.58102   0.00000  Uiso   1.00
C999   C     0.51341   0.16040   0.57971   0.00000  Uiso   1.00
C1000  C     0.66092   0.18185   0.74003   0.00000  Uiso   1.00
C1001  C     0.34072   0.15733   0.76051   0.00000  Uiso   1.00
C1002  C     0.42217   0.20025   0.92079   0.00000  Uiso   1.00
C1003  C     0.51460   0.32229   0.73797   0.00000  Uiso   1.00
C1004  C     0.48480   0.01194   0.76176   0.00000  Uiso   1.00
C1005  C     0.48930   0.05606   0.75874   0.00000  Uiso   1.00
C1006  C     0.51030   0.27774   0.74125   0.00000  Uiso   1.00
C1007  C     0.52127   0.14569   0.64382   0.00000  Uiso   1.00
C1008  C     0.47847   0.18762   0.85631   0.00000  Uiso   1.00
C1009  C     0.46485   0.19232   0.90012   0.00000  Uiso   1.00
C1010  C     0.53045   0.13712   0.60082   0.00000  Uiso   1.00
C1011  C     0.40714   0.19810   0.96162   0.00000  Uiso   1.00
C1012  C     0.37246   0.19450   0.54730   0.00000  Uiso   1.00
C1013  C     0.49290   0.18487   0.92130   0.00000  Uiso   1.00
C1014  C     0.36076   0.19463   0.59228   0.00000  Uiso   1.00
C1015  C     0.63157   0.08266   0.50852   0.00000  Uiso   1.00
C1016  C     0.36053   0.21459   0.71617   0.00000  Uiso   1.00
C1017  C     0.34244   0.24681   0.70013   0.00000  Uiso   1.00
C1018  C     0.50317   0.20508   0.59646   0.00000  Uiso   1.00
C1019  C     0.53250   0.23743   0.57003   0.00000  Uiso   1.00
C1020  C     0.60382   0.10218   0.61562   0.00000  Uiso   1.00
C1021  C     0.54353   0.03538   0.95161   0.00000  Uiso   1.00
C1022  C     0.38748   0.24927   0.90718   0.00000  Uiso   1.00
C1023  C     0.54184   0.19636   0.90422   0.00000  Uiso   1.00
C1024  C     0.47460   0.17446   0.96090   0.00000  Uiso   1.00
C1025  C     0.56095   0.22915   0.93181   0.00000  Uiso   1.00
C1026  C     0.43280   0.18547   0.98237   0.00000  Uiso   1.00
C1027  C     0.49663   0.15379   0.97997   0.00000  Uiso   1.00
C1028  C     0.48522   0.15741   0.52148   0.00000  Uiso   1.00
C1029  C     0.44420   0.16885   0.54260   0.00000  Uiso   1.00
C1030  C     0.41721   0.18248   0.52380   0.00000  Uiso   1.00
H1031  H     0.65204   0.13263   0.77620   0.00000  Uiso   1.00
H1032  H     0.37040   0.22672   0.54155   0.00000  Uiso   1.00
H1033  H     0.34749   0.17275   0.53658   0.00000  Uiso   1.00
H1034  H     0.64444   0.09442   0.53416   0.00000  Uiso   1.00
H1035  H     0.63502   0.10850   0.98995   0.00000  Uiso   1.00
H1036  H     0.65183   0.05866   0.99016   0.00000  Uiso   1.00
H1037  H     0.66228   0.23204   0.67558   0.00000  Uiso   1.00
H1038  H     0.65080   0.26222   0.72413   0.00000  Uiso   1.00
H1039  H     0.36907   0.27132   0.68798   0.00000  Uiso   1.00
H1040  H     0.37954   0.23299   0.73550   0.00000  Uiso   1.00
H1041  H     0.38346   0.19812   0.69101   0.00000  Uiso   1.00
H1042  H     0.54220   0.00315   0.71612   0.00000  Uiso   1.00
H1043  H     0.56705   0.23376   0.56532   0.00000  Uiso   1.00
H1044  H     0.52568   0.23412   0.54092   0.00000  Uiso   1.00
H1045  H     0.52675   0.26946   0.58446   0.00000  Uiso   1.00
H1046  H     0.46902   0.20939   0.60138   0.00000  Uiso   1.00
H1047  H     0.50831   0.21382   0.62606   0.00000  Uiso   1.00
H1048  H     0.59202   0.10953   0.64819   0.00000  Uiso   1.00
H1049  H     0.61825   0.13169   0.60173   0.00000  Uiso   1.00
H1050  H     0.63013   0.08216   0.60960   0.00000  Uiso   1.00
H1051  H     0.52360   0.02463   0.98059   0.00000  Uiso   1.00
H1052  H     0.56421   0.01062   0.93593   0.00000  Uiso   1.00
H1053  H     0.45671   0.33175   0.78352   0.00000  Uiso   1.00
H1054  H     0.52237   0.03884   0.93311   0.00000  Uiso   1.00
H1055  H     0.36764   0.25481   0.88832   0.00000  Uiso   1.00
H1056  H     0.41880   0.26985   0.89868   0.00000  Uiso   1.00
H1057  H     0.36951   0.25805   0.93847   0.00000  Uiso   1.00
H1058  H     0.59509   0.24006   0.91637   0.00000  Uiso   1.00
H1059  H     0.54235   0.25653   0.94033   0.00000  Uiso   1.00
H1060  H     0.56076   0.21590   0.95890   0.00000  Uiso   1.00
H1061  H     0.54912   0.21070   0.87611   0.00000  Uiso   1.00
H1062  H     0.55981   0.16880   0.89660   0.00000  Uiso   1.00
H1063  H     0.37417   0.20416   0.97621   0.00000  Uiso   1.00
H1064  H     0.43182   0.16305   0.57323   0.00000  Uiso   1.00
H1065  H     0.52908   0.11567   0.92785   0.00000  Uiso   1.00
H1066  H     0.35901   0.16261   0.60051   0.00000  Uiso   1.00
H1067  H     0.38476   0.21633   0.60436   0.00000  Uiso   1.00
H1068  H     0.66177   0.20553   0.60583   0.00000  Uiso   1.00
O1069  O     0.50000   0.16667   0.75000   0.00000  Uiso   1.00
O1070  O     0.49027   0.12393   0.66625   0.00000  Uiso   1.00
O1071  O     0.46020   0.20646   0.83749   0.00000  Uiso   1.00
O1072  O     0.54421   0.17493   0.65877   0.00000  Uiso   1.00
O1073  O     0.50532   0.16135   0.83749   0.00000  Uiso   1.00
O1074  O     0.58833   0.06379   0.52097   0.00000  Uiso   1.00
O1075  O     0.56987   0.07935   0.60137   0.00000  Uiso   1.00
O1076  O     0.57056   0.07287   0.95671   0.00000  Uiso   1.00
O1077  O     0.39371   0.20658   0.90064   0.00000  Uiso   1.00
O1078  O     0.51182   0.08101   0.77821   0.00000  Uiso   1.00
O1079  O     0.47914   0.26136   0.76767   0.00000  Uiso   1.00
O1080  O     0.40785   0.13251   0.73607   0.00000  Uiso   1.00
O1081  O     0.60119   0.19179   0.71806   0.00000  Uiso   1.00
O1082  O     0.40323   0.18960   0.77820   0.00000  Uiso   1.00
O1083  O     0.58773   0.15277   0.76768   0.00000  Uiso   1.00
O1084  O     0.47133   0.06903   0.73607   0.00000  Uiso   1.00
O1085  O     0.53771   0.25527   0.71806   0.00000  Uiso   1.00
Zn1086 Zn    0.52577   0.14090   0.78278   0.00000  Uiso   1.00
Zn1087 Zn    0.46792   0.12378   0.72258   0.00000  Uiso   1.00
Zn1088 Zn    0.54500   0.19664   0.71188   0.00000  Uiso   1.00
Zn1089 Zn    0.46131   0.20535   0.78277   0.00000  Uiso   1.00
C1090  C     0.71897   0.15932   0.75920   0.00000  Uiso   1.00
C1091  C     0.85861   0.12490   0.95898   0.00000  Uiso   1.00
C1092  C     0.87827   0.10297   0.97855   0.00000  Uiso   1.00
C1093  C     0.94795   0.17501   0.74172   0.00000  Uiso   1.00
C1094  C     0.87382   0.11379   0.51947   0.00000  Uiso   1.00
C1095  C     0.84584   0.14403   0.54061   0.00000  Uiso   1.00
C1096  C     0.89565   0.09463   0.54000   0.00000  Uiso   1.00
C1097  C     0.88801   0.10413   0.58102   0.00000  Uiso   1.00
C1098  C     0.84675   0.16040   0.57971   0.00000  Uiso   1.00
C1099  C     0.99426   0.18185   0.74003   0.00000  Uiso   1.00
C1100  C     0.67405   0.15733   0.76051   0.00000  Uiso   1.00
C1101  C     0.75551   0.20025   0.92079   0.00000  Uiso   1.00
C1102  C     0.84793   0.32229   0.73797   0.00000  Uiso   1.00
C1103  C     0.81814   0.01194   0.76176   0.00000  Uiso   1.00
C1104  C     0.82264   0.05606   0.75874   0.00000  Uiso   1.00
C1105  C     0.84363   0.27774   0.74125   0.00000  Uiso   1.00
C1106  C     0.85461   0.14569   0.64382   0.00000  Uiso   1.00
C1107  C     0.81180   0.18762   0.85631   0.00000  Uiso   1.00
C1108  C     0.79818   0.19232   0.90012   0.00000  Uiso   1.00
C1109  C     0.86378   0.13712   0.60082   0.00000  Uiso   1.00
C1110  C     0.74048   0.19810   0.96162   0.00000  Uiso   1.00
C1111  C     0.70580   0.19450   0.54730   0.00000  Uiso   1.00
C1112  C     0.82623   0.18487   0.92130   0.00000  Uiso   1.00
C1113  C     0.69409   0.19463   0.59228   0.00000  Uiso   1.00
C1114  C     0.96490   0.08266   0.50852   0.00000  Uiso   1.00
C1115  C     0.69386   0.21459   0.71617   0.00000  Uiso   1.00
C1116  C     0.67577   0.24681   0.70013   0.00000  Uiso   1.00
C1117  C     0.83650   0.20508   0.59646   0.00000  Uiso   1.00
C1118  C     0.86583   0.23743   0.57003   0.00000  Uiso   1.00
C1119  C     0.93716   0.10218   0.61562   0.00000  Uiso   1.00
C1120  C     0.87687   0.03538   0.95161   0.00000  Uiso   1.00
C1121  C     0.72081   0.24927   0.90718   0.00000  Uiso   1.00
C1122  C     0.87518   0.19636   0.90422   0.00000  Uiso   1.00
C1123  C     0.80793   0.17446   0.96090   0.00000  Uiso   1.00
C1124  C     0.89429   0.22915   0.93181   0.00000  Uiso   1.00
C1125  C     0.76613   0.18547   0.98237   0.00000  Uiso   1.00
C1126  C     0.82996   0.15379   0.97997   0.00000  Uiso   1.00
C1127  C     0.81855   0.15741   0.52148   0.00000  Uiso   1.00
C1128  C     0.77753   0.16885   0.54260   0.00000  Uiso   1.00
C1129  C     0.75054   0.18248   0.52380   0.00000  Uiso   1.00
H1130  H     0.98537   0.13263   0.77620   0.00000  Uiso   1.00
H1131  H     0.70374   0.22672   0.54155   0.00000  Uiso   1.00
H1132  H     0.68082   0.17275   0.53658   0.00000  Uiso   1.00
H1133  H     0.97777   0.09442   0.53416   0.00000  Uiso   1.00
H1134  H     0.96836   0.10850   0.98995   0.00000  Uiso   1.00
H1135  H     0.98517   0.05866   0.99016   0.00000  Uiso   1.00
H1136  H     0.99561   0.23204   0.67558   0.00000  Uiso   1.00
H1137  H     0.98414   0.26222   0.72413   0.00000  Uiso   1.00
H1138  H     0.70241   0.27132   0.68798   0.00000  Uiso   1.00
H1139  H     0.71287   0.23299   0.73550   0.00000  Uiso   1.00
H1140  H     0.71679   0.19812   0.69101   0.00000  Uiso   1.00
H1141  H     0.87554   0.00315   0.71612   0.00000  Uiso   1.00
H1142  H     0.90038   0.23376   0.56532   0.00000  Uiso   1.00
H1143  H     0.85901   0.23412   0.54092   0.00000  Uiso   1.00
H1144  H     0.86008   0.26946   0.58446   0.00000  Uiso   1.00
H1145  H     0.80236   0.20939   0.60138   0.00000  Uiso   1.00
H1146  H     0.84164   0.21382   0.62606   0.00000  Uiso   1.00
H1147  H     0.92535   0.10953   0.64819   0.00000  Uiso   1.00
H1148  H     0.95158   0.13169   0.60173   0.00000  Uiso   1.00
H1149  H     0.96346   0.08216   0.60960   0.00000  Uiso   1.00
H1150  H     0.85693   0.02463   0.98059   0.00000  Uiso   1.00
H1151  H     0.89755   0.01062   0.93593   0.00000  Uiso   1.00
H1152  H     0.79004   0.33175   0.78352   0.00000  Uiso   1.00
H1153  H     0.85571   0.03884   0.93311   0.00000  Uiso   1.00
H1154  H     0.70097   0.25481   0.88832   0.00000  Uiso   1.00
H1155  H     0.75213   0.26985   0.89868   0.00000  Uiso   1.00
H1156  H     0.70284   0.25805   0.93847   0.00000  Uiso   1.00
H1157  H     0.92843   0.24006   0.91637   0.00000  Uiso   1.00
H1158  H     0.87569   0.25653   0.94033   0.00000  Uiso   1.00
H1159  H     0.89409   0.21590   0.95890   0.00000  Uiso   1.00
H1160  H     0.88246   0.21070   0.87611   0.00000  Uiso   1.00
H1161  H     0.89314   0.16880   0.89660   0.00000  Uiso   1.00
H1162  H     0.70751   0.20416   0.97621   0.00000  Uiso   1.00
H1163  H     0.76515   0.16305   0.57323   0.00000  Uiso   1.00
H1164  H     0.86241   0.11567   0.92785   0.00000  Uiso   1.00
H1165  H     0.69235   0.16261   0.60051   0.00000  Uiso   1.00
H1166  H     0.71809   0.21633   0.60436   0.00000  Uiso   1.00
H1167  H     0.99511   0.20553   0.60583   0.00000  Uiso   1.00
O1168  O     0.83333   0.16667   0.75000   0.00000  Uiso   1.00
O1169  O     0.82360   0.12393   0.66625   0.00000  Uiso   1.00
O1170  O     0.79354   0.20646   0.83749   0.00000  Uiso   1.00
O1171  O     0.87755   0.17493   0.65877   0.00000  Uiso   1.00
O1172  O     0.83865   0.16135   0.83749   0.00000  Uiso   1.00
O1173  O     0.92167   0.06379   0.52097   0.00000  Uiso   1.00
O1174  O     0.90320   0.07935   0.60137   0.00000  Uiso   1.00
O1175  O     0.90390   0.07287   0.95671   0.00000  Uiso   1.00
O1176  O     0.72705   0.20658   0.90064   0.00000  Uiso   1.00
O1177  O     0.84515   0.08101   0.77821   0.00000  Uiso   1.00
O1178  O     0.81247   0.26136   0.76767   0.00000  Uiso   1.00
O1179  O     0.74119   0.13251   0.73607   0.00000  Uiso   1.00
O1180  O     0.93452   0.19179   0.71806   0.00000  Uiso   1.00
O1181  O     0.73656   0.18960   0.77820   0.00000  Uiso   1.00
O1182  O     0.92106   0.15277   0.76768   0.00000  Uiso   1.00
O1183  O     0.80467   0.06903   0.73607   0.00000  Uiso   1.00
O1184  O     0.87104   0.25527   0.71806   0.00000  Uiso   1.00
Zn1185 Zn    0.85910   0.14090   0.78278   0.00000  Uiso   1.00
Zn1186 Zn    0.80125   0.12378   0.72258   0.00000  Uiso   1.00
Zn1187 Zn    0.87833   0.19664   0.71188   0.00000  Uiso   1.00
Zn1188 Zn    0.79465   0.20535   0.78277   0.00000  Uiso   1.00
C1189  C     0.05231   0.49266   0.75920   0.00000  Uiso   1.00
C1190  C     0.19195   0.45823   0.95898   0.00000  Uiso   1.00
C1191  C     0.21160   0.43630   0.97855   0.00000  Uiso   1.00
C1192  C     0.28128   0.50834   0.74172   0.00000  Uiso   1.00
C1193  C     0.20716   0.44712   0.51947   0.00000  Uiso   1.00
C1194  C     0.17917   0.47737   0.54061   0.00000  Uiso   1.00
C1195  C     0.22898   0.42796   0.54000   0.00000  Uiso   1.00
C1196  C     0.22134   0.43747   0.58102   0.00000  Uiso   1.00
C1197  C     0.18008   0.49373   0.57971   0.00000  Uiso   1.00
C1198  C     0.32759   0.51518   0.74003   0.00000  Uiso   1.00
C1199  C     0.00738   0.49066   0.76051   0.00000  Uiso   1.00
C1200  C     0.08884   0.53358   0.92079   0.00000  Uiso   1.00
C1201  C     0.18126   0.65562   0.73797   0.00000  Uiso   1.00
C1202  C     0.15147   0.34527   0.76176   0.00000  Uiso   1.00
C1203  C     0.15597   0.38939   0.75874   0.00000  Uiso   1.00
C1204  C     0.17697   0.61108   0.74125   0.00000  Uiso   1.00
C1205  C     0.18794   0.47902   0.64382   0.00000  Uiso   1.00
C1206  C     0.14514   0.52095   0.85631   0.00000  Uiso   1.00
C1207  C     0.13151   0.52566   0.90012   0.00000  Uiso   1.00
C1208  C     0.19711   0.47045   0.60082   0.00000  Uiso   1.00
C1209  C     0.07381   0.53143   0.96162   0.00000  Uiso   1.00
C1210  C     0.03913   0.52784   0.54730   0.00000  Uiso   1.00
C1211  C     0.15957   0.51821   0.92130   0.00000  Uiso   1.00
C1212  C     0.02742   0.52797   0.59228   0.00000  Uiso   1.00
C1213  C     0.29823   0.41599   0.50852   0.00000  Uiso   1.00
C1214  C     0.02719   0.54792   0.71617   0.00000  Uiso   1.00
C1215  C     0.00911   0.58014   0.70013   0.00000  Uiso   1.00
C1216  C     0.16983   0.53841   0.59646   0.00000  Uiso   1.00
C1217  C     0.19917   0.57077   0.57003   0.00000  Uiso   1.00
C1218  C     0.27049   0.43551   0.61562   0.00000  Uiso   1.00
C1219  C     0.21020   0.36871   0.95161   0.00000  Uiso   1.00
C1220  C     0.05414   0.58260   0.90718   0.00000  Uiso   1.00
C1221  C     0.20851   0.52969   0.90422   0.00000  Uiso   1.00
C1222  C     0.14126   0.50780   0.96090   0.00000  Uiso   1.00
C1223  C     0.22762   0.56248   0.93181   0.00000  Uiso   1.00
C1224  C     0.09947   0.51880   0.98237   0.00000  Uiso   1.00
C1225  C     0.16330   0.48712   0.97997   0.00000  Uiso   1.00
C1226  C     0.15189   0.49074   0.52148   0.00000  Uiso   1.00
C1227  C     0.11087   0.50219   0.54260   0.00000  Uiso   1.00
C1228  C     0.08388   0.51582   0.52380   0.00000  Uiso   1.00
H1229  H     0.31870   0.46597   0.77620   0.00000  Uiso   1.00
H1230  H     0.03707   0.56005   0.54155   0.00000  Uiso   1.00
H1231  H     0.01415   0.50608   0.53658   0.00000  Uiso   1.00
H1232  H     0.31110   0.42776   0.53416   0.00000  Uiso   1.00
H1233  H     0.30169   0.44183   0.98995   0.00000  Uiso   1.00
H1234  H     0.31850   0.39199   0.99016   0.00000  Uiso   1.00
H1235  H     0.32895   0.56537   0.67558   0.00000  Uiso   1.00
H1236  H     0.31747   0.59556   0.72413   0.00000  Uiso   1.00
H1237  H     0.03574   0.60465   0.68798   0.00000  Uiso   1.00
H1238  H     0.04620   0.56632   0.73550   0.00000  Uiso   1.00
H1239  H     0.05013   0.53145   0.69101   0.00000  Uiso   1.00
H1240  H     0.20887   0.33648   0.71612   0.00000  Uiso   1.00
H1241  H     0.23372   0.56710   0.56532   0.00000  Uiso   1.00
H1242  H     0.19234   0.56745   0.54092   0.00000  Uiso   1.00
H1243  H     0.19341   0.60279   0.58446   0.00000  Uiso   1.00
H1244  H     0.13569   0.54273   0.60138   0.00000  Uiso   1.00
H1245  H     0.17497   0.54715   0.62606   0.00000  Uiso   1.00
H1246  H     0.25869   0.44286   0.64819   0.00000  Uiso   1.00
H1247  H     0.28491   0.46503   0.60173   0.00000  Uiso   1.00
H1248  H     0.29679   0.41549   0.60960   0.00000  Uiso   1.00
H1249  H     0.19026   0.35796   0.98059   0.00000  Uiso   1.00
H1250  H     0.23088   0.34395   0.93593   0.00000  Uiso   1.00
H1251  H     0.12337   0.66508   0.78352   0.00000  Uiso   1.00
H1252  H     0.18904   0.37217   0.93311   0.00000  Uiso   1.00
H1253  H     0.03431   0.58815   0.88832   0.00000  Uiso   1.00
H1254  H     0.08547   0.60319   0.89868   0.00000  Uiso   1.00
H1255  H     0.03618   0.59138   0.93847   0.00000  Uiso   1.00
H1256  H     0.26176   0.57339   0.91637   0.00000  Uiso   1.00
H1257  H     0.20902   0.58986   0.94033   0.00000  Uiso   1.00
H1258  H     0.22743   0.54924   0.95890   0.00000  Uiso   1.00
H1259  H     0.21579   0.54404   0.87611   0.00000  Uiso   1.00
H1260  H     0.22647   0.50213   0.89660   0.00000  Uiso   1.00
H1261  H     0.04084   0.53749   0.97621   0.00000  Uiso   1.00
H1262  H     0.09849   0.49638   0.57323   0.00000  Uiso   1.00
H1263  H     0.19575   0.44901   0.92785   0.00000  Uiso   1.00
H1264  H     0.02568   0.49594   0.60051   0.00000  Uiso   1.00
H1265  H     0.05143   0.54966   0.60436   0.00000  Uiso   1.00
H1266  H     0.32844   0.53887   0.60583   0.00000  Uiso   1.00
O1267  O     0.16667   0.50000   0.75000   0.00000  Uiso   1.00
O1268  O     0.15693   0.45726   0.66625   0.00000  Uiso   1.00
O1269  O     0.12687   0.53979   0.83749   0.00000  Uiso   1.00
O1270  O     0.21088   0.50826   0.65877   0.00000  Uiso   1.00
O1271  O     0.17198   0.49468   0.83749   0.00000  Uiso   1.00
O1272  O     0.25500   0.39712   0.52097   0.00000  Uiso   1.00
O1273  O     0.23653   0.41268   0.60137   0.00000  Uiso   1.00
O1274  O     0.23723   0.40620   0.95671   0.00000  Uiso   1.00
O1275  O     0.06038   0.53991   0.90064   0.00000  Uiso   1.00
O1276  O     0.17849   0.41434   0.77821   0.00000  Uiso   1.00
O1277  O     0.14581   0.59469   0.76767   0.00000  Uiso   1.00
O1278  O     0.07452   0.46584   0.73607   0.00000  Uiso   1.00
O1279  O     0.26785   0.52512   0.71806   0.00000  Uiso   1.00
O1280  O     0.06990   0.52293   0.77820   0.00000  Uiso   1.00
O1281  O     0.25440   0.48610   0.76768   0.00000  Uiso   1.00
O1282  O     0.13800   0.40236   0.73607   0.00000  Uiso   1.00
O1283  O     0.20437   0.58860   0.71806   0.00000  Uiso   1.00
Zn1284 Zn    0.19244   0.47423   0.78278   0.00000  Uiso   1.00
Zn1285 Zn    0.13459   0.45711   0.72258   0.00000  Uiso   1.00
Zn1286 Zn    0.21166   0.52997   0.71188   0.00000  Uiso   1.00
Zn1287 Zn    0.12798   0.53868   0.78277   0.00000  Uiso   1.00
C1288  C     0.38564   0.49266   0.75920   0.00000  Uiso   1.00
C1289  C     0.52528   0.45823   0.95898   0.00000  Uiso   1.00
C1290  C     0.54493   0.43630   0.97855   0.00000  Uiso   1.00
C1291  C     0.61462   0.50834   0.74172   0.00000  Uiso   1.00
C1292  C     0.54049   0.44712   0.51947   0.00000  Uiso   1.00
C1293  C     0.51251   0.47737   0.54061   0.00000  Uiso   1.00
C1294  C     0.56232   0.42796   0.54000   0.00000  Uiso   1.00
C1295  C     0.55468   0.43747   0.58102   0.00000  Uiso   1.00
C1296  C     0.51341   0.49373   0.57971   0.00000  Uiso   1.00
C1297  C     0.66092   0.51518   0.74003   0.00000  Uiso   1.00
C1298  C     0.34072   0.49066   0.76051   0.00000  Uiso   1.00
C1299  C     0.42217   0.53358   0.92079   0.00000  Uiso   1.00
C1300  C     0.51460   0.65562   0.73797   0.00000  Uiso   1.00
C1301  C     0.48480   0.34527   0.76176   0.00000  Uiso   1.00
C1302  C     0.48930   0.38939   0.75874   0.00000  Uiso   1.00
C1303  C     0.51030   0.61108   0.74125   0.00000  Uiso   1.00
C1304  C     0.52127   0.47902   0.64382   0.00000  Uiso   1.00
C1305  C     0.47847   0.52095   0.85631   0.00000  Uiso   1.00
C1306  C     0.46485   0.52566   0.90012   0.00000  Uiso   1.00
C1307  C     0.53045   0.47045   0.60082   0.00000  Uiso   1.00
C1308  C     0.40714   0.53143   0.96162   0.00000  Uiso   1.00
C1309  C     0.37246   0.52784   0.54730   0.00000  Uiso   1.00
C1310  C     0.49290   0.51821   0.92130   0.00000  Uiso   1.00
C1311  C     0.36076   0.52797   0.59228   0.00000  Uiso   1.00
C1312  C     0.63157   0.41599   0.50852   0.00000  Uiso   1.00
C1313  C     0.36053   0.54792   0.71617   0.00000  Uiso   1.00
C1314  C     0.34244   0.58014   0.70013   0.00000  Uiso   1.00
C1315  C     0.50317   0.53841   0.59646   0.00000  Uiso   1.00
C1316  C     0.53250   0.57077   0.57003   0.00000  Uiso   1.00
C1317  C     0.60382   0.43551   0.61562   0.00000  Uiso   1.00
C1318  C     0.54353   0.36871   0.95161   0.00000  Uiso   1.00
C1319  C     0.38748   0.58260   0.90718   0.00000  Uiso   1.00
C1320  C     0.54184   0.52969   0.90422   0.00000  Uiso   1.00
C1321  C     0.47460   0.50780   0.96090   0.00000  Uiso   1.00
C1322  C     0.56095   0.56248   0.93181   0.00000  Uiso   1.00
C1323  C     0.43280   0.51880   0.98237   0.00000  Uiso   1.00
C1324  C     0.49663   0.48712   0.97997   0.00000  Uiso   1.00
C1325  C     0.48522   0.49074   0.52148   0.00000  Uiso   1.00
C1326  C     0.44420   0.50219   0.54260   0.00000  Uiso   1.00
C1327  C     0.41721   0.51582   0.52380   0.00000  Uiso   1.00
H1328  H     0.65204   0.46597   0.77620   0.00000  Uiso   1.00
H1329  H     0.37040   0.56005   0.54155   0.00000  Uiso   1.00
H1330  H     0.34749   0.50608   0.53658   0.00000  Uiso   1.00
H1331  H     0.64444   0.42776   0.53416   0.00000  Uiso   1.00
H1332  H     0.63502   0.44183   0.98995   0.00000  Uiso   1.00
H1333  H     0.65183   0.39199   0.99016   0.00000  Uiso   1.00
H1334  H     0.66228   0.56537   0.67558   0.00000  Uiso   1.00
H1335  H     0.65080   0.59556   0.72413   0.00000  Uiso   1.00
H1336  H     0.36907   0.60465   0.68798   0.00000  Uiso   1.00
H1337  H     0.37954   0.56632   0.73550   0.00000  Uiso   1.00
H1338  H     0.38346   0.53145   0.69101   0.00000  Uiso   1.00
H1339  H     0.54220   0.33648   0.71612   0.00000  Uiso   1.00
H1340  H     0.56705   0.56710   0.56532   0.00000  Uiso   1.00
H1341  H     0.52568   0.56745   0.54092   0.00000  Uiso   1.00
H1342  H     0.52675   0.60279   0.58446   0.00000  Uiso   1.00
H1343  H     0.46902   0.54273   0.60138   0.00000  Uiso   1.00
H1344  H     0.50831   0.54715   0.62606   0.00000  Uiso   1.00
H1345  H     0.59202   0.44286   0.64819   0.00000  Uiso   1.00
H1346  H     0.61825   0.46503   0.60173   0.00000  Uiso   1.00
H1347  H     0.63013   0.41549   0.60960   0.00000  Uiso   1.00
H1348  H     0.52360   0.35796   0.98059   0.00000  Uiso   1.00
H1349  H     0.56421   0.34395   0.93593   0.00000  Uiso   1.00
H1350  H     0.45671   0.66508   0.78352   0.00000  Uiso   1.00
H1351  H     0.52237   0.37217   0.93311   0.00000  Uiso   1.00
H1352  H     0.36764   0.58815   0.88832   0.00000  Uiso   1.00
H1353  H     0.41880   0.60319   0.89868   0.00000  Uiso   1.00
H1354  H     0.36951   0.59138   0.93847   0.00000  Uiso   1.00
H1355  H     0.59509   0.57339   0.91637   0.00000  Uiso   1.00
H1356  H     0.54235   0.58986   0.94033   0.00000  Uiso   1.00
H1357  H     0.56076   0.54924   0.95890   0.00000  Uiso   1.00
H1358  H     0.54912   0.54404   0.87611   0.00000  Uiso   1.00
H1359  H     0.55981   0.50213   0.89660   0.00000  Uiso   1.00
H1360  H     0.37417   0.53749   0.97621   0.00000  Uiso   1.00
H1361  H     0.43182   0.49638   0.57323   0.00000  Uiso   1.00
H1362  H     0.52908   0.44901   0.92785   0.00000  Uiso   1.00
H1363  H     0.35901   0.49594   0.60051   0.00000  Uiso   1.00
H1364  H     0.38476   0.54966   0.60436   0.00000  Uiso   1.00
H1365  H     0.66177   0.53887   0.60583   0.00000  Uiso   1.00
O1366  O     0.50000   0.50000   0.75000   0.00000  Uiso   1.00
O1367  O     0.49027   0.45726   0.66625   0.00000  Uiso   1.00
O1368  O     0.46020   0.53979   0.83749   0.00000  Uiso   1.00
O1369  O     0.54421   0.50826   0.65877   0.00000  Uiso   1.00
O1370  O     0.50532   0.49468   0.83749   0.00000  Uiso   1.00
O1371  O     0.58833   0.39712   0.52097   0.00000  Uiso   1.00
O1372  O     0.56987   0.41268   0.60137   0.00000  Uiso   1.00
O1373  O     0.57056   0.40620   0.95671   0.00000  Uiso   1.00
O1374  O     0.39371   0.53991   0.90064   0.00000  Uiso   1.00
O1375  O     0.51182   0.41434   0.77821   0.00000  Uiso   1.00
O1376  O     0.47914   0.59469   0.76767   0.00000  Uiso   1.00
O1377  O     0.40785   0.46584   0.73607   0.00000  Uiso   1.00
O1378  O     0.60119   0.52512   0.71806   0.00000  Uiso   1.00
O1379  O     0.40323   0.52293   0.77820   0.00000  Uiso   1.00
O1380  O     0.58773   0.48610   0.76768   0.00000  Uiso   1.00
O1381  O     0.47133   0.40236   0.73607   0.00000  Uiso   1.00
O1382  O     0.53771   0.58860   0.71806   0.00000  Uiso   1.00
Zn1383 Zn    0.52577   0.47423   0.78278   0.00000  Uiso   1.00
Zn1384 Zn    0.46792   0.45711   0.72258   0.00000  Uiso   1.00
Zn1385 Zn    0.54500   0.52997   0.71188   0.00000  Uiso   1.00
Zn1386 Zn    0.46131   0.53868   0.78277   0.00000  Uiso   1.00
C1387  C     0.71897   0.49266   0.75920   0.00000  Uiso   1.00
C1388  C     0.85861   0.45823   0.95898   0.00000  Uiso   1.00
C1389  C     0.87827   0.43630   0.97855   0.00000  Uiso   1.00
C1390  C     0.94795   0.50834   0.74172   0.00000  Uiso   1.00
C1391  C     0.87382   0.44712   0.51947   0.00000  Uiso   1.00
C1392  C     0.84584   0.47737   0.54061   0.00000  Uiso   1.00
C1393  C     0.89565   0.42796   0.54000   0.00000  Uiso   1.00
C1394  C     0.88801   0.43747   0.58102   0.00000  Uiso   1.00
C1395  C     0.84675   0.49373   0.57971   0.00000  Uiso   1.00
C1396  C     0.99426   0.51518   0.74003   0.00000  Uiso   1.00
C1397  C     0.67405   0.49066   0.76051   0.00000  Uiso   1.00
C1398  C     0.75551   0.53358   0.92079   0.00000  Uiso   1.00
C1399  C     0.84793   0.65562   0.73797   0.00000  Uiso   1.00
C1400  C     0.81814   0.34527   0.76176   0.00000  Uiso   1.00
C1401  C     0.82264   0.38939   0.75874   0.00000  Uiso   1.00
C1402  C     0.84363   0.61108   0.74125   0.00000  Uiso   1.00
C1403  C     0.85461   0.47902   0.64382   0.00000  Uiso   1.00
C1404  C     0.81180   0.52095   0.85631   0.00000  Uiso   1.00
C1405  C     0.79818   0.52566   0.90012   0.00000  Uiso   1.00
C1406  C     0.86378   0.47045   0.60082   0.00000  Uiso   1.00
C1407  C     0.74048   0.53143   0.96162   0.00000  Uiso   1.00
C1408  C     0.70580   0.52784   0.54730   0.00000  Uiso   1.00
C1409  C     0.82623   0.51821   0.92130   0.00000  Uiso   1.00
C1410  C     0.69409   0.52797   0.59228   0.00000  Uiso   1.00
C1411  C     0.96490   0.41599   0.50852   0.00000  Uiso   1.00
C1412  C     0.69386   0.54792   0.71617   0.00000  Uiso   1.00
C1413  C     0.67577   0.58014   0.70013   0.00000  Uiso   1.00
C1414  C     0.83650   0.53841   0.59646   0.00000  Uiso   1.00
C1415  C     0.86583   0.57077   0.57003   0.00000  Uiso   1.00
C1416  C     0.93716   0.43551   0.61562   0.00000  Uiso   1.00
C1417  C     0.87687   0.36871   0.95161   0.00000  Uiso   1.00
C1418  C     0.72081   0.58260   0.90718   0.00000  Uiso   1.00
C1419  C     0.87518   0.52969   0.90422   0.00000  Uiso   1.00
C1420  C     0.80793   0.50780   0.96090   0.00000  Uiso   1.00
C1421  C     0.89429   0.56248   0.93181   0.00000  Uiso   1.00
C1422  C     0.76613   0.51880   0.98237   0.00000  Uiso   1.00
C1423  C     0.82996   0.48712   0.97997   0.00000  Uiso   1.00
C1424  C     0.81855   0.49074   0.52148   0.00000  Uiso   1.00
C1425  C     0.77753   0.50219   0.54260   0.00000  Uiso   1.00
C1426  C     0.75054   0.51582   0.52380   0.00000  Uiso   1.00
H1427  H     0.98537   0.46597   0.77620   0.00000  Uiso   1.00
H1428  H     0.70374   0.56005   0.54155   0.00000  Uiso   1.00
H1429  H     0.68082   0.50608   0.53658   0.00000  Uiso   1.00
H1430  H     0.97777   0.42776   0.53416   0.00000  Uiso   1.00
H1431  H     0.96836   0.44183   0.98995   0.00000  Uiso   1.00
H1432  H     0.98517   0.39199   0.99016   0.00000  Uiso   1.00
H1433  H     0.99561   0.56537   0.67558   0.00000  Uiso   1.00
H1434  H     0.98414   0.59556   0.72413   0.00000  Uiso   1.00
H1435  H     0.70241   0.60465   0.68798   0.00000  Uiso   1.00
H1436  H     0.71287   0.56632   0.73550   0.00000  Uiso   1.00
H1437  H     0.71679   0.53145   0.69101   0.00000  Uiso   1.00
H1438  H     0.87554   0.33648   0.71612   0.00000  Uiso   1.00
H1439  H     0.90038   0.56710   0.56532   0.00000  Uiso   1.00
H1440  H     0.85901   0.56745   0.54092   0.00000  Uiso   1.00
H1441  H     0.86008   0.60279   0.58446   0.00000  Uiso   1.00
H1442  H     0.80236   0.54273   0.60138   0.00000  Uiso   1.00
H1443  H     0.84164   0.54715   0.62606   0.00000  Uiso   1.00
H1444  H     0.92535   0.44286   0.64819   0.00000  Uiso   1.00
H1445  H     0.95158   0.46503   0.60173   0.00000  Uiso   1.00
H1446  H     0.96346   0.41549   0.60960   0.00000  Uiso   1.00
H1447  H     0.85693   0.35796   0.98059   0.00000  Uiso   1.00
H1448  H     0.89755   0.34395   0.93593   0.00000  Uiso   1.00
H1449  H     0.79004   0.66508   0.78352   0.00000  Uiso   1.00
H1450  H     0.85571   0.37217   0.93311   0.00000  Uiso   1.00
H1451  H     0.70097   0.58815   0.88832   0.00000  Uiso   1.00
H1452  H     0.75213   0.60319   0.89868   0.00000  Uiso   1.00
H1453  H     0.70284   0.59138   0.93847   0.00000  Uiso   1.00
H1454  H     0.92843   0.57339   0.91637   0.00000  Uiso   1.00
H1455  H     0.87569   0.58986   0.94033   0.00000  Uiso   1.00
H1456  H     0.89409   0.54924   0.95890   0.00000  Uiso   1.00
H1457  H     0.88246   0.54404   0.87611   0.00000  Uiso   1.00
H1458  H     0.89314   0.50213   0.89660   0.00000  Uiso   1.00
H1459  H     0.70751   0.53749   0.97621   0.00000  Uiso   1.00
H1460  H     0.76515   0.49638   0.57323   0.00000  Uiso   1.00
H1461  H     0.86241   0.44901   0.92785   0.00000  Uiso   1.00
H1462  H     0.69235   0.49594   0.60051   0.00000  Uiso   1.00
H1463  H     0.71809   0.54966   0.60436   0.00000  Uiso   1.00
H1464  H     0.99511   0.53887   0.60583   0.00000  Uiso   1.00
O1465  O     0.83333   0.50000   0.75000   0.00000  Uiso   1.00
O1466  O     0.82360   0.45726   0.66625   0.00000  Uiso   1.00
O1467  O     0.79354   0.53979   0.83749   0.00000  Uiso   1.00
O1468  O     0.87755   0.50826   0.65877   0.00000  Uiso   1.00
O1469  O     0.83865   0.49468   0.83749   0.00000  Uiso   1.00
O1470  O     0.92167   0.39712   0.52097   0.00000  Uiso   1.00
O1471  O     0.90320   0.41268   0.60137   0.00000  Uiso   1.00
O1472  O     0.90390   0.40620   0.95671   0.00000  Uiso   1.00
O1473  O     0.72705   0.53991   0.90064   0.00000  Uiso   1.00
O1474  O     0.84515   0.41434   0.77821   0.00000  Uiso   1.00
O1475  O     0.81247   0.59469   0.76767   0.00000  Uiso   1.00
O1476  O     0.74119   0.46584   0.73607   0.00000  Uiso   1.00
O1477  O     0.93452   0.52512   0.71806   0.00000  Uiso   1.00
O1478  O     0.73656   0.52293   0.77820   0.00000  Uiso   1.00
O1479  O     0.92106   0.48610   0.76768   0.00000  Uiso   1.00
O1480  O     0.80467   0.40236   0.73607   0.00000  Uiso   1.00
O1481  O     0.87104   0.58860   0.71806   0.00000  Uiso   1.00
Zn1482 Zn    0.85910   0.47423   0.78278   0.00000  Uiso   1.00
Zn1483 Zn    0.80125   0.45711   0.72258   0.00000  Uiso   1.00
Zn1484 Zn    0.87833   0.52997   0.71188   0.00000  Uiso   1.00
Zn1485 Zn    0.79465   0.53868   0.78277   0.00000  Uiso   1.00
C1486  C     0.05231   0.82599   0.75920   0.00000  Uiso   1.00
C1487  C     0.19195   0.79157   0.95898   0.00000  Uiso   1.00
C1488  C     0.21160   0.76964   0.97855   0.00000  Uiso   1.00
C1489  C     0.28128   0.84168   0.74172   0.00000  Uiso   1.00
C1490  C     0.20716   0.78045   0.51947   0.00000  Uiso   1.00
C1491  C     0.17917   0.81070   0.54061   0.00000  Uiso   1.00
C1492  C     0.22898   0.76130   0.54000   0.00000  Uiso   1.00
C1493  C     0.22134   0.77080   0.58102   0.00000  Uiso   1.00
C1494  C     0.18008   0.82706   0.57971   0.00000  Uiso   1.00
C1495  C     0.32759   0.84852   0.74003   0.00000  Uiso   1.00
C1496  C     0.00738   0.82400   0.76051   0.00000  Uiso   1.00
C1497  C     0.08884   0.86691   0.92079   0.00000  Uiso   1.00
C1498  C     0.18126   0.98895   0.73797   0.00000  Uiso   1.00
C1499  C     0.15147   0.67860   0.76176   0.00000  Uiso   1.00
C1500  C     0.15597   0.72273   0.75874   0.00000  Uiso   1.00
C1501  C     0.17697   0.94441   0.74125   0.00000  Uiso   1.00
C1502  C     0.18794   0.81236   0.64382   0.00000  Uiso   1.00
C1503  C     0.14514   0.85428   0.85631   0.00000  Uiso   1.00
C1504  C     0.13151   0.85899   0.90012   0.00000  Uiso   1.00
C1505  C     0.19711   0.80379   0.60082   0.00000  Uiso   1.00
C1506  C     0.07381   0.86477   0.96162   0.00000  Uiso   1.00
C1507  C     0.03913   0.86117   0.54730   0.00000  Uiso   1.00
C1508  C     0.15957   0.85154   0.92130   0.00000  Uiso   1.00
C1509  C     0.02742   0.86130   0.59228   0.00000  Uiso   1.00
C1510  C     0.29823   0.74932   0.50852   0.00000  Uiso   1.00
C1511  C     0.02719   0.88126   0.71617   0.00000  Uiso   1.00
C1512  C     0.00911   0.91348   0.70013   0.00000  Uiso   1.00
C1513  C     0.16983   0.87175   0.59646   0.00000  Uiso   1.00
C1514  C     0.19917   0.90410   0.57003   0.00000  Uiso   1.00
C1515  C     0.27049   0.76884   0.61562   0.00000  Uiso   1.00
C1516  C     0.21020   0.70204   0.95161   0.00000  Uiso   1.00
C1517  C     0.05414   0.91594   0.90718   0.00000  Uiso   1.00
C1518  C     0.20851   0.86303   0.90422   0.00000  Uiso   1.00
C1519  C     0.14126   0.84113   0.96090   0.00000  Uiso   1.00
C1520  C     0.22762   0.89582   0.93181   0.00000  Uiso   1.00
C1521  C     0.09947   0.85214   0.98237   0.00000  Uiso   1.00
C1522  C     0.16330   0.82045   0.97997   0.00000  Uiso   1.00
C1523  C     0.15189   0.82407   0.52148   0.00000  Uiso   1.00
C1524  C     0.11087   0.83552   0.54260   0.00000  Uiso   1.00
C1525  C     0.08388   0.84915   0.52380   0.00000  Uiso   1.00
H1526  H     0.31870   0.79930   0.77620   0.00000  Uiso   1.00
H1527  H     0.03707   0.89339   0.54155   0.00000  Uiso   1.00
H1528  H     0.01415   0.83941   0.53658   0.00000  Uiso   1.00
H1529  H     0.31110   0.76109   0.53416   0.00000  Uiso   1.00
H1530  H     0.30169   0.77516   0.98995   0.00000  Uiso   1.00
H1531  H     0.31850   0.72533   0.99016   0.00000  Uiso   1.00
H1532  H     0.32895   0.89871   0.67558   0.00000  Uiso   1.00
H1533  H     0.31747   0.92889   0.72413   0.00000  Uiso   1.00
H1534  H     0.03574   0.93798   0.68798   0.00000  Uiso   1.00
H1535  H     0.04620   0.89965   0.73550   0.00000  Uiso   1.00
H1536  H     0.05013   0.86478   0.69101   0.00000  Uiso   1.00
H1537  H     0.20887   0.66982   0.71612   0.00000  Uiso   1.00
H1538  H     0.23372   0.90043   0.56532   0.00000  Uiso   1.00
H1539  H     0.19234   0.90079   0.54092   0.00000  Uiso   1.00
H1540  H     0.19341   0.93612   0.58446   0.00000  Uiso   1.00
H1541  H     0.13569   0.87606   0.60138   0.00000  Uiso   1.00
H1542  H     0.17497   0.88049   0.62606   0.00000  Uiso   1.00
H1543  H     0.25869   0.77619   0.64819   0.00000  Uiso   1.00
H1544  H     0.28491   0.79836   0.60173   0.00000  Uiso   1.00
H1545  H     0.29679   0.74882   0.60960   0.00000  Uiso   1.00
H1546  H     0.19026   0.69129   0.98059   0.00000  Uiso   1.00
H1547  H     0.23088   0.67729   0.93593   0.00000  Uiso   1.00
H1548  H     0.12337   0.99842   0.78352   0.00000  Uiso   1.00
H1549  H     0.18904   0.70550   0.93311   0.00000  Uiso   1.00
H1550  H     0.03431   0.92148   0.88832   0.00000  Uiso   1.00
H1551  H     0.08547   0.93652   0.89868   0.00000  Uiso   1.00
H1552  H     0.03618   0.92471   0.93847   0.00000  Uiso   1.00
H1553  H     0.26176   0.90673   0.91637   0.00000  Uiso   1.00
H1554  H     0.20902   0.92320   0.94033   0.00000  Uiso   1.00
H1555  H     0.22743   0.88257   0.95890   0.00000  Uiso   1.00
H1556  H     0.21579   0.87737   0.87611   0.00000  Uiso   1.00
H1557  H     0.22647   0.83546   0.89660   0.00000  Uiso   1.00
H1558  H     0.04084   0.87082   0.97621   0.00000  Uiso   1.00
H1559  H     0.09849   0.82972   0.57323   0.00000  Uiso   1.00
H1560  H     0.19575   0.78234   0.92785   0.00000  Uiso   1.00
H1561  H     0.02568   0.82928   0.60051   0.00000  Uiso   1.00
H1562  H     0.05143   0.88300   0.60436   0.00000  Uiso   1.00
H1563  H     0.32844   0.87220   0.60583   0.00000  Uiso   1.00
O1564  O     0.16667   0.83333   0.75000   0.00000  Uiso   1.00
O1565  O     0.15693   0.79060   0.66625   0.00000  Uiso   1.00
O1566  O     0.12687   0.87313   0.83749   0.00000  Uiso   1.00
O1567  O     0.21088   0.84159   0.65877   0.00000  Uiso   1.00
O1568  O     0.17198   0.82802   0.83749   0.00000  Uiso   1.00
O1569  O     0.25500   0.73046   0.52097   0.00000  Uiso   1.00
O1570  O     0.23653   0.74601   0.60137   0.00000  Uiso   1.00
O1571  O     0.23723   0.73953   0.95671   0.00000  Uiso   1.00
O1572  O     0.06038   0.87324   0.90064   0.00000  Uiso   1.00
O1573  O     0.17849   0.74768   0.77821   0.00000  Uiso   1.00
O1574  O     0.14581   0.92803   0.76767   0.00000  Uiso   1.00
O1575  O     0.07452   0.79917   0.73607   0.00000  Uiso   1.00
O1576  O     0.26785   0.85845   0.71806   0.00000  Uiso   1.00
O1577  O     0.06990   0.85627   0.77820   0.00000  Uiso   1.00
O1578  O     0.25440   0.81944   0.76768   0.00000  Uiso   1.00
O1579  O     0.13800   0.73570   0.73607   0.00000  Uiso   1.00
O1580  O     0.20437   0.92193   0.71806   0.00000  Uiso   1.00
Zn1581 Zn    0.19244   0.80756   0.78278   0.00000  Uiso   1.00
Zn1582 Zn    0.13459   0.79044   0.72258   0.00000  Uiso   1.00
Zn1583 Zn    0.21166   0.86331   0.71188   0.00000  Uiso   1.00
Zn1584 Zn    0.12798   0.87202   0.78277   0.00000  Uiso   1.00
C1585  C     0.38564   0.82599   0.75920   0.00000  Uiso   1.00
C1586  C     0.52528   0.79157   0.95898   0.00000  Uiso   1.00
C1587  C     0.54493   0.76964   0.97855   0.00000  Uiso   1.00
C1588  C     0.61462   0.84168   0.74172   0.00000  Uiso   1.00
C1589  C     0.54049   0.78045   0.51947   0.00000  Uiso   1.00
C1590  C     0.51251   0.81070   0.54061   0.00000  Uiso   1.00
C1591  C     0.56232   0.76130   0.54000   0.00000  Uiso   1.00
C1592  C     0.55468   0.77080   0.58102   0.00000  Uiso   1.00
C1593  C     0.51341   0.82706   0.57971   0.00000  Uiso   1.00
C1594  C     0.66092   0.84852   0.74003   0.00000  Uiso   1.00
C1595  C     0.34072   0.82400   0.76051   0.00000  Uiso   1.00
C1596  C     0.42217   0.86691   0.92079   0.00000  Uiso   1.00
C1597  C     0.51460   0.98895   0.73797   0.00000  Uiso   1.00
C1598  C     0.48480   0.67860   0.76176   0.00000  Uiso   1.00
C1599  C     0.48930   0.72273   0.75874   0.00000  Uiso   1.00
C1600  C     0.51030   0.94441   0.74125   0.00000  Uiso   1.00
C1601  C     0.52127   0.81236   0.64382   0.00000  Uiso   1.00
C1602  C     0.47847   0.85428   0.85631   0.00000  Uiso   1.00
C1603  C     0.46485   0.85899   0.90012   0.00000  Uiso   1.00
C1604  C     0.53045   0.80379   0.60082   0.00000  Uiso   1.00
C1605  C     0.40714   0.86477   0.96162   0.00000  Uiso   1.00
C1606  C     0.37246   0.86117   0.54730   0.00000  Uiso   1.00
C1607  C     0.49290   0.85154   0.92130   0.00000  Uiso   1.00
C1608  C     0.36076   0.86130   0.59228   0.00000  Uiso   1.00
C1609  C     0.63157   0.74932   0.50852   0.00000  Uiso   1.00
C1610  C     0.36053   0.88126   0.71617   0.00000  Uiso   1.00
C1611  C     0.34244   0.91348   0.70013   0.00000  Uiso   1.00
C1612  C     0.50317   0.87175   0.59646   0.00000  Uiso   1.00
C1613  C     0.53250   0.90410   0.57003   0.00000  Uiso   1.00
C1614  C     0.60382   0.76884   0.61562   0.00000  Uiso   1.00
C1615  C     0.54353   0.70204   0.95161   0.00000  Uiso   1.00
C1616  C     0.38748   0.91594   0.90718   0.00000  Uiso   1.00
C1617  C     0.54184   0.86303   0.90422   0.00000  Uiso   1.00
C1618  C     0.47460   0.84113   0.96090   0.00000  Uiso   1.00
C1619  C     0.56095   0.89582   0.93181   0.00000  Uiso   1.00
C1620  C     0.43280   0.85214   0.98237   0.00000  Uiso   1.00
C1621  C     0.49663   0.82045   0.97997   0.00000  Uiso   1.00
C1622  C     0.48522   0.82407   0.52148   0.00000  Uiso   1.00
C1623  C     0.44420   0.83552   0.54260   0.00000  Uiso   1.00
C1624  C     0.41721   0.84915   0.52380   0.00000  Uiso   1.00
H1625  H     0.65204   0.79930   0.77620   0.00000  Uiso   1.00
H1626  H     0.37040   0.89339   0.54155   0.00000  Uiso   1.00
H1627  H     0.34749   0.83941   0.53658   0.00000  Uiso   1.00
H1628  H     0.64444   0.76109   0.53416   0.00000  Uiso   1.00
H1629  H     0.63502   0.77516   0.98995   0.00000  Uiso   1.00
H1630  H     0.65183   0.72533   0.99016   0.00000  Uiso   1.00
H1631  H     0.66228   0.89871   0.67558   0.00000  Uiso   1.00
H1632  H     0.65080   0.92889   0.72413   0.00000  Uiso   1.00
H1633  H     0.36907   0.93798   0.68798   0.00000  Uiso   1.00
H1634  H     0.37954   0.89965   0.73550   0.00000  Uiso   1.00
H1635  H     0.38346   0.86478   0.69101   0.00000  Uiso   1.00
H1636  H     0.54220   0.66982   0.71612   0.00000  Uiso   1.00
H1637  H     0.56705   0.90043   0.56532   0.00000  Uiso   1.00
H1638  H     0.52568   0.90079   0.54092   0.00000  Uiso   1.00
H1639  H     0.52675   0.93612   0.58446   0.00000  Uiso   1.00
H1640  H     0.46902   0.87606   0.60138   0.00000  Uiso   1.00
H1641  H     0.50831   0.88049   0.62606   0.00000  Uiso   1.00
H1642  H     0.59202   0.77619   0.64819   0.00000  Uiso   1.00
H1643  H     0.61825   0.79836   0.60173   0.00000  Uiso   1.00
H1644  H     0.63013   0.74882   0.60960   0.00000  Uiso   1.00
H1645  H     0.52360   0.69129   0.98059   0.00000  Uiso   1.00
H1646  H     0.56421   0.67729   0.93593   0.00000  Uiso   1.00
H1647  H     0.45671   0.99842   0.78352   0.00000  Uiso   1.00
H1648  H     0.52237   0.70550   0.93311   0.00000  Uiso   1.00
H1649  H     0.36764   0.92148   0.88832   0.00000  Uiso   1.00
H1650  H     0.41880   0.93652   0.89868   0.00000  Uiso   1.00
H1651  H     0.36951   0.92471   0.93847   0.00000  Uiso   1.00
H1652  H     0.59509   0.90673   0.91637   0.00000  Uiso   1.00
H1653  H     0.54235   0.92320   0.94033   0.00000  Uiso   1.00
H1654  H     0.56076   0.88257   0.95890   0.00000  Uiso   1.00
H1655  H     0.54912   0.87737   0.87611   0.00000  Uiso   1.00
H1656  H     0.55981   0.83546   0.89660   0.00000  Uiso   1.00
H1657  H     0.37417   0.87082   0.97621   0.00000  Uiso   1.00
H1658  H     0.43182   0.82972   0.57323   0.00000  Uiso   1.00
H1659  H     0.52908   0.78234   0.92785   0.00000  Uiso   1.00
H1660  H     0.35901   0.82928   0.60051   0.00000  Uiso   1.00
H1661  H     0.38476   0.88300   0.60436   0.00000  Uiso   1.00
H1662  H     0.66177   0.87220   0.60583   0.00000  Uiso   1.00
O1663  O     0.50000   0.83333   0.75000   0.00000  Uiso   1.00
O1664  O     0.49027   0.79060   0.66625   0.00000  Uiso   1.00
O1665  O     0.46020   0.87313   0.83749   0.00000  Uiso   1.00
O1666  O     0.54421   0.84159   0.65877   0.00000  Uiso   1.00
O1667  O     0.50532   0.82802   0.83749   0.00000  Uiso   1.00
O1668  O     0.58833   0.73046   0.52097   0.00000  Uiso   1.00
O1669  O     0.56987   0.74601   0.60137   0.00000  Uiso   1.00
O1670  O     0.57056   0.73953   0.95671   0.00000  Uiso   1.00
O1671  O     0.39371   0.87324   0.90064   0.00000  Uiso   1.00
O1672  O     0.51182   0.74768   0.77821   0.00000  Uiso   1.00
O1673  O     0.47914   0.92803   0.76767   0.00000  Uiso   1.00
O1674  O     0.40785   0.79917   0.73607   0.00000  Uiso   1.00
O1675  O     0.60119   0.85845   0.71806   0.00000  Uiso   1.00
O1676  O     0.40323   0.85627   0.77820   0.00000  Uiso   1.00
O1677  O     0.58773   0.81944   0.76768   0.00000  Uiso   1.00
O1678  O     0.47133   0.73570   0.73607   0.00000  Uiso   1.00
O1679  O     0.53771   0.92193   0.71806   0.00000  Uiso   1.00
Zn1680 Zn    0.52577   0.80756   0.78278   0.00000  Uiso   1.00
Zn1681 Zn    0.46792   0.79044   0.72258   0.00000  Uiso   1.00
Zn1682 Zn    0.54500   0.86331   0.71188   0.00000  Uiso   1.00
Zn1683 Zn    0.46131   0.87202   0.78277   0.00000  Uiso   1.00
C1684  C     0.71897   0.82599   0.75920   0.00000  Uiso   1.00
C1685  C     0.85861   0.79157   0.95898   0.00000  Uiso   1.00
C1686  C     0.87827   0.76964   0.97855   0.00000  Uiso   1.00
C1687  C     0.94795   0.84168   0.74172   0.00000  Uiso   1.00
C1688  C     0.87382   0.78045   0.51947   0.00000  Uiso   1.00
C1689  C     0.84584   0.81070   0.54061   0.00000  Uiso   1.00
C1690  C     0.89565   0.76130   0.54000   0.00000  Uiso   1.00
C1691  C     0.88801   0.77080   0.58102   0.00000  Uiso   1.00
C1692  C     0.84675   0.82706   0.57971   0.00000  Uiso   1.00
C1693  C     0.99426   0.84852   0.74003   0.00000  Uiso   1.00
C1694  C     0.67405   0.82400   0.76051   0.00000  Uiso   1.00
C1695  C     0.75551   0.86691   0.92079   0.00000  Uiso   1.00
C1696  C     0.84793   0.98895   0.73797   0.00000  Uiso   1.00
C1697  C     0.81814   0.67860   0.76176   0.00000  Uiso   1.00
C1698  C     0.82264   0.72273   0.75874   0.00000  Uiso   1.00
C1699  C     0.84363   0.94441   0.74125   0.00000  Uiso   1.00
C1700  C     0.85461   0.81236   0.64382   0.00000  Uiso   1.00
C1701  C     0.81180   0.85428   0.85631   0.00000  Uiso   1.00
C1702  C     0.79818   0.85899   0.90012   0.00000  Uiso   1.00
C1703  C     0.86378   0.80379   0.60082   0.00000  Uiso   1.00
C1704  C     0.74048   0.86477   0.96162   0.00000  Uiso   1.00
C1705  C     0.70580   0.86117   0.54730   0.00000  Uiso   1.00
C1706  C     0.82623   0.85154   0.92130   0.00000  Uiso   1.00
C1707  C     0.69409   0.86130   0.59228   0.00000  Uiso   1.00
C1708  C     0.96490   0.74932   0.50852   0.00000  Uiso   1.00
C1709  C     0.69386   0.88126   0.71617   0.00000  Uiso   1.00
C1710  C     0.67577   0.91348   0.70013   0.00000  Uiso   1.00
C1711  C     0.83650   0.87175   0.59646   0.00000  Uiso   1.00
C1712  C     0.86583   0.90410   0.57003   0.00000  Uiso   1.00
C1713  C     0.93716   0.76884   0.61562   0.00000  Uiso   1.00
C1714  C     0.87687   0.70204   0.95161   0.00000  Uiso   1.00
C1715  C     0.72081   0.91594   0.90718   0.00000  Uiso   1.00
C1716  C     0.87518   0.86303   0.90422   0.00000  Uiso   1.00
C1717  C     0.80793   0.84113   0.96090   0.00000  Uiso   1.00
C1718  C     0.89429   0.89582   0.93181   0.00000  Uiso   1.00
C1719  C     0.76613   0.85214   0.98237   0.00000  Uiso   1.00
C1720  C     0.82996   0.82045   0.97997   0.00000  Uiso   1.00
C1721  C     0.81855   0.82407   0.52148   0.00000  Uiso   1.00
C1722  C     0.77753   0.83552   0.54260   0.00000  Uiso   1.00
C1723  C     0.75054   0.84915   0.52380   0.00000  Uiso   1.00
H1724  H     0.98537   0.79930   0.77620   0.00000  Uiso   1.00
H1725  H     0.70374   0.89339   0.54155   0.00000  Uiso   1.00
H1726  H     0.68082   0.83941   0.53658   0.00000  Uiso   1.00
H1727  H     0.97777   0.76109   0.53416   0.00000  Uiso   1.00
H1728  H     0.96836   0.77516   0.98995   0.00000  Uiso   1.00
H1729  H     0.98517   0.72533   0.99016   0.00000  Uiso   1.00
H1730  H     0.99561   0.89871   0.67558   0.00000  Uiso   1.00
H1731  H     0.98414   0.92889   0.72413   0.00000  Uiso   1.00
H1732  H     0.70241   0.93798   0.68798   0.00000  Uiso   1.00
H1733  H     0.71287   0.89965   0.73550   0.00000  Uiso   1.00
H1734  H     0.71679   0.86478   0.69101   0.00000  Uiso   1.00
H1735  H     0.87554   0.66982   0.71612   0.00000  Uiso   1.00
H1736  H     0.90038   0.90043   0.56532   0.00000  Uiso   1.00
H1737  H     0.85901   0.90079   0.54092   0.00000  Uiso   1.00
H1738  H     0.86008   0.93612   0.58446   0.00000  Uiso   1.00
H1739  H     0.80236   0.87606   0.60138   0.00000  Uiso   1.00
H1740  H     0.84164   0.88049   0.62606   0.00000  Uiso   1.00
H1741  H     0.92535   0.77619   0.64819   0.00000  Uiso   1.00
H1742  H     0.95158   0.79836   0.60173   0.00000  Uiso   1.00
H1743  H     0.96346   0.74882   0.60960   0.00000  Uiso   1.00
H1744  H     0.85693   0.69129   0.98059   0.00000  Uiso   1.00
H1745  H     0.89755   0.67729   0.93593   0.00000  Uiso   1.00
H1746  H     0.79004   0.99842   0.78352   0.00000  Uiso   1.00
H1747  H     0.85571   0.70550   0.93311   0.00000  Uiso   1.00
H1748  H     0.70097   0.92148   0.88832   0.00000  Uiso   1.00
H1749  H     0.75213   0.93652   0.89868   0.00000  Uiso   1.00
H1750  H     0.70284   0.92471   0.93847   0.00000  Uiso   1.00
H1751  H     0.92843   0.90673   0.91637   0.00000  Uiso   1.00
H1752  H     0.87569   0.92320   0.94033   0.00000  Uiso   1.00
H1753  H     0.89409   0.88257   0.95890   0.00000  Uiso   1.00
H1754  H     0.88246   0.87737   0.87611   0.00000  Uiso   1.00
H1755  H     0.89314   0.83546   0.89660   0.00000  Uiso   1.00
H1756  H     0.70751   0.87082   0.97621   0.00000  Uiso   1.00
H1757  H     0.76515   0.82972   0.57323   0.00000  Uiso   1.00
H1758  H     0.86241   0.78234   0.92785   0.00000  Uiso   1.00
H1759  H     0.69235   0.82928   0.60051   0.00000  Uiso   1.00
H1760  H     0.71809   0.88300   0.60436   0.00000  Uiso   1.00
H1761  H     0.99511   0.87220   0.60583   0.00000  Uiso   1.00
O1762  O     0.83333   0.83333   0.75000   0.00000  Uiso   1.00
O1763  O     0.82360   0.79060   0.66625   0.00000  Uiso   1.00
O1764  O     0.79354   0.87313   0.83749   0.00000  Uiso   1.00
O1765  O     0.87755   0.84159   0.65877   0.00000  Uiso   1.00
O1766  O     0.83865   0.82802   0.83749   0.00000  Uiso   1.00
O1767  O     0.92167   0.73046   0.52097   0.00000  Uiso   1.00
O1768  O     0.90320   0.74601   0.60137   0.00000  Uiso   1.00
O1769  O     0.90390   0.73953   0.95671   0.00000  Uiso   1.00
O1770  O     0.72705   0.87324   0.90064   0.00000  Uiso   1.00
O1771  O     0.84515   0.74768   0.77821   0.00000  Uiso   1.00
O1772  O     0.81247   0.92803   0.76767   0.00000  Uiso   1.00
O1773  O     0.74119   0.79917   0.73607   0.00000  Uiso   1.00
O1774  O     0.93452   0.85845   0.71806   0.00000  Uiso   1.00
O1775  O     0.73656   0.85627   0.77820   0.00000  Uiso   1.00
O1776  O     0.92106   0.81944   0.76768   0.00000  Uiso   1.00
O1777  O     0.80467   0.73570   0.73607   0.00000  Uiso   1.00
O1778  O     0.87104   0.92193   0.71806   0.00000  Uiso   1.00
Zn1779 Zn    0.85910   0.80756   0.78278   0.00000  Uiso   1.00
Zn1780 Zn    0.80125   0.79044   0.72258   0.00000  Uiso   1.00
Zn1781 Zn    0.87833   0.86331   0.71188   0.00000  Uiso   1.00
Zn1782 Zn    0.79465   0.87202   0.78277   0.00000  Uiso   1.00
loop_
_geom_bond_atom_site_label_1
_geom_bond_atom_site_label_2
_geom_bond_distance
_geom_bond_site_symmetry_2
_ccdc_geom_bond_type
C1     O90     1.264   .     A
C1     C11     1.443   .     S
C1     O92     1.272   .     A
C2     C3      1.399   .     A
C2     C37     1.404   .     A
C2     H75     1.080   .     S
C3     O86     1.382   .     S
C3     C896    1.417   .     S
C4     O91     1.275   .     A
C4     C10     1.475   .     S
C4     O93     1.286   .     A
C5     C6      1.423   .     A
C5     C7      1.417   .     A
C5     C894    1.417   1_554 S
C6     C38     1.418   .     A
C6     C9      1.423   .     A
C7     C8      1.402   .     A
C7     O84     1.383   .     S
C8     C20     1.410   .     A
C8     O85     1.388   .     S
C9     C20     1.410   .     A
C9     C28     1.537   .     S
C10    C110    1.345   .     S
C10    C125    1.538   .     S
C11    C208    1.345   1_455 S
C11    H239    1.086   1_455 S
C12    C21     1.396   .     A
C12    O87     1.384   .     S
C12    C19     1.411   .     A
C13    C16     1.451   .     S
C13    C311    1.332   .     S
C13    H349    1.088   .     S
C14    C15     1.435   .     S
C14    C607    1.332   1_545 S
C14    H657    1.086   1_545 S
C15    O94     1.276   .     A
C15    O88     1.277   .     A
C16    O89     1.267   .     A
C16    O95     1.267   .     A
C17    C20     1.463   .     S
C17    O80     1.271   .     A
C17    O82     1.270   .     A
C18    O81     1.284   .     A
C18    C19     1.480   .     S
C18    O83     1.290   .     A
C19    C23     1.413   .     A
C21    C36     1.406   .     A
C21    H73     1.081   .     S
C22    H42     1.112   .     S
C22    H43     1.111   .     S
C22    C40     1.529   .     S
C22    C24     1.530   .     S
C23    C33     1.534   .     S
C23    C34     1.424   .     A
C24    H76     1.110   .     S
C24    H77     1.111   .     S
C24    H276    1.111   1_455 S
C25    O84     1.412   .     S
C25    H44     1.110   .     S
C25    H936    1.114   1_554 S
C25    H937    1.109   1_554 S
C26    C27     1.529   .     S
C26    H50     1.111   .     S
C26    H51     1.112   .     S
C26    C208    1.538   1_455 S
C27    H49     1.111   .     S
C27    H245    1.108   1_455 S
C27    H246    1.111   1_455 S
C28    H56     1.102   .     S
C28    H57     1.106   .     S
C28    C29     1.529   .     S
C29    H54     1.109   .     S
C29    H55     1.111   .     S
C29    H53     1.111   .     S
C30    H60     1.109   .     S
C30    H59     1.115   .     S
C30    O85     1.415   .     S
C30    H58     1.110   .     S
C31    H61     1.114   .     S
C31    O86     1.411   .     S
C31    H62     1.109   .     S
C31    H64     1.113   .     S
C32    O87     1.411   .     S
C32    H67     1.112   .     S
C32    H66     1.114   .     S
C32    H65     1.109   .     S
C33    H72     1.105   .     S
C33    C35     1.531   .     S
C33    H71     1.110   .     S
C34    C37     1.415   .     A
C34    C36     1.422   .     A
C35    H70     1.109   .     S
C35    H68     1.111   .     S
C35    H69     1.111   .     S
C36    C931    1.421   .     S
C37    C929    1.403   .     S
C38    C39     1.403   .     A
C38    C928    1.403   1_554 S
C39    H74     1.077   .     S
C39    C40     1.406   .     A
C40    C927    1.421   1_554 S
H41    C110    1.086   .     S
H45    C916    1.114   .     S
H46    C916    1.109   .     S
H47    C126    1.108   .     S
H48    C126    1.111   .     S
H52    C607    1.088   1_545 S
H63    C311    1.086   .     S
H78    C123    1.111   .     S
O79    Zn98    1.920   .     S
O79    Zn99    1.932   .     S
O79    Zn97    1.936   .     S
O79    Zn96    1.963   .     S
O80    Zn97    1.918   .     S
O81    Zn99    1.932   .     S
O82    Zn98    1.926   .     S
O83    Zn96    1.916   .     S
O88    Zn96    1.924   .     S
O89    Zn99    1.925   .     S
O90    Zn97    1.929   .     S
O91    Zn98    1.941   .     S
O92    Zn99    1.931   .     S
O93    Zn96    1.920   .     S
O94    Zn97    1.937   .     S
O95    Zn98    1.931   .     S
C100   O189    1.264   .     A
C100   C110    1.443   .     S
C100   O191    1.272   .     A
C101   C102    1.399   .     A
C101   C136    1.404   .     A
C101   H174    1.080   .     S
C102   O185    1.382   .     S
C102   C995    1.417   .     S
C103   O190    1.275   .     A
C103   C109    1.475   .     S
C103   O192    1.286   .     A
C104   C105    1.423   .     A
C104   C106    1.417   .     A
C104   C993    1.417   1_554 S
C105   C137    1.418   .     A
C105   C108    1.423   .     A
C106   C107    1.402   .     A
C106   O183    1.383   .     S
C107   C119    1.410   .     A
C107   O184    1.388   .     S
C108   C119    1.410   .     A
C108   C127    1.537   .     S
C109   C209    1.345   .     S
C109   C224    1.538   .     S
C111   C120    1.396   .     A
C111   O186    1.384   .     S
C111   C118    1.411   .     A
C112   C115    1.451   .     S
C112   C410    1.332   .     S
C112   H448    1.088   .     S
C113   C114    1.435   .     S
C113   C706    1.332   1_545 S
C113   H756    1.086   1_545 S
C114   O193    1.276   .     A
C114   O187    1.277   .     A
C115   O188    1.267   .     A
C115   O194    1.267   .     A
C116   C119    1.463   .     S
C116   O179    1.271   .     A
C116   O181    1.270   .     A
C117   O180    1.284   .     A
C117   C118    1.480   .     S
C117   O182    1.290   .     A
C118   C122    1.413   .     A
C120   C135    1.406   .     A
C120   H172    1.081   .     S
C121   H141    1.112   .     S
C121   H142    1.111   .     S
C121   C139    1.529   .     S
C121   C123    1.530   .     S
C122   C132    1.534   .     S
C122   C133    1.424   .     A
C123   H175    1.110   .     S
C123   H176    1.111   .     S
C124   O183    1.412   .     S
C124   H143    1.110   .     S
C124   H1035   1.114   1_554 S
C124   H1036   1.109   1_554 S
C125   C126    1.529   .     S
C125   H149    1.111   .     S
C125   H150    1.112   .     S
C126   H148    1.111   .     S
C127   H155    1.102   .     S
C127   H156    1.106   .     S
C127   C128    1.529   .     S
C128   H153    1.109   .     S
C128   H154    1.111   .     S
C128   H152    1.111   .     S
C129   H159    1.109   .     S
C129   H158    1.115   .     S
C129   O184    1.415   .     S
C129   H157    1.110   .     S
C130   H160    1.114   .     S
C130   O185    1.411   .     S
C130   H161    1.109   .     S
C130   H163    1.113   .     S
C131   O186    1.411   .     S
C131   H166    1.112   .     S
C131   H165    1.114   .     S
C131   H164    1.109   .     S
C132   H171    1.105   .     S
C132   C134    1.531   .     S
C132   H170    1.110   .     S
C133   C136    1.415   .     A
C133   C135    1.422   .     A
C134   H169    1.109   .     S
C134   H167    1.111   .     S
C134   H168    1.111   .     S
C135   C1030   1.421   .     S
C136   C1028   1.403   .     S
C137   C138    1.403   .     A
C137   C1027   1.403   1_554 S
C138   H173    1.077   .     S
C138   C139    1.406   .     A
C139   C1026   1.421   1_554 S
H140   C209    1.086   .     S
H144   C1015   1.114   .     S
H145   C1015   1.109   .     S
H146   C225    1.108   .     S
H147   C225    1.111   .     S
H151   C706    1.088   1_545 S
H162   C410    1.086   .     S
H177   C222    1.111   .     S
O178   Zn197   1.920   .     S
O178   Zn198   1.932   .     S
O178   Zn196   1.936   .     S
O178   Zn195   1.963   .     S
O179   Zn196   1.918   .     S
O180   Zn198   1.932   .     S
O181   Zn197   1.926   .     S
O182   Zn195   1.916   .     S
O187   Zn195   1.924   .     S
O188   Zn198   1.925   .     S
O189   Zn196   1.929   .     S
O190   Zn197   1.941   .     S
O191   Zn198   1.931   .     S
O192   Zn195   1.920   .     S
O193   Zn196   1.937   .     S
O194   Zn197   1.931   .     S
C199   O288    1.264   .     A
C199   C209    1.443   .     S
C199   O290    1.272   .     A
C200   C201    1.399   .     A
C200   C235    1.404   .     A
C200   H273    1.080   .     S
C201   O284    1.382   .     S
C201   C1094   1.417   .     S
C202   O289    1.275   .     A
C202   C208    1.475   .     S
C202   O291    1.286   .     A
C203   C204    1.423   .     A
C203   C205    1.417   .     A
C203   C1092   1.417   1_554 S
C204   C236    1.418   .     A
C204   C207    1.423   .     A
C205   C206    1.402   .     A
C205   O282    1.383   .     S
C206   C218    1.410   .     A
C206   O283    1.388   .     S
C207   C218    1.410   .     A
C207   C226    1.537   .     S
C208   C11     1.345   1_655 S
C208   C26     1.538   1_655 S
C210   C219    1.396   .     A
C210   O285    1.384   .     S
C210   C217    1.411   .     A
C211   C214    1.451   .     S
C211   C509    1.332   .     S
C211   H547    1.088   .     S
C212   C213    1.435   .     S
C212   C805    1.332   1_545 S
C212   H855    1.086   1_545 S
C213   O292    1.276   .     A
C213   O286    1.277   .     A
C214   O287    1.267   .     A
C214   O293    1.267   .     A
C215   C218    1.463   .     S
C215   O278    1.271   .     A
C215   O280    1.270   .     A
C216   O279    1.284   .     A
C216   C217    1.480   .     S
C216   O281    1.290   .     A
C217   C221    1.413   .     A
C219   C234    1.406   .     A
C219   H271    1.081   .     S
C220   H240    1.112   .     S
C220   H241    1.111   .     S
C220   C238    1.529   .     S
C220   C222    1.530   .     S
C221   C231    1.534   .     S
C221   C232    1.424   .     A
C222   H274    1.110   .     S
C222   H275    1.111   .     S
C223   O282    1.412   .     S
C223   H242    1.110   .     S
C223   H1134   1.114   1_554 S
C223   H1135   1.109   1_554 S
C224   C225    1.529   .     S
C224   H248    1.111   .     S
C224   H249    1.112   .     S
C225   H247    1.111   .     S
C226   H254    1.102   .     S
C226   H255    1.106   .     S
C226   C227    1.529   .     S
C227   H252    1.109   .     S
C227   H253    1.111   .     S
C227   H251    1.111   .     S
C228   H258    1.109   .     S
C228   H257    1.115   .     S
C228   O283    1.415   .     S
C228   H256    1.110   .     S
C229   H259    1.114   .     S
C229   O284    1.411   .     S
C229   H260    1.109   .     S
C229   H262    1.113   .     S
C230   O285    1.411   .     S
C230   H265    1.112   .     S
C230   H264    1.114   .     S
C230   H263    1.109   .     S
C231   H270    1.105   .     S
C231   C233    1.531   .     S
C231   H269    1.110   .     S
C232   C235    1.415   .     A
C232   C234    1.422   .     A
C233   H268    1.109   .     S
C233   H266    1.111   .     S
C233   H267    1.111   .     S
C234   C1129   1.421   .     S
C235   C1127   1.403   .     S
C236   C237    1.403   .     A
C236   C1126   1.403   1_554 S
C237   H272    1.077   .     S
C237   C238    1.406   .     A
C238   C1125   1.421   1_554 S
H239   C11     1.086   1_655 S
H243   C1114   1.114   .     S
H244   C1114   1.109   .     S
H245   C27     1.108   1_655 S
H246   C27     1.111   1_655 S
H250   C805    1.088   1_545 S
H261   C509    1.086   .     S
H276   C24     1.111   1_655 S
O277   Zn296   1.920   .     S
O277   Zn297   1.932   .     S
O277   Zn295   1.936   .     S
O277   Zn294   1.963   .     S
O278   Zn295   1.918   .     S
O279   Zn297   1.932   .     S
O280   Zn296   1.926   .     S
O281   Zn294   1.916   .     S
O286   Zn294   1.924   .     S
O287   Zn297   1.925   .     S
O288   Zn295   1.929   .     S
O289   Zn296   1.941   .     S
O290   Zn297   1.931   .     S
O291   Zn294   1.920   .     S
O292   Zn295   1.937   .     S
O293   Zn296   1.931   .     S
C298   O387    1.264   .     A
C298   C308    1.443   .     S
C298   O389    1.272   .     A
C299   C300    1.399   .     A
C299   C334    1.404   .     A
C299   H372    1.080   .     S
C300   O383    1.382   .     S
C300   C1193   1.417   .     S
C301   O388    1.275   .     A
C301   C307    1.475   .     S
C301   O390    1.286   .     A
C302   C303    1.423   .     A
C302   C304    1.417   .     A
C302   C1191   1.417   1_554 S
C303   C335    1.418   .     A
C303   C306    1.423   .     A
C304   C305    1.402   .     A
C304   O381    1.383   .     S
C305   C317    1.410   .     A
C305   O382    1.388   .     S
C306   C317    1.410   .     A
C306   C325    1.537   .     S
C307   C407    1.345   .     S
C307   C422    1.538   .     S
C308   C505    1.345   1_455 S
C308   H536    1.086   1_455 S
C309   C318    1.396   .     A
C309   O384    1.384   .     S
C309   C316    1.411   .     A
C310   C313    1.451   .     S
C310   C608    1.332   .     S
C310   H646    1.088   .     S
C311   C312    1.435   .     S
C312   O391    1.276   .     A
C312   O385    1.277   .     A
C313   O386    1.267   .     A
C313   O392    1.267   .     A
C314   C317    1.463   .     S
C314   O377    1.271   .     A
C314   O379    1.270   .     A
C315   O378    1.284   .     A
C315   C316    1.480   .     S
C315   O380    1.290   .     A
C316   C320    1.413   .     A
C318   C333    1.406   .     A
C318   H370    1.081   .     S
C319   H339    1.112   .     S
C319   H340    1.111   .     S
C319   C337    1.529   .     S
C319   C321    1.530   .     S
C320   C330    1.534   .     S
C320   C331    1.424   .     A
C321   H373    1.110   .     S
C321   H374    1.111   .     S
C321   H573    1.111   1_455 S
C322   O381    1.412   .     S
C322   H341    1.110   .     S
C322   H1233   1.114   1_554 S
C322   H1234   1.109   1_554 S
C323   C324    1.529   .     S
C323   H347    1.111   .     S
C323   H348    1.112   .     S
C323   C505    1.538   1_455 S
C324   H346    1.111   .     S
C324   H542    1.108   1_455 S
C324   H543    1.111   1_455 S
C325   H353    1.102   .     S
C325   H354    1.106   .     S
C325   C326    1.529   .     S
C326   H351    1.109   .     S
C326   H352    1.111   .     S
C326   H350    1.111   .     S
C327   H357    1.109   .     S
C327   H356    1.115   .     S
C327   O382    1.415   .     S
C327   H355    1.110   .     S
C328   H358    1.114   .     S
C328   O383    1.411   .     S
C328   H359    1.109   .     S
C328   H361    1.113   .     S
C329   O384    1.411   .     S
C329   H364    1.112   .     S
C329   H363    1.114   .     S
C329   H362    1.109   .     S
C330   H369    1.105   .     S
C330   C332    1.531   .     S
C330   H368    1.110   .     S
C331   C334    1.415   .     A
C331   C333    1.422   .     A
C332   H367    1.109   .     S
C332   H365    1.111   .     S
C332   H366    1.111   .     S
C333   C1228   1.421   .     S
C334   C1226   1.403   .     S
C335   C336    1.403   .     A
C335   C1225   1.403   1_554 S
C336   H371    1.077   .     S
C336   C337    1.406   .     A
C337   C1224   1.421   1_554 S
H338   C407    1.086   .     S
H342   C1213   1.114   .     S
H343   C1213   1.109   .     S
H344   C423    1.108   .     S
H345   C423    1.111   .     S
H360   C608    1.086   .     S
H375   C420    1.111   .     S
O376   Zn395   1.920   .     S
O376   Zn396   1.932   .     S
O376   Zn394   1.936   .     S
O376   Zn393   1.963   .     S
O377   Zn394   1.918   .     S
O378   Zn396   1.932   .     S
O379   Zn395   1.926   .     S
O380   Zn393   1.916   .     S
O385   Zn393   1.924   .     S
O386   Zn396   1.925   .     S
O387   Zn394   1.929   .     S
O388   Zn395   1.941   .     S
O389   Zn396   1.931   .     S
O390   Zn393   1.920   .     S
O391   Zn394   1.937   .     S
O392   Zn395   1.931   .     S
C397   O486    1.264   .     A
C397   C407    1.443   .     S
C397   O488    1.272   .     A
C398   C399    1.399   .     A
C398   C433    1.404   .     A
C398   H471    1.080   .     S
C399   O482    1.382   .     S
C399   C1292   1.417   .     S
C400   O487    1.275   .     A
C400   C406    1.475   .     S
C400   O489    1.286   .     A
C401   C402    1.423   .     A
C401   C403    1.417   .     A
C401   C1290   1.417   1_554 S
C402   C434    1.418   .     A
C402   C405    1.423   .     A
C403   C404    1.402   .     A
C403   O480    1.383   .     S
C404   C416    1.410   .     A
C404   O481    1.388   .     S
C405   C416    1.410   .     A
C405   C424    1.537   .     S
C406   C506    1.345   .     S
C406   C521    1.538   .     S
C408   C417    1.396   .     A
C408   O483    1.384   .     S
C408   C415    1.411   .     A
C409   C412    1.451   .     S
C409   C707    1.332   .     S
C409   H745    1.088   .     S
C410   C411    1.435   .     S
C411   O490    1.276   .     A
C411   O484    1.277   .     A
C412   O485    1.267   .     A
C412   O491    1.267   .     A
C413   C416    1.463   .     S
C413   O476    1.271   .     A
C413   O478    1.270   .     A
C414   O477    1.284   .     A
C414   C415    1.480   .     S
C414   O479    1.290   .     A
C415   C419    1.413   .     A
C417   C432    1.406   .     A
C417   H469    1.081   .     S
C418   H438    1.112   .     S
C418   H439    1.111   .     S
C418   C436    1.529   .     S
C418   C420    1.530   .     S
C419   C429    1.534   .     S
C419   C430    1.424   .     A
C420   H472    1.110   .     S
C420   H473    1.111   .     S
C421   O480    1.412   .     S
C421   H440    1.110   .     S
C421   H1332   1.114   1_554 S
C421   H1333   1.109   1_554 S
C422   C423    1.529   .     S
C422   H446    1.111   .     S
C422   H447    1.112   .     S
C423   H445    1.111   .     S
C424   H452    1.102   .     S
C424   H453    1.106   .     S
C424   C425    1.529   .     S
C425   H450    1.109   .     S
C425   H451    1.111   .     S
C425   H449    1.111   .     S
C426   H456    1.109   .     S
C426   H455    1.115   .     S
C426   O481    1.415   .     S
C426   H454    1.110   .     S
C427   H457    1.114   .     S
C427   O482    1.411   .     S
C427   H458    1.109   .     S
C427   H460    1.113   .     S
C428   O483    1.411   .     S
C428   H463    1.112   .     S
C428   H462    1.114   .     S
C428   H461    1.109   .     S
C429   H468    1.105   .     S
C429   C431    1.531   .     S
C429   H467    1.110   .     S
C430   C433    1.415   .     A
C430   C432    1.422   .     A
C431   H466    1.109   .     S
C431   H464    1.111   .     S
C431   H465    1.111   .     S
C432   C1327   1.421   .     S
C433   C1325   1.403   .     S
C434   C435    1.403   .     A
C434   C1324   1.403   1_554 S
C435   H470    1.077   .     S
C435   C436    1.406   .     A
C436   C1323   1.421   1_554 S
H437   C506    1.086   .     S
H441   C1312   1.114   .     S
H442   C1312   1.109   .     S
H443   C522    1.108   .     S
H444   C522    1.111   .     S
H459   C707    1.086   .     S
H474   C519    1.111   .     S
O475   Zn494   1.920   .     S
O475   Zn495   1.932   .     S
O475   Zn493   1.936   .     S
O475   Zn492   1.963   .     S
O476   Zn493   1.918   .     S
O477   Zn495   1.932   .     S
O478   Zn494   1.926   .     S
O479   Zn492   1.916   .     S
O484   Zn492   1.924   .     S
O485   Zn495   1.925   .     S
O486   Zn493   1.929   .     S
O487   Zn494   1.941   .     S
O488   Zn495   1.931   .     S
O489   Zn492   1.920   .     S
O490   Zn493   1.937   .     S
O491   Zn494   1.931   .     S
C496   O585    1.264   .     A
C496   C506    1.443   .     S
C496   O587    1.272   .     A
C497   C498    1.399   .     A
C497   C532    1.404   .     A
C497   H570    1.080   .     S
C498   O581    1.382   .     S
C498   C1391   1.417   .     S
C499   O586    1.275   .     A
C499   C505    1.475   .     S
C499   O588    1.286   .     A
C500   C501    1.423   .     A
C500   C502    1.417   .     A
C500   C1389   1.417   1_554 S
C501   C533    1.418   .     A
C501   C504    1.423   .     A
C502   C503    1.402   .     A
C502   O579    1.383   .     S
C503   C515    1.410   .     A
C503   O580    1.388   .     S
C504   C515    1.410   .     A
C504   C523    1.537   .     S
C505   C308    1.345   1_655 S
C505   C323    1.538   1_655 S
C507   C516    1.396   .     A
C507   O582    1.384   .     S
C507   C514    1.411   .     A
C508   C511    1.451   .     S
C508   C806    1.332   .     S
C508   H844    1.088   .     S
C509   C510    1.435   .     S
C510   O589    1.276   .     A
C510   O583    1.277   .     A
C511   O584    1.267   .     A
C511   O590    1.267   .     A
C512   C515    1.463   .     S
C512   O575    1.271   .     A
C512   O577    1.270   .     A
C513   O576    1.284   .     A
C513   C514    1.480   .     S
C513   O578    1.290   .     A
C514   C518    1.413   .     A
C516   C531    1.406   .     A
C516   H568    1.081   .     S
C517   H537    1.112   .     S
C517   H538    1.111   .     S
C517   C535    1.529   .     S
C517   C519    1.530   .     S
C518   C528    1.534   .     S
C518   C529    1.424   .     A
C519   H571    1.110   .     S
C519   H572    1.111   .     S
C520   O579    1.412   .     S
C520   H539    1.110   .     S
C520   H1431   1.114   1_554 S
C520   H1432   1.109   1_554 S
C521   C522    1.529   .     S
C521   H545    1.111   .     S
C521   H546    1.112   .     S
C522   H544    1.111   .     S
C523   H551    1.102   .     S
C523   H552    1.106   .     S
C523   C524    1.529   .     S
C524   H549    1.109   .     S
C524   H550    1.111   .     S
C524   H548    1.111   .     S
C525   H555    1.109   .     S
C525   H554    1.115   .     S
C525   O580    1.415   .     S
C525   H553    1.110   .     S
C526   H556    1.114   .     S
C526   O581    1.411   .     S
C526   H557    1.109   .     S
C526   H559    1.113   .     S
C527   O582    1.411   .     S
C527   H562    1.112   .     S
C527   H561    1.114   .     S
C527   H560    1.109   .     S
C528   H567    1.105   .     S
C528   C530    1.531   .     S
C528   H566    1.110   .     S
C529   C532    1.415   .     A
C529   C531    1.422   .     A
C530   H565    1.109   .     S
C530   H563    1.111   .     S
C530   H564    1.111   .     S
C531   C1426   1.421   .     S
C532   C1424   1.403   .     S
C533   C534    1.403   .     A
C533   C1423   1.403   1_554 S
C534   H569    1.077   .     S
C534   C535    1.406   .     A
C535   C1422   1.421   1_554 S
H536   C308    1.086   1_655 S
H540   C1411   1.114   .     S
H541   C1411   1.109   .     S
H542   C324    1.108   1_655 S
H543   C324    1.111   1_655 S
H558   C806    1.086   .     S
H573   C321    1.111   1_655 S
O574   Zn593   1.920   .     S
O574   Zn594   1.932   .     S
O574   Zn592   1.936   .     S
O574   Zn591   1.963   .     S
O575   Zn592   1.918   .     S
O576   Zn594   1.932   .     S
O577   Zn593   1.926   .     S
O578   Zn591   1.916   .     S
O583   Zn591   1.924   .     S
O584   Zn594   1.925   .     S
O585   Zn592   1.929   .     S
O586   Zn593   1.941   .     S
O587   Zn594   1.931   .     S
O588   Zn591   1.920   .     S
O589   Zn592   1.937   .     S
O590   Zn593   1.931   .     S
C595   O684    1.264   .     A
C595   C605    1.443   .     S
C595   O686    1.272   .     A
C596   C597    1.399   .     A
C596   C631    1.404   .     A
C596   H669    1.080   .     S
C597   O680    1.382   .     S
C597   C1490   1.417   .     S
C598   O685    1.275   .     A
C598   C604    1.475   .     S
C598   O687    1.286   .     A
C599   C600    1.423   .     A
C599   C601    1.417   .     A
C599   C1488   1.417   1_554 S
C600   C632    1.418   .     A
C600   C603    1.423   .     A
C601   C602    1.402   .     A
C601   O678    1.383   .     S
C602   C614    1.410   .     A
C602   O679    1.388   .     S
C603   C614    1.410   .     A
C603   C622    1.537   .     S
C604   C704    1.345   .     S
C604   C719    1.538   .     S
C605   C802    1.345   1_455 S
C605   H833    1.086   1_455 S
C606   C615    1.396   .     A
C606   O681    1.384   .     S
C606   C613    1.411   .     A
C607   C610    1.451   .     S
C607   C14     1.332   1_565 S
C607   H52     1.088   1_565 S
C608   C609    1.435   .     S
C609   O688    1.276   .     A
C609   O682    1.277   .     A
C610   O683    1.267   .     A
C610   O689    1.267   .     A
C611   C614    1.463   .     S
C611   O674    1.271   .     A
C611   O676    1.270   .     A
C612   O675    1.284   .     A
C612   C613    1.480   .     S
C612   O677    1.290   .     A
C613   C617    1.413   .     A
C615   C630    1.406   .     A
C615   H667    1.081   .     S
C616   H636    1.112   .     S
C616   H637    1.111   .     S
C616   C634    1.529   .     S
C616   C618    1.530   .     S
C617   C627    1.534   .     S
C617   C628    1.424   .     A
C618   H670    1.110   .     S
C618   H671    1.111   .     S
C618   H870    1.111   1_455 S
C619   O678    1.412   .     S
C619   H638    1.110   .     S
C619   H1530   1.114   1_554 S
C619   H1531   1.109   1_554 S
C620   C621    1.529   .     S
C620   H644    1.111   .     S
C620   H645    1.112   .     S
C620   C802    1.538   1_455 S
C621   H643    1.111   .     S
C621   H839    1.108   1_455 S
C621   H840    1.111   1_455 S
C622   H650    1.102   .     S
C622   H651    1.106   .     S
C622   C623    1.529   .     S
C623   H648    1.109   .     S
C623   H649    1.111   .     S
C623   H647    1.111   .     S
C624   H654    1.109   .     S
C624   H653    1.115   .     S
C624   O679    1.415   .     S
C624   H652    1.110   .     S
C625   H655    1.114   .     S
C625   O680    1.411   .     S
C625   H656    1.109   .     S
C625   H658    1.113   .     S
C626   O681    1.411   .     S
C626   H661    1.112   .     S
C626   H660    1.114   .     S
C626   H659    1.109   .     S
C627   H666    1.105   .     S
C627   C629    1.531   .     S
C627   H665    1.110   .     S
C628   C631    1.415   .     A
C628   C630    1.422   .     A
C629   H664    1.109   .     S
C629   H662    1.111   .     S
C629   H663    1.111   .     S
C630   C1525   1.421   .     S
C631   C1523   1.403   .     S
C632   C633    1.403   .     A
C632   C1522   1.403   1_554 S
C633   H668    1.077   .     S
C633   C634    1.406   .     A
C634   C1521   1.421   1_554 S
H635   C704    1.086   .     S
H639   C1510   1.114   .     S
H640   C1510   1.109   .     S
H641   C720    1.108   .     S
H642   C720    1.111   .     S
H657   C14     1.086   1_565 S
H672   C717    1.111   .     S
O673   Zn692   1.920   .     S
O673   Zn693   1.932   .     S
O673   Zn691   1.936   .     S
O673   Zn690   1.963   .     S
O674   Zn691   1.918   .     S
O675   Zn693   1.932   .     S
O676   Zn692   1.926   .     S
O677   Zn690   1.916   .     S
O682   Zn690   1.924   .     S
O683   Zn693   1.925   .     S
O684   Zn691   1.929   .     S
O685   Zn692   1.941   .     S
O686   Zn693   1.931   .     S
O687   Zn690   1.920   .     S
O688   Zn691   1.937   .     S
O689   Zn692   1.931   .     S
C694   O783    1.264   .     A
C694   C704    1.443   .     S
C694   O785    1.272   .     A
C695   C696    1.399   .     A
C695   C730    1.404   .     A
C695   H768    1.080   .     S
C696   O779    1.382   .     S
C696   C1589   1.417   .     S
C697   O784    1.275   .     A
C697   C703    1.475   .     S
C697   O786    1.286   .     A
C698   C699    1.423   .     A
C698   C700    1.417   .     A
C698   C1587   1.417   1_554 S
C699   C731    1.418   .     A
C699   C702    1.423   .     A
C700   C701    1.402   .     A
C700   O777    1.383   .     S
C701   C713    1.410   .     A
C701   O778    1.388   .     S
C702   C713    1.410   .     A
C702   C721    1.537   .     S
C703   C803    1.345   .     S
C703   C818    1.538   .     S
C705   C714    1.396   .     A
C705   O780    1.384   .     S
C705   C712    1.411   .     A
C706   C709    1.451   .     S
C706   C113    1.332   1_565 S
C706   H151    1.088   1_565 S
C707   C708    1.435   .     S
C708   O787    1.276   .     A
C708   O781    1.277   .     A
C709   O782    1.267   .     A
C709   O788    1.267   .     A
C710   C713    1.463   .     S
C710   O773    1.271   .     A
C710   O775    1.270   .     A
C711   O774    1.284   .     A
C711   C712    1.480   .     S
C711   O776    1.290   .     A
C712   C716    1.413   .     A
C714   C729    1.406   .     A
C714   H766    1.081   .     S
C715   H735    1.112   .     S
C715   H736    1.111   .     S
C715   C733    1.529   .     S
C715   C717    1.530   .     S
C716   C726    1.534   .     S
C716   C727    1.424   .     A
C717   H769    1.110   .     S
C717   H770    1.111   .     S
C718   O777    1.412   .     S
C718   H737    1.110   .     S
C718   H1629   1.114   1_554 S
C718   H1630   1.109   1_554 S
C719   C720    1.529   .     S
C719   H743    1.111   .     S
C719   H744    1.112   .     S
C720   H742    1.111   .     S
C721   H749    1.102   .     S
C721   H750    1.106   .     S
C721   C722    1.529   .     S
C722   H747    1.109   .     S
C722   H748    1.111   .     S
C722   H746    1.111   .     S
C723   H753    1.109   .     S
C723   H752    1.115   .     S
C723   O778    1.415   .     S
C723   H751    1.110   .     S
C724   H754    1.114   .     S
C724   O779    1.411   .     S
C724   H755    1.109   .     S
C724   H757    1.113   .     S
C725   O780    1.411   .     S
C725   H760    1.112   .     S
C725   H759    1.114   .     S
C725   H758    1.109   .     S
C726   H765    1.105   .     S
C726   C728    1.531   .     S
C726   H764    1.110   .     S
C727   C730    1.415   .     A
C727   C729    1.422   .     A
C728   H763    1.109   .     S
C728   H761    1.111   .     S
C728   H762    1.111   .     S
C729   C1624   1.421   .     S
C730   C1622   1.403   .     S
C731   C732    1.403   .     A
C731   C1621   1.403   1_554 S
C732   H767    1.077   .     S
C732   C733    1.406   .     A
C733   C1620   1.421   1_554 S
H734   C803    1.086   .     S
H738   C1609   1.114   .     S
H739   C1609   1.109   .     S
H740   C819    1.108   .     S
H741   C819    1.111   .     S
H756   C113    1.086   1_565 S
H771   C816    1.111   .     S
O772   Zn791   1.920   .     S
O772   Zn792   1.932   .     S
O772   Zn790   1.936   .     S
O772   Zn789   1.963   .     S
O773   Zn790   1.918   .     S
O774   Zn792   1.932   .     S
O775   Zn791   1.926   .     S
O776   Zn789   1.916   .     S
O781   Zn789   1.924   .     S
O782   Zn792   1.925   .     S
O783   Zn790   1.929   .     S
O784   Zn791   1.941   .     S
O785   Zn792   1.931   .     S
O786   Zn789   1.920   .     S
O787   Zn790   1.937   .     S
O788   Zn791   1.931   .     S
C793   O882    1.264   .     A
C793   C803    1.443   .     S
C793   O884    1.272   .     A
C794   C795    1.399   .     A
C794   C829    1.404   .     A
C794   H867    1.080   .     S
C795   O878    1.382   .     S
C795   C1688   1.417   .     S
C796   O883    1.275   .     A
C796   C802    1.475   .     S
C796   O885    1.286   .     A
C797   C798    1.423   .     A
C797   C799    1.417   .     A
C797   C1686   1.417   1_554 S
C798   C830    1.418   .     A
C798   C801    1.423   .     A
C799   C800    1.402   .     A
C799   O876    1.383   .     S
C800   C812    1.410   .     A
C800   O877    1.388   .     S
C801   C812    1.410   .     A
C801   C820    1.537   .     S
C802   C605    1.345   1_655 S
C802   C620    1.538   1_655 S
C804   C813    1.396   .     A
C804   O879    1.384   .     S
C804   C811    1.411   .     A
C805   C808    1.451   .     S
C805   C212    1.332   1_565 S
C805   H250    1.088   1_565 S
C806   C807    1.435   .     S
C807   O886    1.276   .     A
C807   O880    1.277   .     A
C808   O881    1.267   .     A
C808   O887    1.267   .     A
C809   C812    1.463   .     S
C809   O872    1.271   .     A
C809   O874    1.270   .     A
C810   O873    1.284   .     A
C810   C811    1.480   .     S
C810   O875    1.290   .     A
C811   C815    1.413   .     A
C813   C828    1.406   .     A
C813   H865    1.081   .     S
C814   H834    1.112   .     S
C814   H835    1.111   .     S
C814   C832    1.529   .     S
C814   C816    1.530   .     S
C815   C825    1.534   .     S
C815   C826    1.424   .     A
C816   H868    1.110   .     S
C816   H869    1.111   .     S
C817   O876    1.412   .     S
C817   H836    1.110   .     S
C817   H1728   1.114   1_554 S
C817   H1729   1.109   1_554 S
C818   C819    1.529   .     S
C818   H842    1.111   .     S
C818   H843    1.112   .     S
C819   H841    1.111   .     S
C820   H848    1.102   .     S
C820   H849    1.106   .     S
C820   C821    1.529   .     S
C821   H846    1.109   .     S
C821   H847    1.111   .     S
C821   H845    1.111   .     S
C822   H852    1.109   .     S
C822   H851    1.115   .     S
C822   O877    1.415   .     S
C822   H850    1.110   .     S
C823   H853    1.114   .     S
C823   O878    1.411   .     S
C823   H854    1.109   .     S
C823   H856    1.113   .     S
C824   O879    1.411   .     S
C824   H859    1.112   .     S
C824   H858    1.114   .     S
C824   H857    1.109   .     S
C825   H864    1.105   .     S
C825   C827    1.531   .     S
C825   H863    1.110   .     S
C826   C829    1.415   .     A
C826   C828    1.422   .     A
C827   H862    1.109   .     S
C827   H860    1.111   .     S
C827   H861    1.111   .     S
C828   C1723   1.421   .     S
C829   C1721   1.403   .     S
C830   C831    1.403   .     A
C830   C1720   1.403   1_554 S
C831   H866    1.077   .     S
C831   C832    1.406   .     A
C832   C1719   1.421   1_554 S
H833   C605    1.086   1_655 S
H837   C1708   1.114   .     S
H838   C1708   1.109   .     S
H839   C621    1.108   1_655 S
H840   C621    1.111   1_655 S
H855   C212    1.086   1_565 S
H870   C618    1.111   1_655 S
O871   Zn890   1.920   .     S
O871   Zn891   1.932   .     S
O871   Zn889   1.936   .     S
O871   Zn888   1.963   .     S
O872   Zn889   1.918   .     S
O873   Zn891   1.932   .     S
O874   Zn890   1.926   .     S
O875   Zn888   1.916   .     S
O880   Zn888   1.924   .     S
O881   Zn891   1.925   .     S
O882   Zn889   1.929   .     S
O883   Zn890   1.941   .     S
O884   Zn891   1.931   .     S
O885   Zn888   1.920   .     S
O886   Zn889   1.937   .     S
O887   Zn890   1.931   .     S
C892   O981    1.264   .     A
C892   C902    1.443   .     S
C892   O983    1.272   .     A
C893   C894    1.399   .     A
C893   C928    1.404   .     A
C893   H966    1.080   .     S
C894   O977    1.382   .     S
C894   C5      1.417   1_556 S
C895   O982    1.275   .     A
C895   C901    1.475   .     S
C895   O984    1.286   .     A
C896   C897    1.423   .     A
C896   C898    1.417   .     A
C897   C929    1.418   .     A
C897   C900    1.423   .     A
C898   C899    1.402   .     A
C898   O975    1.383   .     S
C899   C911    1.410   .     A
C899   O976    1.388   .     S
C900   C911    1.410   .     A
C900   C919    1.537   .     S
C901   C1001   1.345   .     S
C901   C1016   1.538   .     S
C902   C1099   1.345   1_455 S
C902   H1130   1.086   1_455 S
C903   C912    1.396   .     A
C903   O978    1.384   .     S
C903   C910    1.411   .     A
C904   C907    1.451   .     S
C904   C1202   1.332   .     S
C904   H1240   1.088   .     S
C905   C906    1.435   .     S
C905   C1498   1.332   1_545 S
C905   H1548   1.086   1_545 S
C906   O985    1.276   .     A
C906   O979    1.277   .     A
C907   O980    1.267   .     A
C907   O986    1.267   .     A
C908   C911    1.463   .     S
C908   O971    1.271   .     A
C908   O973    1.270   .     A
C909   O972    1.284   .     A
C909   C910    1.480   .     S
C909   O974    1.290   .     A
C910   C914    1.413   .     A
C912   C927    1.406   .     A
C912   H964    1.081   .     S
C913   H933    1.112   .     S
C913   H934    1.111   .     S
C913   C931    1.529   .     S
C913   C915    1.530   .     S
C914   C924    1.534   .     S
C914   C925    1.424   .     A
C915   H967    1.110   .     S
C915   H968    1.111   .     S
C915   H1167   1.111   1_455 S
C916   O975    1.412   .     S
C916   H935    1.110   .     S
C917   C918    1.529   .     S
C917   H941    1.111   .     S
C917   H942    1.112   .     S
C917   C1099   1.538   1_455 S
C918   H940    1.111   .     S
C918   H1136   1.108   1_455 S
C918   H1137   1.111   1_455 S
C919   H947    1.102   .     S
C919   H948    1.106   .     S
C919   C920    1.529   .     S
C920   H945    1.109   .     S
C920   H946    1.111   .     S
C920   H944    1.111   .     S
C921   H951    1.109   .     S
C921   H950    1.115   .     S
C921   O976    1.415   .     S
C921   H949    1.110   .     S
C922   H952    1.114   .     S
C922   O977    1.411   .     S
C922   H953    1.109   .     S
C922   H955    1.113   .     S
C923   O978    1.411   .     S
C923   H958    1.112   .     S
C923   H957    1.114   .     S
C923   H956    1.109   .     S
C924   H963    1.105   .     S
C924   C926    1.531   .     S
C924   H962    1.110   .     S
C925   C928    1.415   .     A
C925   C927    1.422   .     A
C926   H961    1.109   .     S
C926   H959    1.111   .     S
C926   H960    1.111   .     S
C927   C40     1.421   1_556 S
C928   C38     1.403   1_556 S
C929   C930    1.403   .     A
C930   H965    1.077   .     S
C930   C931    1.406   .     A
H932   C1001   1.086   .     S
H936   C25     1.114   1_556 S
H937   C25     1.109   1_556 S
H938   C1017   1.108   .     S
H939   C1017   1.111   .     S
H943   C1498   1.088   1_545 S
H954   C1202   1.086   .     S
H969   C1014   1.111   .     S
O970   Zn989   1.920   .     S
O970   Zn990   1.932   .     S
O970   Zn988   1.936   .     S
O970   Zn987   1.963   .     S
O971   Zn988   1.918   .     S
O972   Zn990   1.932   .     S
O973   Zn989   1.926   .     S
O974   Zn987   1.916   .     S
O979   Zn987   1.924   .     S
O980   Zn990   1.925   .     S
O981   Zn988   1.929   .     S
O982   Zn989   1.941   .     S
O983   Zn990   1.931   .     S
O984   Zn987   1.920   .     S
O985   Zn988   1.937   .     S
O986   Zn989   1.931   .     S
C991   O1080   1.264   .     A
C991   C1001   1.443   .     S
C991   O1082   1.272   .     A
C992   C993    1.399   .     A
C992   C1027   1.404   .     A
C992   H1065   1.080   .     S
C993   O1076   1.382   .     S
C993   C104    1.417   1_556 S
C994   O1081   1.275   .     A
C994   C1000   1.475   .     S
C994   O1083   1.286   .     A
C995   C996    1.423   .     A
C995   C997    1.417   .     A
C996   C1028   1.418   .     A
C996   C999    1.423   .     A
C997   C998    1.402   .     A
C997   O1074   1.383   .     S
C998   C1010   1.410   .     A
C998   O1075   1.388   .     S
C999   C1010   1.410   .     A
C999   C1018   1.537   .     S
C1000  C1100   1.345   .     S
C1000  C1115   1.538   .     S
C1002  C1011   1.396   .     A
C1002  O1077   1.384   .     S
C1002  C1009   1.411   .     A
C1003  C1006   1.451   .     S
C1003  C1301   1.332   .     S
C1003  H1339   1.088   .     S
C1004  C1005   1.435   .     S
C1004  C1597   1.332   1_545 S
C1004  H1647   1.086   1_545 S
C1005  O1084   1.276   .     A
C1005  O1078   1.277   .     A
C1006  O1079   1.267   .     A
C1006  O1085   1.267   .     A
C1007  C1010   1.463   .     S
C1007  O1070   1.271   .     A
C1007  O1072   1.270   .     A
C1008  O1071   1.284   .     A
C1008  C1009   1.480   .     S
C1008  O1073   1.290   .     A
C1009  C1013   1.413   .     A
C1011  C1026   1.406   .     A
C1011  H1063   1.081   .     S
C1012  H1032   1.112   .     S
C1012  H1033   1.111   .     S
C1012  C1030   1.529   .     S
C1012  C1014   1.530   .     S
C1013  C1023   1.534   .     S
C1013  C1024   1.424   .     A
C1014  H1066   1.110   .     S
C1014  H1067   1.111   .     S
C1015  O1074   1.412   .     S
C1015  H1034   1.110   .     S
C1016  C1017   1.529   .     S
C1016  H1040   1.111   .     S
C1016  H1041   1.112   .     S
C1017  H1039   1.111   .     S
C1018  H1046   1.102   .     S
C1018  H1047   1.106   .     S
C1018  C1019   1.529   .     S
C1019  H1044   1.109   .     S
C1019  H1045   1.111   .     S
C1019  H1043   1.111   .     S
C1020  H1050   1.109   .     S
C1020  H1049   1.115   .     S
C1020  O1075   1.415   .     S
C1020  H1048   1.110   .     S
C1021  H1051   1.114   .     S
C1021  O1076   1.411   .     S
C1021  H1052   1.109   .     S
C1021  H1054   1.113   .     S
C1022  O1077   1.411   .     S
C1022  H1057   1.112   .     S
C1022  H1056   1.114   .     S
C1022  H1055   1.109   .     S
C1023  H1062   1.105   .     S
C1023  C1025   1.531   .     S
C1023  H1061   1.110   .     S
C1024  C1027   1.415   .     A
C1024  C1026   1.422   .     A
C1025  H1060   1.109   .     S
C1025  H1058   1.111   .     S
C1025  H1059   1.111   .     S
C1026  C139    1.421   1_556 S
C1027  C137    1.403   1_556 S
C1028  C1029   1.403   .     A
C1029  H1064   1.077   .     S
C1029  C1030   1.406   .     A
H1031  C1100   1.086   .     S
H1035  C124    1.114   1_556 S
H1036  C124    1.109   1_556 S
H1037  C1116   1.108   .     S
H1038  C1116   1.111   .     S
H1042  C1597   1.088   1_545 S
H1053  C1301   1.086   .     S
H1068  C1113   1.111   .     S
O1069  Zn1088  1.920   .     S
O1069  Zn1089  1.932   .     S
O1069  Zn1087  1.936   .     S
O1069  Zn1086  1.963   .     S
O1070  Zn1087  1.918   .     S
O1071  Zn1089  1.932   .     S
O1072  Zn1088  1.926   .     S
O1073  Zn1086  1.916   .     S
O1078  Zn1086  1.924   .     S
O1079  Zn1089  1.925   .     S
O1080  Zn1087  1.929   .     S
O1081  Zn1088  1.941   .     S
O1082  Zn1089  1.931   .     S
O1083  Zn1086  1.920   .     S
O1084  Zn1087  1.937   .     S
O1085  Zn1088  1.931   .     S
C1090  O1179   1.264   .     A
C1090  C1100   1.443   .     S
C1090  O1181   1.272   .     A
C1091  C1092   1.399   .     A
C1091  C1126   1.404   .     A
C1091  H1164   1.080   .     S
C1092  O1175   1.382   .     S
C1092  C203    1.417   1_556 S
C1093  O1180   1.275   .     A
C1093  C1099   1.475   .     S
C1093  O1182   1.286   .     A
C1094  C1095   1.423   .     A
C1094  C1096   1.417   .     A
C1095  C1127   1.418   .     A
C1095  C1098   1.423   .     A
C1096  C1097   1.402   .     A
C1096  O1173   1.383   .     S
C1097  C1109   1.410   .     A
C1097  O1174   1.388   .     S
C1098  C1109   1.410   .     A
C1098  C1117   1.537   .     S
C1099  C902    1.345   1_655 S
C1099  C917    1.538   1_655 S
C1101  C1110   1.396   .     A
C1101  O1176   1.384   .     S
C1101  C1108   1.411   .     A
C1102  C1105   1.451   .     S
C1102  C1400   1.332   .     S
C1102  H1438   1.088   .     S
C1103  C1104   1.435   .     S
C1103  C1696   1.332   1_545 S
C1103  H1746   1.086   1_545 S
C1104  O1183   1.276   .     A
C1104  O1177   1.277   .     A
C1105  O1178   1.267   .     A
C1105  O1184   1.267   .     A
C1106  C1109   1.463   .     S
C1106  O1169   1.271   .     A
C1106  O1171   1.270   .     A
C1107  O1170   1.284   .     A
C1107  C1108   1.480   .     S
C1107  O1172   1.290   .     A
C1108  C1112   1.413   .     A
C1110  C1125   1.406   .     A
C1110  H1162   1.081   .     S
C1111  H1131   1.112   .     S
C1111  H1132   1.111   .     S
C1111  C1129   1.529   .     S
C1111  C1113   1.530   .     S
C1112  C1122   1.534   .     S
C1112  C1123   1.424   .     A
C1113  H1165   1.110   .     S
C1113  H1166   1.111   .     S
C1114  O1173   1.412   .     S
C1114  H1133   1.110   .     S
C1115  C1116   1.529   .     S
C1115  H1139   1.111   .     S
C1115  H1140   1.112   .     S
C1116  H1138   1.111   .     S
C1117  H1145   1.102   .     S
C1117  H1146   1.106   .     S
C1117  C1118   1.529   .     S
C1118  H1143   1.109   .     S
C1118  H1144   1.111   .     S
C1118  H1142   1.111   .     S
C1119  H1149   1.109   .     S
C1119  H1148   1.115   .     S
C1119  O1174   1.415   .     S
C1119  H1147   1.110   .     S
C1120  H1150   1.114   .     S
C1120  O1175   1.411   .     S
C1120  H1151   1.109   .     S
C1120  H1153   1.113   .     S
C1121  O1176   1.411   .     S
C1121  H1156   1.112   .     S
C1121  H1155   1.114   .     S
C1121  H1154   1.109   .     S
C1122  H1161   1.105   .     S
C1122  C1124   1.531   .     S
C1122  H1160   1.110   .     S
C1123  C1126   1.415   .     A
C1123  C1125   1.422   .     A
C1124  H1159   1.109   .     S
C1124  H1157   1.111   .     S
C1124  H1158   1.111   .     S
C1125  C238    1.421   1_556 S
C1126  C236    1.403   1_556 S
C1127  C1128   1.403   .     A
C1128  H1163   1.077   .     S
C1128  C1129   1.406   .     A
H1130  C902    1.086   1_655 S
H1134  C223    1.114   1_556 S
H1135  C223    1.109   1_556 S
H1136  C918    1.108   1_655 S
H1137  C918    1.111   1_655 S
H1141  C1696   1.088   1_545 S
H1152  C1400   1.086   .     S
H1167  C915    1.111   1_655 S
O1168  Zn1187  1.920   .     S
O1168  Zn1188  1.932   .     S
O1168  Zn1186  1.936   .     S
O1168  Zn1185  1.963   .     S
O1169  Zn1186  1.918   .     S
O1170  Zn1188  1.932   .     S
O1171  Zn1187  1.926   .     S
O1172  Zn1185  1.916   .     S
O1177  Zn1185  1.924   .     S
O1178  Zn1188  1.925   .     S
O1179  Zn1186  1.929   .     S
O1180  Zn1187  1.941   .     S
O1181  Zn1188  1.931   .     S
O1182  Zn1185  1.920   .     S
O1183  Zn1186  1.937   .     S
O1184  Zn1187  1.931   .     S
C1189  O1278   1.264   .     A
C1189  C1199   1.443   .     S
C1189  O1280   1.272   .     A
C1190  C1191   1.399   .     A
C1190  C1225   1.404   .     A
C1190  H1263   1.080   .     S
C1191  O1274   1.382   .     S
C1191  C302    1.417   1_556 S
C1192  O1279   1.275   .     A
C1192  C1198   1.475   .     S
C1192  O1281   1.286   .     A
C1193  C1194   1.423   .     A
C1193  C1195   1.417   .     A
C1194  C1226   1.418   .     A
C1194  C1197   1.423   .     A
C1195  C1196   1.402   .     A
C1195  O1272   1.383   .     S
C1196  C1208   1.410   .     A
C1196  O1273   1.388   .     S
C1197  C1208   1.410   .     A
C1197  C1216   1.537   .     S
C1198  C1298   1.345   .     S
C1198  C1313   1.538   .     S
C1199  C1396   1.345   1_455 S
C1199  H1427   1.086   1_455 S
C1200  C1209   1.396   .     A
C1200  O1275   1.384   .     S
C1200  C1207   1.411   .     A
C1201  C1204   1.451   .     S
C1201  C1499   1.332   .     S
C1201  H1537   1.088   .     S
C1202  C1203   1.435   .     S
C1203  O1282   1.276   .     A
C1203  O1276   1.277   .     A
C1204  O1277   1.267   .     A
C1204  O1283   1.267   .     A
C1205  C1208   1.463   .     S
C1205  O1268   1.271   .     A
C1205  O1270   1.270   .     A
C1206  O1269   1.284   .     A
C1206  C1207   1.480   .     S
C1206  O1271   1.290   .     A
C1207  C1211   1.413   .     A
C1209  C1224   1.406   .     A
C1209  H1261   1.081   .     S
C1210  H1230   1.112   .     S
C1210  H1231   1.111   .     S
C1210  C1228   1.529   .     S
C1210  C1212   1.530   .     S
C1211  C1221   1.534   .     S
C1211  C1222   1.424   .     A
C1212  H1264   1.110   .     S
C1212  H1265   1.111   .     S
C1212  H1464   1.111   1_455 S
C1213  O1272   1.412   .     S
C1213  H1232   1.110   .     S
C1214  C1215   1.529   .     S
C1214  H1238   1.111   .     S
C1214  H1239   1.112   .     S
C1214  C1396   1.538   1_455 S
C1215  H1237   1.111   .     S
C1215  H1433   1.108   1_455 S
C1215  H1434   1.111   1_455 S
C1216  H1244   1.102   .     S
C1216  H1245   1.106   .     S
C1216  C1217   1.529   .     S
C1217  H1242   1.109   .     S
C1217  H1243   1.111   .     S
C1217  H1241   1.111   .     S
C1218  H1248   1.109   .     S
C1218  H1247   1.115   .     S
C1218  O1273   1.415   .     S
C1218  H1246   1.110   .     S
C1219  H1249   1.114   .     S
C1219  O1274   1.411   .     S
C1219  H1250   1.109   .     S
C1219  H1252   1.113   .     S
C1220  O1275   1.411   .     S
C1220  H1255   1.112   .     S
C1220  H1254   1.114   .     S
C1220  H1253   1.109   .     S
C1221  H1260   1.105   .     S
C1221  C1223   1.531   .     S
C1221  H1259   1.110   .     S
C1222  C1225   1.415   .     A
C1222  C1224   1.422   .     A
C1223  H1258   1.109   .     S
C1223  H1256   1.111   .     S
C1223  H1257   1.111   .     S
C1224  C337    1.421   1_556 S
C1225  C335    1.403   1_556 S
C1226  C1227   1.403   .     A
C1227  H1262   1.077   .     S
C1227  C1228   1.406   .     A
H1229  C1298   1.086   .     S
H1233  C322    1.114   1_556 S
H1234  C322    1.109   1_556 S
H1235  C1314   1.108   .     S
H1236  C1314   1.111   .     S
H1251  C1499   1.086   .     S
H1266  C1311   1.111   .     S
O1267  Zn1286  1.920   .     S
O1267  Zn1287  1.932   .     S
O1267  Zn1285  1.936   .     S
O1267  Zn1284  1.963   .     S
O1268  Zn1285  1.918   .     S
O1269  Zn1287  1.932   .     S
O1270  Zn1286  1.926   .     S
O1271  Zn1284  1.916   .     S
O1276  Zn1284  1.924   .     S
O1277  Zn1287  1.925   .     S
O1278  Zn1285  1.929   .     S
O1279  Zn1286  1.941   .     S
O1280  Zn1287  1.931   .     S
O1281  Zn1284  1.920   .     S
O1282  Zn1285  1.937   .     S
O1283  Zn1286  1.931   .     S
C1288  O1377   1.264   .     A
C1288  C1298   1.443   .     S
C1288  O1379   1.272   .     A
C1289  C1290   1.399   .     A
C1289  C1324   1.404   .     A
C1289  H1362   1.080   .     S
C1290  O1373   1.382   .     S
C1290  C401    1.417   1_556 S
C1291  O1378   1.275   .     A
C1291  C1297   1.475   .     S
C1291  O1380   1.286   .     A
C1292  C1293   1.423   .     A
C1292  C1294   1.417   .     A
C1293  C1325   1.418   .     A
C1293  C1296   1.423   .     A
C1294  C1295   1.402   .     A
C1294  O1371   1.383   .     S
C1295  C1307   1.410   .     A
C1295  O1372   1.388   .     S
C1296  C1307   1.410   .     A
C1296  C1315   1.537   .     S
C1297  C1397   1.345   .     S
C1297  C1412   1.538   .     S
C1299  C1308   1.396   .     A
C1299  O1374   1.384   .     S
C1299  C1306   1.411   .     A
C1300  C1303   1.451   .     S
C1300  C1598   1.332   .     S
C1300  H1636   1.088   .     S
C1301  C1302   1.435   .     S
C1302  O1381   1.276   .     A
C1302  O1375   1.277   .     A
C1303  O1376   1.267   .     A
C1303  O1382   1.267   .     A
C1304  C1307   1.463   .     S
C1304  O1367   1.271   .     A
C1304  O1369   1.270   .     A
C1305  O1368   1.284   .     A
C1305  C1306   1.480   .     S
C1305  O1370   1.290   .     A
C1306  C1310   1.413   .     A
C1308  C1323   1.406   .     A
C1308  H1360   1.081   .     S
C1309  H1329   1.112   .     S
C1309  H1330   1.111   .     S
C1309  C1327   1.529   .     S
C1309  C1311   1.530   .     S
C1310  C1320   1.534   .     S
C1310  C1321   1.424   .     A
C1311  H1363   1.110   .     S
C1311  H1364   1.111   .     S
C1312  O1371   1.412   .     S
C1312  H1331   1.110   .     S
C1313  C1314   1.529   .     S
C1313  H1337   1.111   .     S
C1313  H1338   1.112   .     S
C1314  H1336   1.111   .     S
C1315  H1343   1.102   .     S
C1315  H1344   1.106   .     S
C1315  C1316   1.529   .     S
C1316  H1341   1.109   .     S
C1316  H1342   1.111   .     S
C1316  H1340   1.111   .     S
C1317  H1347   1.109   .     S
C1317  H1346   1.115   .     S
C1317  O1372   1.415   .     S
C1317  H1345   1.110   .     S
C1318  H1348   1.114   .     S
C1318  O1373   1.411   .     S
C1318  H1349   1.109   .     S
C1318  H1351   1.113   .     S
C1319  O1374   1.411   .     S
C1319  H1354   1.112   .     S
C1319  H1353   1.114   .     S
C1319  H1352   1.109   .     S
C1320  H1359   1.105   .     S
C1320  C1322   1.531   .     S
C1320  H1358   1.110   .     S
C1321  C1324   1.415   .     A
C1321  C1323   1.422   .     A
C1322  H1357   1.109   .     S
C1322  H1355   1.111   .     S
C1322  H1356   1.111   .     S
C1323  C436    1.421   1_556 S
C1324  C434    1.403   1_556 S
C1325  C1326   1.403   .     A
C1326  H1361   1.077   .     S
C1326  C1327   1.406   .     A
H1328  C1397   1.086   .     S
H1332  C421    1.114   1_556 S
H1333  C421    1.109   1_556 S
H1334  C1413   1.108   .     S
H1335  C1413   1.111   .     S
H1350  C1598   1.086   .     S
H1365  C1410   1.111   .     S
O1366  Zn1385  1.920   .     S
O1366  Zn1386  1.932   .     S
O1366  Zn1384  1.936   .     S
O1366  Zn1383  1.963   .     S
O1367  Zn1384  1.918   .     S
O1368  Zn1386  1.932   .     S
O1369  Zn1385  1.926   .     S
O1370  Zn1383  1.916   .     S
O1375  Zn1383  1.924   .     S
O1376  Zn1386  1.925   .     S
O1377  Zn1384  1.929   .     S
O1378  Zn1385  1.941   .     S
O1379  Zn1386  1.931   .     S
O1380  Zn1383  1.920   .     S
O1381  Zn1384  1.937   .     S
O1382  Zn1385  1.931   .     S
C1387  O1476   1.264   .     A
C1387  C1397   1.443   .     S
C1387  O1478   1.272   .     A
C1388  C1389   1.399   .     A
C1388  C1423   1.404   .     A
C1388  H1461   1.080   .     S
C1389  O1472   1.382   .     S
C1389  C500    1.417   1_556 S
C1390  O1477   1.275   .     A
C1390  C1396   1.475   .     S
C1390  O1479   1.286   .     A
C1391  C1392   1.423   .     A
C1391  C1393   1.417   .     A
C1392  C1424   1.418   .     A
C1392  C1395   1.423   .     A
C1393  C1394   1.402   .     A
C1393  O1470   1.383   .     S
C1394  C1406   1.410   .     A
C1394  O1471   1.388   .     S
C1395  C1406   1.410   .     A
C1395  C1414   1.537   .     S
C1396  C1199   1.345   1_655 S
C1396  C1214   1.538   1_655 S
C1398  C1407   1.396   .     A
C1398  O1473   1.384   .     S
C1398  C1405   1.411   .     A
C1399  C1402   1.451   .     S
C1399  C1697   1.332   .     S
C1399  H1735   1.088   .     S
C1400  C1401   1.435   .     S
C1401  O1480   1.276   .     A
C1401  O1474   1.277   .     A
C1402  O1475   1.267   .     A
C1402  O1481   1.267   .     A
C1403  C1406   1.463   .     S
C1403  O1466   1.271   .     A
C1403  O1468   1.270   .     A
C1404  O1467   1.284   .     A
C1404  C1405   1.480   .     S
C1404  O1469   1.290   .     A
C1405  C1409   1.413   .     A
C1407  C1422   1.406   .     A
C1407  H1459   1.081   .     S
C1408  H1428   1.112   .     S
C1408  H1429   1.111   .     S
C1408  C1426   1.529   .     S
C1408  C1410   1.530   .     S
C1409  C1419   1.534   .     S
C1409  C1420   1.424   .     A
C1410  H1462   1.110   .     S
C1410  H1463   1.111   .     S
C1411  O1470   1.412   .     S
C1411  H1430   1.110   .     S
C1412  C1413   1.529   .     S
C1412  H1436   1.111   .     S
C1412  H1437   1.112   .     S
C1413  H1435   1.111   .     S
C1414  H1442   1.102   .     S
C1414  H1443   1.106   .     S
C1414  C1415   1.529   .     S
C1415  H1440   1.109   .     S
C1415  H1441   1.111   .     S
C1415  H1439   1.111   .     S
C1416  H1446   1.109   .     S
C1416  H1445   1.115   .     S
C1416  O1471   1.415   .     S
C1416  H1444   1.110   .     S
C1417  H1447   1.114   .     S
C1417  O1472   1.411   .     S
C1417  H1448   1.109   .     S
C1417  H1450   1.113   .     S
C1418  O1473   1.411   .     S
C1418  H1453   1.112   .     S
C1418  H1452   1.114   .     S
C1418  H1451   1.109   .     S
C1419  H1458   1.105   .     S
C1419  C1421   1.531   .     S
C1419  H1457   1.110   .     S
C1420  C1423   1.415   .     A
C1420  C1422   1.422   .     A
C1421  H1456   1.109   .     S
C1421  H1454   1.111   .     S
C1421  H1455   1.111   .     S
C1422  C535    1.421   1_556 S
C1423  C533    1.403   1_556 S
C1424  C1425   1.403   .     A
C1425  H1460   1.077   .     S
C1425  C1426   1.406   .     A
H1427  C1199   1.086   1_655 S
H1431  C520    1.114   1_556 S
H1432  C520    1.109   1_556 S
H1433  C1215   1.108   1_655 S
H1434  C1215   1.111   1_655 S
H1449  C1697   1.086   .     S
H1464  C1212   1.111   1_655 S
O1465  Zn1484  1.920   .     S
O1465  Zn1485  1.932   .     S
O1465  Zn1483  1.936   .     S
O1465  Zn1482  1.963   .     S
O1466  Zn1483  1.918   .     S
O1467  Zn1485  1.932   .     S
O1468  Zn1484  1.926   .     S
O1469  Zn1482  1.916   .     S
O1474  Zn1482  1.924   .     S
O1475  Zn1485  1.925   .     S
O1476  Zn1483  1.929   .     S
O1477  Zn1484  1.941   .     S
O1478  Zn1485  1.931   .     S
O1479  Zn1482  1.920   .     S
O1480  Zn1483  1.937   .     S
O1481  Zn1484  1.931   .     S
C1486  O1575   1.264   .     A
C1486  C1496   1.443   .     S
C1486  O1577   1.272   .     A
C1487  C1488   1.399   .     A
C1487  C1522   1.404   .     A
C1487  H1560   1.080   .     S
C1488  O1571   1.382   .     S
C1488  C599    1.417   1_556 S
C1489  O1576   1.275   .     A
C1489  C1495   1.475   .     S
C1489  O1578   1.286   .     A
C1490  C1491   1.423   .     A
C1490  C1492   1.417   .     A
C1491  C1523   1.418   .     A
C1491  C1494   1.423   .     A
C1492  C1493   1.402   .     A
C1492  O1569   1.383   .     S
C1493  C1505   1.410   .     A
C1493  O1570   1.388   .     S
C1494  C1505   1.410   .     A
C1494  C1513   1.537   .     S
C1495  C1595   1.345   .     S
C1495  C1610   1.538   .     S
C1496  C1693   1.345   1_455 S
C1496  H1724   1.086   1_455 S
C1497  C1506   1.396   .     A
C1497  O1572   1.384   .     S
C1497  C1504   1.411   .     A
C1498  C1501   1.451   .     S
C1498  C905    1.332   1_565 S
C1498  H943    1.088   1_565 S
C1499  C1500   1.435   .     S
C1500  O1579   1.276   .     A
C1500  O1573   1.277   .     A
C1501  O1574   1.267   .     A
C1501  O1580   1.267   .     A
C1502  C1505   1.463   .     S
C1502  O1565   1.271   .     A
C1502  O1567   1.270   .     A
C1503  O1566   1.284   .     A
C1503  C1504   1.480   .     S
C1503  O1568   1.290   .     A
C1504  C1508   1.413   .     A
C1506  C1521   1.406   .     A
C1506  H1558   1.081   .     S
C1507  H1527   1.112   .     S
C1507  H1528   1.111   .     S
C1507  C1525   1.529   .     S
C1507  C1509   1.530   .     S
C1508  C1518   1.534   .     S
C1508  C1519   1.424   .     A
C1509  H1561   1.110   .     S
C1509  H1562   1.111   .     S
C1509  H1761   1.111   1_455 S
C1510  O1569   1.412   .     S
C1510  H1529   1.110   .     S
C1511  C1512   1.529   .     S
C1511  H1535   1.111   .     S
C1511  H1536   1.112   .     S
C1511  C1693   1.538   1_455 S
C1512  H1534   1.111   .     S
C1512  H1730   1.108   1_455 S
C1512  H1731   1.111   1_455 S
C1513  H1541   1.102   .     S
C1513  H1542   1.106   .     S
C1513  C1514   1.529   .     S
C1514  H1539   1.109   .     S
C1514  H1540   1.111   .     S
C1514  H1538   1.111   .     S
C1515  H1545   1.109   .     S
C1515  H1544   1.115   .     S
C1515  O1570   1.415   .     S
C1515  H1543   1.110   .     S
C1516  H1546   1.114   .     S
C1516  O1571   1.411   .     S
C1516  H1547   1.109   .     S
C1516  H1549   1.113   .     S
C1517  O1572   1.411   .     S
C1517  H1552   1.112   .     S
C1517  H1551   1.114   .     S
C1517  H1550   1.109   .     S
C1518  H1557   1.105   .     S
C1518  C1520   1.531   .     S
C1518  H1556   1.110   .     S
C1519  C1522   1.415   .     A
C1519  C1521   1.422   .     A
C1520  H1555   1.109   .     S
C1520  H1553   1.111   .     S
C1520  H1554   1.111   .     S
C1521  C634    1.421   1_556 S
C1522  C632    1.403   1_556 S
C1523  C1524   1.403   .     A
C1524  H1559   1.077   .     S
C1524  C1525   1.406   .     A
H1526  C1595   1.086   .     S
H1530  C619    1.114   1_556 S
H1531  C619    1.109   1_556 S
H1532  C1611   1.108   .     S
H1533  C1611   1.111   .     S
H1548  C905    1.086   1_565 S
H1563  C1608   1.111   .     S
O1564  Zn1583  1.920   .     S
O1564  Zn1584  1.932   .     S
O1564  Zn1582  1.936   .     S
O1564  Zn1581  1.963   .     S
O1565  Zn1582  1.918   .     S
O1566  Zn1584  1.932   .     S
O1567  Zn1583  1.926   .     S
O1568  Zn1581  1.916   .     S
O1573  Zn1581  1.924   .     S
O1574  Zn1584  1.925   .     S
O1575  Zn1582  1.929   .     S
O1576  Zn1583  1.941   .     S
O1577  Zn1584  1.931   .     S
O1578  Zn1581  1.920   .     S
O1579  Zn1582  1.937   .     S
O1580  Zn1583  1.931   .     S
C1585  O1674   1.264   .     A
C1585  C1595   1.443   .     S
C1585  O1676   1.272   .     A
C1586  C1587   1.399   .     A
C1586  C1621   1.404   .     A
C1586  H1659   1.080   .     S
C1587  O1670   1.382   .     S
C1587  C698    1.417   1_556 S
C1588  O1675   1.275   .     A
C1588  C1594   1.475   .     S
C1588  O1677   1.286   .     A
C1589  C1590   1.423   .     A
C1589  C1591   1.417   .     A
C1590  C1622   1.418   .     A
C1590  C1593   1.423   .     A
C1591  C1592   1.402   .     A
C1591  O1668   1.383   .     S
C1592  C1604   1.410   .     A
C1592  O1669   1.388   .     S
C1593  C1604   1.410   .     A
C1593  C1612   1.537   .     S
C1594  C1694   1.345   .     S
C1594  C1709   1.538   .     S
C1596  C1605   1.396   .     A
C1596  O1671   1.384   .     S
C1596  C1603   1.411   .     A
C1597  C1600   1.451   .     S
C1597  C1004   1.332   1_565 S
C1597  H1042   1.088   1_565 S
C1598  C1599   1.435   .     S
C1599  O1678   1.276   .     A
C1599  O1672   1.277   .     A
C1600  O1673   1.267   .     A
C1600  O1679   1.267   .     A
C1601  C1604   1.463   .     S
C1601  O1664   1.271   .     A
C1601  O1666   1.270   .     A
C1602  O1665   1.284   .     A
C1602  C1603   1.480   .     S
C1602  O1667   1.290   .     A
C1603  C1607   1.413   .     A
C1605  C1620   1.406   .     A
C1605  H1657   1.081   .     S
C1606  H1626   1.112   .     S
C1606  H1627   1.111   .     S
C1606  C1624   1.529   .     S
C1606  C1608   1.530   .     S
C1607  C1617   1.534   .     S
C1607  C1618   1.424   .     A
C1608  H1660   1.110   .     S
C1608  H1661   1.111   .     S
C1609  O1668   1.412   .     S
C1609  H1628   1.110   .     S
C1610  C1611   1.529   .     S
C1610  H1634   1.111   .     S
C1610  H1635   1.112   .     S
C1611  H1633   1.111   .     S
C1612  H1640   1.102   .     S
C1612  H1641   1.106   .     S
C1612  C1613   1.529   .     S
C1613  H1638   1.109   .     S
C1613  H1639   1.111   .     S
C1613  H1637   1.111   .     S
C1614  H1644   1.109   .     S
C1614  H1643   1.115   .     S
C1614  O1669   1.415   .     S
C1614  H1642   1.110   .     S
C1615  H1645   1.114   .     S
C1615  O1670   1.411   .     S
C1615  H1646   1.109   .     S
C1615  H1648   1.113   .     S
C1616  O1671   1.411   .     S
C1616  H1651   1.112   .     S
C1616  H1650   1.114   .     S
C1616  H1649   1.109   .     S
C1617  H1656   1.105   .     S
C1617  C1619   1.531   .     S
C1617  H1655   1.110   .     S
C1618  C1621   1.415   .     A
C1618  C1620   1.422   .     A
C1619  H1654   1.109   .     S
C1619  H1652   1.111   .     S
C1619  H1653   1.111   .     S
C1620  C733    1.421   1_556 S
C1621  C731    1.403   1_556 S
C1622  C1623   1.403   .     A
C1623  H1658   1.077   .     S
C1623  C1624   1.406   .     A
H1625  C1694   1.086   .     S
H1629  C718    1.114   1_556 S
H1630  C718    1.109   1_556 S
H1631  C1710   1.108   .     S
H1632  C1710   1.111   .     S
H1647  C1004   1.086   1_565 S
H1662  C1707   1.111   .     S
O1663  Zn1682  1.920   .     S
O1663  Zn1683  1.932   .     S
O1663  Zn1681  1.936   .     S
O1663  Zn1680  1.963   .     S
O1664  Zn1681  1.918   .     S
O1665  Zn1683  1.932   .     S
O1666  Zn1682  1.926   .     S
O1667  Zn1680  1.916   .     S
O1672  Zn1680  1.924   .     S
O1673  Zn1683  1.925   .     S
O1674  Zn1681  1.929   .     S
O1675  Zn1682  1.941   .     S
O1676  Zn1683  1.931   .     S
O1677  Zn1680  1.920   .     S
O1678  Zn1681  1.937   .     S
O1679  Zn1682  1.931   .     S
C1684  O1773   1.264   .     A
C1684  C1694   1.443   .     S
C1684  O1775   1.272   .     A
C1685  C1686   1.399   .     A
C1685  C1720   1.404   .     A
C1685  H1758   1.080   .     S
C1686  O1769   1.382   .     S
C1686  C797    1.417   1_556 S
C1687  O1774   1.275   .     A
C1687  C1693   1.475   .     S
C1687  O1776   1.286   .     A
C1688  C1689   1.423   .     A
C1688  C1690   1.417   .     A
C1689  C1721   1.418   .     A
C1689  C1692   1.423   .     A
C1690  C1691   1.402   .     A
C1690  O1767   1.383   .     S
C1691  C1703   1.410   .     A
C1691  O1768   1.388   .     S
C1692  C1703   1.410   .     A
C1692  C1711   1.537   .     S
C1693  C1496   1.345   1_655 S
C1693  C1511   1.538   1_655 S
C1695  C1704   1.396   .     A
C1695  O1770   1.384   .     S
C1695  C1702   1.411   .     A
C1696  C1699   1.451   .     S
C1696  C1103   1.332   1_565 S
C1696  H1141   1.088   1_565 S
C1697  C1698   1.435   .     S
C1698  O1777   1.276   .     A
C1698  O1771   1.277   .     A
C1699  O1772   1.267   .     A
C1699  O1778   1.267   .     A
C1700  C1703   1.463   .     S
C1700  O1763   1.271   .     A
C1700  O1765   1.270   .     A
C1701  O1764   1.284   .     A
C1701  C1702   1.480   .     S
C1701  O1766   1.290   .     A
C1702  C1706   1.413   .     A
C1704  C1719   1.406   .     A
C1704  H1756   1.081   .     S
C1705  H1725   1.112   .     S
C1705  H1726   1.111   .     S
C1705  C1723   1.529   .     S
C1705  C1707   1.530   .     S
C1706  C1716   1.534   .     S
C1706  C1717   1.424   .     A
C1707  H1759   1.110   .     S
C1707  H1760   1.111   .     S
C1708  O1767   1.412   .     S
C1708  H1727   1.110   .     S
C1709  C1710   1.529   .     S
C1709  H1733   1.111   .     S
C1709  H1734   1.112   .     S
C1710  H1732   1.111   .     S
C1711  H1739   1.102   .     S
C1711  H1740   1.106   .     S
C1711  C1712   1.529   .     S
C1712  H1737   1.109   .     S
C1712  H1738   1.111   .     S
C1712  H1736   1.111   .     S
C1713  H1743   1.109   .     S
C1713  H1742   1.115   .     S
C1713  O1768   1.415   .     S
C1713  H1741   1.110   .     S
C1714  H1744   1.114   .     S
C1714  O1769   1.411   .     S
C1714  H1745   1.109   .     S
C1714  H1747   1.113   .     S
C1715  O1770   1.411   .     S
C1715  H1750   1.112   .     S
C1715  H1749   1.114   .     S
C1715  H1748   1.109   .     S
C1716  H1755   1.105   .     S
C1716  C1718   1.531   .     S
C1716  H1754   1.110   .     S
C1717  C1720   1.415   .     A
C1717  C1719   1.422   .     A
C1718  H1753   1.109   .     S
C1718  H1751   1.111   .     S
C1718  H1752   1.111   .     S
C1719  C832    1.421   1_556 S
C1720  C830    1.403   1_556 S
C1721  C1722   1.403   .     A
C1722  H1757   1.077   .     S
C1722  C1723   1.406   .     A
H1724  C1496   1.086   1_655 S
H1728  C817    1.114   1_556 S
H1729  C817    1.109   1_556 S
H1730  C1512   1.108   1_655 S
H1731  C1512   1.111   1_655 S
H1746  C1103   1.086   1_565 S
H1761  C1509   1.111   1_655 S
O1762  Zn1781  1.920   .     S
O1762  Zn1782  1.932   .     S
O1762  Zn1780  1.936   .     S
O1762  Zn1779  1.963   .     S
O1763  Zn1780  1.918   .     S
O1764  Zn1782  1.932   .     S
O1765  Zn1781  1.926   .     S
O1766  Zn1779  1.916   .     S
O1771  Zn1779  1.924   .     S
O1772  Zn1782  1.925   .     S
O1773  Zn1780  1.929   .     S
O1774  Zn1781  1.941   .     S
O1775  Zn1782  1.931   .     S
O1776  Zn1779  1.920   .     S
O1777  Zn1780  1.937   .     S
O1778  Zn1781  1.931   .     S
