data_str_m3_o1_o16_pcu_sym.77
_audit_creation_date              2020-01-03
_audit_creation_method            'Materials Studio'
_symmetry_space_group_name_H-M    'P1'
_symmetry_Int_Tables_number       1
_symmetry_cell_setting            triclinic
loop_
_symmetry_equiv_pos_as_xyz
  x,y,z
_cell_length_a                    29.7716
_cell_length_b                    31.9175
_cell_length_c                    26.1231
_cell_angle_alpha                 89.9729
_cell_angle_beta                  72.0356
_cell_angle_gamma                 89.9783
loop_
_atom_site_label
_atom_site_type_symbol
_atom_site_fract_x
_atom_site_fract_y
_atom_site_fract_z
_atom_site_U_iso_or_equiv
_atom_site_adp_type
_atom_site_occupancy
C1     C     0.16666   0.24651   0.25007   0.00000  Uiso   1.00
C2     C     0.12606   0.18919   0.40646   0.00000  Uiso   1.00
C3     C     0.20495   0.31072   0.21198   0.00000  Uiso   1.00
C4     C     0.14115   0.17304   0.35083   0.00000  Uiso   1.00
C5     C     0.20546   0.02063   0.20894   0.00000  Uiso   1.00
C6     C     0.16784   0.04252   0.24561   0.00000  Uiso   1.00
C7     C     0.12983   0.02182   0.28177   0.00000  Uiso   1.00
C8     C     0.12924   0.31225   0.28300   0.00000  Uiso   1.00
C9     C     0.16708   0.29056   0.24869   0.00000  Uiso   1.00
C10    C     0.32199   0.15935   0.20394   0.00000  Uiso   1.00
C11    C     0.03638   0.15978   0.20372   0.00000  Uiso   1.00
C12    C     0.14567   0.20207   0.48846   0.00000  Uiso   1.00
C13    C     0.01134   0.17184   0.29663   0.00000  Uiso   1.00
C14    C     0.29706   0.17110   0.29660   0.00000  Uiso   1.00
C15    C     0.16727   0.08680   0.24792   0.00000  Uiso   1.00
C16    C     0.19249   0.16832   0.14782   0.00000  Uiso   1.00
C17    C     0.26517   0.19376   0.00374   0.00000  Uiso   1.00
C18    C     0.20702   0.17738   0.08963   0.00000  Uiso   1.00
C19    C     0.07789   0.19207   0.43541   0.00000  Uiso   1.00
C20    C     0.06414   0.20347   0.48950   0.00000  Uiso   1.00
C21    C     0.09726   0.20533   0.01707   0.00000  Uiso   1.00
C22    C     0.29407   0.17136   0.07765   0.00000  Uiso   1.00
C23    C     0.15923   0.20208   0.43193   0.00000  Uiso   1.00
C24    C     0.24432   0.04167   0.16455   0.00000  Uiso   1.00
C25    C     0.22552   0.05781   0.12005   0.00000  Uiso   1.00
C26    C     0.18139   0.19810   0.01325   0.00000  Uiso   1.00
C27    C     0.22914   0.20282   0.48186   0.00000  Uiso   1.00
C28    C     0.24017   0.21549   0.42833   0.00000  Uiso   1.00
C29    C     0.20516   0.21529   0.40342   0.00000  Uiso   1.00
C30    C     0.17110   0.18563   0.06679   0.00000  Uiso   1.00
C31    C     0.25462   0.18063   0.05716   0.00000  Uiso   1.00
H32    H     0.10103   0.03893   0.30955   0.00000  Uiso   1.00
H33    H     0.05105   0.18638   0.41619   0.00000  Uiso   1.00
H34    H     0.08465   0.21137   0.05984   0.00000  Uiso   1.00
H35    H     0.02784   0.20994   0.01057   0.00000  Uiso   1.00
H36    H     0.21432   0.22502   0.36182   0.00000  Uiso   1.00
H37    H     0.23302   0.29254   0.18463   0.00000  Uiso   1.00
H38    H     0.30272   0.19338   0.10475   0.00000  Uiso   1.00
H39    H     0.19658   0.08068   0.13610   0.00000  Uiso   1.00
H40    H     0.25436   0.07342   0.08841   0.00000  Uiso   1.00
H41    H     0.21199   0.03129   0.10154   0.00000  Uiso   1.00
H42    H     0.26111   0.06743   0.18045   0.00000  Uiso   1.00
H43    H     0.09999   0.29599   0.31123   0.00000  Uiso   1.00
H44    H     0.27321   0.01909   0.14602   0.00000  Uiso   1.00
H45    H     0.31424   0.15167   0.16759   0.00000  Uiso   1.00
H46    H     0.06408   0.15388   0.16648   0.00000  Uiso   1.00
H47    H     0.01891   0.17583   0.33423   0.00000  Uiso   1.00
H48    H     0.26953   0.17249   0.33423   0.00000  Uiso   1.00
H49    H     0.27618   0.22291   0.40492   0.00000  Uiso   1.00
H50    H     0.30146   0.19613   0.47854   0.00000  Uiso   1.00
H51    H     0.13487   0.18076   0.09070   0.00000  Uiso   1.00
N52    N     0.04760   0.16668   0.25001   0.00000  Uiso   1.00
N53    N     0.28573   0.16665   0.25000   0.00000  Uiso   1.00
O54    O     0.12846   0.22775   0.25000   0.00000  Uiso   1.00
O55    O     0.20490   0.22774   0.25000   0.00000  Uiso   1.00
O56    O     0.10947   0.16666   0.32681   0.00000  Uiso   1.00
O57    O     0.18591   0.16665   0.32681   0.00000  Uiso   1.00
O58    O     0.12843   0.10559   0.24999   0.00000  Uiso   1.00
O59    O     0.20488   0.10558   0.24999   0.00000  Uiso   1.00
O60    O     0.14742   0.16668   0.17319   0.00000  Uiso   1.00
O61    O     0.22387   0.16667   0.17319   0.00000  Uiso   1.00
O62    O     0.31801   0.13998   0.06291   0.00000  Uiso   1.00
Zn63   Zn    0.11562   0.16667   0.25000   0.00000  Uiso   1.00
Zn64   Zn    0.21771   0.16666   0.25000   0.00000  Uiso   1.00
C65    C     0.50000   0.24651   0.25007   0.00000  Uiso   1.00
C66    C     0.45939   0.18919   0.40646   0.00000  Uiso   1.00
C67    C     0.53828   0.31072   0.21198   0.00000  Uiso   1.00
C68    C     0.47449   0.17304   0.35083   0.00000  Uiso   1.00
C69    C     0.53880   0.02063   0.20894   0.00000  Uiso   1.00
C70    C     0.50117   0.04252   0.24561   0.00000  Uiso   1.00
C71    C     0.46316   0.02182   0.28177   0.00000  Uiso   1.00
C72    C     0.46257   0.31225   0.28300   0.00000  Uiso   1.00
C73    C     0.50042   0.29056   0.24869   0.00000  Uiso   1.00
C74    C     0.65532   0.15935   0.20394   0.00000  Uiso   1.00
C75    C     0.36971   0.15978   0.20372   0.00000  Uiso   1.00
C76    C     0.47901   0.20207   0.48846   0.00000  Uiso   1.00
C77    C     0.34467   0.17184   0.29663   0.00000  Uiso   1.00
C78    C     0.63039   0.17110   0.29660   0.00000  Uiso   1.00
C79    C     0.50060   0.08680   0.24792   0.00000  Uiso   1.00
C80    C     0.52582   0.16832   0.14782   0.00000  Uiso   1.00
C81    C     0.59850   0.19376   0.00374   0.00000  Uiso   1.00
C82    C     0.54035   0.17738   0.08963   0.00000  Uiso   1.00
C83    C     0.41122   0.19207   0.43541   0.00000  Uiso   1.00
C84    C     0.39748   0.20347   0.48950   0.00000  Uiso   1.00
C85    C     0.43059   0.20533   0.01707   0.00000  Uiso   1.00
C86    C     0.62741   0.17136   0.07765   0.00000  Uiso   1.00
C87    C     0.49256   0.20208   0.43193   0.00000  Uiso   1.00
C88    C     0.57765   0.04167   0.16455   0.00000  Uiso   1.00
C89    C     0.55885   0.05781   0.12005   0.00000  Uiso   1.00
C90    C     0.51472   0.19810   0.01325   0.00000  Uiso   1.00
C91    C     0.56248   0.20282   0.48186   0.00000  Uiso   1.00
C92    C     0.57350   0.21549   0.42833   0.00000  Uiso   1.00
C93    C     0.53849   0.21529   0.40342   0.00000  Uiso   1.00
C94    C     0.50443   0.18563   0.06679   0.00000  Uiso   1.00
C95    C     0.58795   0.18063   0.05716   0.00000  Uiso   1.00
H96    H     0.43436   0.03893   0.30955   0.00000  Uiso   1.00
H97    H     0.38438   0.18638   0.41619   0.00000  Uiso   1.00
H98    H     0.41798   0.21137   0.05984   0.00000  Uiso   1.00
H99    H     0.36117   0.20994   0.01057   0.00000  Uiso   1.00
H100   H     0.54765   0.22502   0.36182   0.00000  Uiso   1.00
H101   H     0.56635   0.29254   0.18463   0.00000  Uiso   1.00
H102   H     0.63606   0.19338   0.10475   0.00000  Uiso   1.00
H103   H     0.52992   0.08068   0.13610   0.00000  Uiso   1.00
H104   H     0.58770   0.07342   0.08841   0.00000  Uiso   1.00
H105   H     0.54533   0.03129   0.10154   0.00000  Uiso   1.00
H106   H     0.59444   0.06743   0.18045   0.00000  Uiso   1.00
H107   H     0.43332   0.29599   0.31123   0.00000  Uiso   1.00
H108   H     0.60655   0.01909   0.14602   0.00000  Uiso   1.00
H109   H     0.64758   0.15167   0.16759   0.00000  Uiso   1.00
H110   H     0.39741   0.15388   0.16648   0.00000  Uiso   1.00
H111   H     0.35224   0.17583   0.33423   0.00000  Uiso   1.00
H112   H     0.60287   0.17249   0.33423   0.00000  Uiso   1.00
H113   H     0.60951   0.22291   0.40492   0.00000  Uiso   1.00
H114   H     0.63480   0.19613   0.47854   0.00000  Uiso   1.00
H115   H     0.46821   0.18076   0.09070   0.00000  Uiso   1.00
N116   N     0.38093   0.16668   0.25001   0.00000  Uiso   1.00
N117   N     0.61906   0.16665   0.25000   0.00000  Uiso   1.00
O118   O     0.46179   0.22775   0.25000   0.00000  Uiso   1.00
O119   O     0.53823   0.22774   0.25000   0.00000  Uiso   1.00
O120   O     0.44280   0.16666   0.32681   0.00000  Uiso   1.00
O121   O     0.51924   0.16665   0.32681   0.00000  Uiso   1.00
O122   O     0.46177   0.10559   0.24999   0.00000  Uiso   1.00
O123   O     0.53821   0.10558   0.24999   0.00000  Uiso   1.00
O124   O     0.48076   0.16668   0.17319   0.00000  Uiso   1.00
O125   O     0.55720   0.16667   0.17319   0.00000  Uiso   1.00
O126   O     0.65134   0.13998   0.06291   0.00000  Uiso   1.00
Zn127  Zn    0.44896   0.16667   0.25000   0.00000  Uiso   1.00
Zn128  Zn    0.55104   0.16666   0.25000   0.00000  Uiso   1.00
C129   C     0.83333   0.24651   0.25007   0.00000  Uiso   1.00
C130   C     0.79273   0.18919   0.40646   0.00000  Uiso   1.00
C131   C     0.87161   0.31072   0.21198   0.00000  Uiso   1.00
C132   C     0.80782   0.17304   0.35083   0.00000  Uiso   1.00
C133   C     0.87213   0.02063   0.20894   0.00000  Uiso   1.00
C134   C     0.83451   0.04252   0.24561   0.00000  Uiso   1.00
C135   C     0.79649   0.02182   0.28177   0.00000  Uiso   1.00
C136   C     0.79591   0.31225   0.28300   0.00000  Uiso   1.00
C137   C     0.83375   0.29056   0.24869   0.00000  Uiso   1.00
C138   C     0.98866   0.15935   0.20394   0.00000  Uiso   1.00
C139   C     0.70304   0.15978   0.20372   0.00000  Uiso   1.00
C140   C     0.81234   0.20207   0.48846   0.00000  Uiso   1.00
C141   C     0.67800   0.17184   0.29663   0.00000  Uiso   1.00
C142   C     0.96372   0.17110   0.29660   0.00000  Uiso   1.00
C143   C     0.83393   0.08680   0.24792   0.00000  Uiso   1.00
C144   C     0.85916   0.16832   0.14782   0.00000  Uiso   1.00
C145   C     0.93184   0.19376   0.00374   0.00000  Uiso   1.00
C146   C     0.87369   0.17738   0.08963   0.00000  Uiso   1.00
C147   C     0.74456   0.19207   0.43541   0.00000  Uiso   1.00
C148   C     0.73081   0.20347   0.48950   0.00000  Uiso   1.00
C149   C     0.76393   0.20533   0.01707   0.00000  Uiso   1.00
C150   C     0.96074   0.17136   0.07765   0.00000  Uiso   1.00
C151   C     0.82590   0.20208   0.43193   0.00000  Uiso   1.00
C152   C     0.91099   0.04167   0.16455   0.00000  Uiso   1.00
C153   C     0.89219   0.05781   0.12005   0.00000  Uiso   1.00
C154   C     0.84805   0.19810   0.01325   0.00000  Uiso   1.00
C155   C     0.89581   0.20282   0.48186   0.00000  Uiso   1.00
C156   C     0.90684   0.21549   0.42833   0.00000  Uiso   1.00
C157   C     0.87182   0.21529   0.40342   0.00000  Uiso   1.00
C158   C     0.83777   0.18563   0.06679   0.00000  Uiso   1.00
C159   C     0.92128   0.18063   0.05716   0.00000  Uiso   1.00
H160   H     0.76770   0.03893   0.30955   0.00000  Uiso   1.00
H161   H     0.71772   0.18638   0.41619   0.00000  Uiso   1.00
H162   H     0.75132   0.21137   0.05984   0.00000  Uiso   1.00
H163   H     0.69451   0.20994   0.01057   0.00000  Uiso   1.00
H164   H     0.88099   0.22502   0.36182   0.00000  Uiso   1.00
H165   H     0.89969   0.29254   0.18463   0.00000  Uiso   1.00
H166   H     0.96939   0.19338   0.10475   0.00000  Uiso   1.00
H167   H     0.86325   0.08068   0.13610   0.00000  Uiso   1.00
H168   H     0.92103   0.07342   0.08841   0.00000  Uiso   1.00
H169   H     0.87866   0.03129   0.10154   0.00000  Uiso   1.00
H170   H     0.92777   0.06743   0.18045   0.00000  Uiso   1.00
H171   H     0.76665   0.29599   0.31123   0.00000  Uiso   1.00
H172   H     0.93988   0.01909   0.14602   0.00000  Uiso   1.00
H173   H     0.98091   0.15167   0.16759   0.00000  Uiso   1.00
H174   H     0.73074   0.15388   0.16648   0.00000  Uiso   1.00
H175   H     0.68557   0.17583   0.33423   0.00000  Uiso   1.00
H176   H     0.93620   0.17249   0.33423   0.00000  Uiso   1.00
H177   H     0.94284   0.22291   0.40492   0.00000  Uiso   1.00
H178   H     0.96813   0.19613   0.47854   0.00000  Uiso   1.00
H179   H     0.80154   0.18076   0.09070   0.00000  Uiso   1.00
N180   N     0.71426   0.16668   0.25001   0.00000  Uiso   1.00
N181   N     0.95239   0.16665   0.25000   0.00000  Uiso   1.00
O182   O     0.79512   0.22775   0.25000   0.00000  Uiso   1.00
O183   O     0.87157   0.22774   0.25000   0.00000  Uiso   1.00
O184   O     0.77613   0.16666   0.32681   0.00000  Uiso   1.00
O185   O     0.85258   0.16665   0.32681   0.00000  Uiso   1.00
O186   O     0.79510   0.10559   0.24999   0.00000  Uiso   1.00
O187   O     0.87154   0.10558   0.24999   0.00000  Uiso   1.00
O188   O     0.81409   0.16668   0.17319   0.00000  Uiso   1.00
O189   O     0.89053   0.16667   0.17319   0.00000  Uiso   1.00
O190   O     0.98468   0.13998   0.06291   0.00000  Uiso   1.00
Zn191  Zn    0.78229   0.16667   0.25000   0.00000  Uiso   1.00
Zn192  Zn    0.88438   0.16666   0.25000   0.00000  Uiso   1.00
C193   C     0.16666   0.57985   0.25007   0.00000  Uiso   1.00
C194   C     0.12606   0.52252   0.40646   0.00000  Uiso   1.00
C195   C     0.20495   0.64405   0.21198   0.00000  Uiso   1.00
C196   C     0.14115   0.50637   0.35083   0.00000  Uiso   1.00
C197   C     0.20546   0.35396   0.20894   0.00000  Uiso   1.00
C198   C     0.16784   0.37585   0.24561   0.00000  Uiso   1.00
C199   C     0.12983   0.35515   0.28177   0.00000  Uiso   1.00
C200   C     0.12924   0.64558   0.28300   0.00000  Uiso   1.00
C201   C     0.16708   0.62389   0.24869   0.00000  Uiso   1.00
C202   C     0.32199   0.49269   0.20394   0.00000  Uiso   1.00
C203   C     0.03638   0.49312   0.20372   0.00000  Uiso   1.00
C204   C     0.14567   0.53540   0.48846   0.00000  Uiso   1.00
C205   C     0.01134   0.50518   0.29663   0.00000  Uiso   1.00
C206   C     0.29706   0.50443   0.29660   0.00000  Uiso   1.00
C207   C     0.16727   0.42013   0.24792   0.00000  Uiso   1.00
C208   C     0.19249   0.50166   0.14782   0.00000  Uiso   1.00
C209   C     0.26517   0.52710   0.00374   0.00000  Uiso   1.00
C210   C     0.20702   0.51071   0.08963   0.00000  Uiso   1.00
C211   C     0.07789   0.52541   0.43541   0.00000  Uiso   1.00
C212   C     0.06414   0.53680   0.48950   0.00000  Uiso   1.00
C213   C     0.09726   0.53866   0.01707   0.00000  Uiso   1.00
C214   C     0.29407   0.50469   0.07765   0.00000  Uiso   1.00
C215   C     0.15923   0.53541   0.43193   0.00000  Uiso   1.00
C216   C     0.24432   0.37500   0.16455   0.00000  Uiso   1.00
C217   C     0.22552   0.39114   0.12005   0.00000  Uiso   1.00
C218   C     0.18139   0.53144   0.01325   0.00000  Uiso   1.00
C219   C     0.22914   0.53616   0.48186   0.00000  Uiso   1.00
C220   C     0.24017   0.54882   0.42833   0.00000  Uiso   1.00
C221   C     0.20516   0.54862   0.40342   0.00000  Uiso   1.00
C222   C     0.17110   0.51897   0.06679   0.00000  Uiso   1.00
C223   C     0.25462   0.51396   0.05716   0.00000  Uiso   1.00
H224   H     0.10103   0.37226   0.30955   0.00000  Uiso   1.00
H225   H     0.05105   0.51971   0.41619   0.00000  Uiso   1.00
H226   H     0.08465   0.54471   0.05984   0.00000  Uiso   1.00
H227   H     0.02784   0.54327   0.01057   0.00000  Uiso   1.00
H228   H     0.21432   0.55835   0.36182   0.00000  Uiso   1.00
H229   H     0.23302   0.62587   0.18463   0.00000  Uiso   1.00
H230   H     0.30272   0.52671   0.10475   0.00000  Uiso   1.00
H231   H     0.19658   0.41401   0.13610   0.00000  Uiso   1.00
H232   H     0.25436   0.40676   0.08841   0.00000  Uiso   1.00
H233   H     0.21199   0.36462   0.10154   0.00000  Uiso   1.00
H234   H     0.26111   0.40077   0.18045   0.00000  Uiso   1.00
H235   H     0.09999   0.62933   0.31123   0.00000  Uiso   1.00
H236   H     0.27321   0.35242   0.14602   0.00000  Uiso   1.00
H237   H     0.31424   0.48501   0.16759   0.00000  Uiso   1.00
H238   H     0.06408   0.48721   0.16648   0.00000  Uiso   1.00
H239   H     0.01891   0.50916   0.33423   0.00000  Uiso   1.00
H240   H     0.26953   0.50583   0.33423   0.00000  Uiso   1.00
H241   H     0.27618   0.55624   0.40492   0.00000  Uiso   1.00
H242   H     0.30146   0.52947   0.47854   0.00000  Uiso   1.00
H243   H     0.13487   0.51409   0.09070   0.00000  Uiso   1.00
N244   N     0.04760   0.50001   0.25001   0.00000  Uiso   1.00
N245   N     0.28573   0.49998   0.25000   0.00000  Uiso   1.00
O246   O     0.12846   0.56108   0.25000   0.00000  Uiso   1.00
O247   O     0.20490   0.56107   0.25000   0.00000  Uiso   1.00
O248   O     0.10947   0.50000   0.32681   0.00000  Uiso   1.00
O249   O     0.18591   0.49999   0.32681   0.00000  Uiso   1.00
O250   O     0.12843   0.43893   0.24999   0.00000  Uiso   1.00
O251   O     0.20488   0.43892   0.24999   0.00000  Uiso   1.00
O252   O     0.14742   0.50001   0.17319   0.00000  Uiso   1.00
O253   O     0.22387   0.50000   0.17319   0.00000  Uiso   1.00
O254   O     0.31801   0.47331   0.06291   0.00000  Uiso   1.00
Zn255  Zn    0.11562   0.50001   0.25000   0.00000  Uiso   1.00
Zn256  Zn    0.21771   0.49999   0.25000   0.00000  Uiso   1.00
C257   C     0.50000   0.57985   0.25007   0.00000  Uiso   1.00
C258   C     0.45939   0.52252   0.40646   0.00000  Uiso   1.00
C259   C     0.53828   0.64405   0.21198   0.00000  Uiso   1.00
C260   C     0.47449   0.50637   0.35083   0.00000  Uiso   1.00
C261   C     0.53880   0.35396   0.20894   0.00000  Uiso   1.00
C262   C     0.50117   0.37585   0.24561   0.00000  Uiso   1.00
C263   C     0.46316   0.35515   0.28177   0.00000  Uiso   1.00
C264   C     0.46257   0.64558   0.28300   0.00000  Uiso   1.00
C265   C     0.50042   0.62389   0.24869   0.00000  Uiso   1.00
C266   C     0.65532   0.49269   0.20394   0.00000  Uiso   1.00
C267   C     0.36971   0.49312   0.20372   0.00000  Uiso   1.00
C268   C     0.47901   0.53540   0.48846   0.00000  Uiso   1.00
C269   C     0.34467   0.50518   0.29663   0.00000  Uiso   1.00
C270   C     0.63039   0.50443   0.29660   0.00000  Uiso   1.00
C271   C     0.50060   0.42013   0.24792   0.00000  Uiso   1.00
C272   C     0.52582   0.50166   0.14782   0.00000  Uiso   1.00
C273   C     0.59850   0.52710   0.00374   0.00000  Uiso   1.00
C274   C     0.54035   0.51071   0.08963   0.00000  Uiso   1.00
C275   C     0.41122   0.52541   0.43541   0.00000  Uiso   1.00
C276   C     0.39748   0.53680   0.48950   0.00000  Uiso   1.00
C277   C     0.43059   0.53866   0.01707   0.00000  Uiso   1.00
C278   C     0.62741   0.50469   0.07765   0.00000  Uiso   1.00
C279   C     0.49256   0.53541   0.43193   0.00000  Uiso   1.00
C280   C     0.57765   0.37500   0.16455   0.00000  Uiso   1.00
C281   C     0.55885   0.39114   0.12005   0.00000  Uiso   1.00
C282   C     0.51472   0.53144   0.01325   0.00000  Uiso   1.00
C283   C     0.56248   0.53616   0.48186   0.00000  Uiso   1.00
C284   C     0.57350   0.54882   0.42833   0.00000  Uiso   1.00
C285   C     0.53849   0.54862   0.40342   0.00000  Uiso   1.00
C286   C     0.50443   0.51897   0.06679   0.00000  Uiso   1.00
C287   C     0.58795   0.51396   0.05716   0.00000  Uiso   1.00
H288   H     0.43436   0.37226   0.30955   0.00000  Uiso   1.00
H289   H     0.38438   0.51971   0.41619   0.00000  Uiso   1.00
H290   H     0.41798   0.54471   0.05984   0.00000  Uiso   1.00
H291   H     0.36117   0.54327   0.01057   0.00000  Uiso   1.00
H292   H     0.54765   0.55835   0.36182   0.00000  Uiso   1.00
H293   H     0.56635   0.62587   0.18463   0.00000  Uiso   1.00
H294   H     0.63606   0.52671   0.10475   0.00000  Uiso   1.00
H295   H     0.52992   0.41401   0.13610   0.00000  Uiso   1.00
H296   H     0.58770   0.40676   0.08841   0.00000  Uiso   1.00
H297   H     0.54533   0.36462   0.10154   0.00000  Uiso   1.00
H298   H     0.59444   0.40077   0.18045   0.00000  Uiso   1.00
H299   H     0.43332   0.62933   0.31123   0.00000  Uiso   1.00
H300   H     0.60655   0.35242   0.14602   0.00000  Uiso   1.00
H301   H     0.64758   0.48501   0.16759   0.00000  Uiso   1.00
H302   H     0.39741   0.48721   0.16648   0.00000  Uiso   1.00
H303   H     0.35224   0.50916   0.33423   0.00000  Uiso   1.00
H304   H     0.60287   0.50583   0.33423   0.00000  Uiso   1.00
H305   H     0.60951   0.55624   0.40492   0.00000  Uiso   1.00
H306   H     0.63480   0.52947   0.47854   0.00000  Uiso   1.00
H307   H     0.46821   0.51409   0.09070   0.00000  Uiso   1.00
N308   N     0.38093   0.50001   0.25001   0.00000  Uiso   1.00
N309   N     0.61906   0.49998   0.25000   0.00000  Uiso   1.00
O310   O     0.46179   0.56108   0.25000   0.00000  Uiso   1.00
O311   O     0.53823   0.56107   0.25000   0.00000  Uiso   1.00
O312   O     0.44280   0.50000   0.32681   0.00000  Uiso   1.00
O313   O     0.51924   0.49999   0.32681   0.00000  Uiso   1.00
O314   O     0.46177   0.43893   0.24999   0.00000  Uiso   1.00
O315   O     0.53821   0.43892   0.24999   0.00000  Uiso   1.00
O316   O     0.48076   0.50001   0.17319   0.00000  Uiso   1.00
O317   O     0.55720   0.50000   0.17319   0.00000  Uiso   1.00
O318   O     0.65134   0.47331   0.06291   0.00000  Uiso   1.00
Zn319  Zn    0.44896   0.50001   0.25000   0.00000  Uiso   1.00
Zn320  Zn    0.55104   0.49999   0.25000   0.00000  Uiso   1.00
C321   C     0.83333   0.57985   0.25007   0.00000  Uiso   1.00
C322   C     0.79273   0.52252   0.40646   0.00000  Uiso   1.00
C323   C     0.87161   0.64405   0.21198   0.00000  Uiso   1.00
C324   C     0.80782   0.50637   0.35083   0.00000  Uiso   1.00
C325   C     0.87213   0.35396   0.20894   0.00000  Uiso   1.00
C326   C     0.83451   0.37585   0.24561   0.00000  Uiso   1.00
C327   C     0.79649   0.35515   0.28177   0.00000  Uiso   1.00
C328   C     0.79591   0.64558   0.28300   0.00000  Uiso   1.00
C329   C     0.83375   0.62389   0.24869   0.00000  Uiso   1.00
C330   C     0.98866   0.49269   0.20394   0.00000  Uiso   1.00
C331   C     0.70304   0.49312   0.20372   0.00000  Uiso   1.00
C332   C     0.81234   0.53540   0.48846   0.00000  Uiso   1.00
C333   C     0.67800   0.50518   0.29663   0.00000  Uiso   1.00
C334   C     0.96372   0.50443   0.29660   0.00000  Uiso   1.00
C335   C     0.83393   0.42013   0.24792   0.00000  Uiso   1.00
C336   C     0.85916   0.50166   0.14782   0.00000  Uiso   1.00
C337   C     0.93184   0.52710   0.00374   0.00000  Uiso   1.00
C338   C     0.87369   0.51071   0.08963   0.00000  Uiso   1.00
C339   C     0.74456   0.52541   0.43541   0.00000  Uiso   1.00
C340   C     0.73081   0.53680   0.48950   0.00000  Uiso   1.00
C341   C     0.76393   0.53866   0.01707   0.00000  Uiso   1.00
C342   C     0.96074   0.50469   0.07765   0.00000  Uiso   1.00
C343   C     0.82590   0.53541   0.43193   0.00000  Uiso   1.00
C344   C     0.91099   0.37500   0.16455   0.00000  Uiso   1.00
C345   C     0.89219   0.39114   0.12005   0.00000  Uiso   1.00
C346   C     0.84805   0.53144   0.01325   0.00000  Uiso   1.00
C347   C     0.89581   0.53616   0.48186   0.00000  Uiso   1.00
C348   C     0.90684   0.54882   0.42833   0.00000  Uiso   1.00
C349   C     0.87182   0.54862   0.40342   0.00000  Uiso   1.00
C350   C     0.83777   0.51897   0.06679   0.00000  Uiso   1.00
C351   C     0.92128   0.51396   0.05716   0.00000  Uiso   1.00
H352   H     0.76770   0.37226   0.30955   0.00000  Uiso   1.00
H353   H     0.71772   0.51971   0.41619   0.00000  Uiso   1.00
H354   H     0.75132   0.54471   0.05984   0.00000  Uiso   1.00
H355   H     0.69451   0.54327   0.01057   0.00000  Uiso   1.00
H356   H     0.88099   0.55835   0.36182   0.00000  Uiso   1.00
H357   H     0.89969   0.62587   0.18463   0.00000  Uiso   1.00
H358   H     0.96939   0.52671   0.10475   0.00000  Uiso   1.00
H359   H     0.86325   0.41401   0.13610   0.00000  Uiso   1.00
H360   H     0.92103   0.40676   0.08841   0.00000  Uiso   1.00
H361   H     0.87866   0.36462   0.10154   0.00000  Uiso   1.00
H362   H     0.92777   0.40077   0.18045   0.00000  Uiso   1.00
H363   H     0.76665   0.62933   0.31123   0.00000  Uiso   1.00
H364   H     0.93988   0.35242   0.14602   0.00000  Uiso   1.00
H365   H     0.98091   0.48501   0.16759   0.00000  Uiso   1.00
H366   H     0.73074   0.48721   0.16648   0.00000  Uiso   1.00
H367   H     0.68557   0.50916   0.33423   0.00000  Uiso   1.00
H368   H     0.93620   0.50583   0.33423   0.00000  Uiso   1.00
H369   H     0.94284   0.55624   0.40492   0.00000  Uiso   1.00
H370   H     0.96813   0.52947   0.47854   0.00000  Uiso   1.00
H371   H     0.80154   0.51409   0.09070   0.00000  Uiso   1.00
N372   N     0.71426   0.50001   0.25001   0.00000  Uiso   1.00
N373   N     0.95239   0.49998   0.25000   0.00000  Uiso   1.00
O374   O     0.79512   0.56108   0.25000   0.00000  Uiso   1.00
O375   O     0.87157   0.56107   0.25000   0.00000  Uiso   1.00
O376   O     0.77613   0.50000   0.32681   0.00000  Uiso   1.00
O377   O     0.85258   0.49999   0.32681   0.00000  Uiso   1.00
O378   O     0.79510   0.43893   0.24999   0.00000  Uiso   1.00
O379   O     0.87154   0.43892   0.24999   0.00000  Uiso   1.00
O380   O     0.81409   0.50001   0.17319   0.00000  Uiso   1.00
O381   O     0.89053   0.50000   0.17319   0.00000  Uiso   1.00
O382   O     0.98468   0.47331   0.06291   0.00000  Uiso   1.00
Zn383  Zn    0.78229   0.50001   0.25000   0.00000  Uiso   1.00
Zn384  Zn    0.88438   0.49999   0.25000   0.00000  Uiso   1.00
C385   C     0.16666   0.91318   0.25007   0.00000  Uiso   1.00
C386   C     0.12606   0.85585   0.40646   0.00000  Uiso   1.00
C387   C     0.20495   0.97738   0.21198   0.00000  Uiso   1.00
C388   C     0.14115   0.83970   0.35083   0.00000  Uiso   1.00
C389   C     0.20546   0.68730   0.20894   0.00000  Uiso   1.00
C390   C     0.16784   0.70919   0.24561   0.00000  Uiso   1.00
C391   C     0.12983   0.68848   0.28177   0.00000  Uiso   1.00
C392   C     0.12924   0.97891   0.28300   0.00000  Uiso   1.00
C393   C     0.16708   0.95723   0.24869   0.00000  Uiso   1.00
C394   C     0.32199   0.82602   0.20394   0.00000  Uiso   1.00
C395   C     0.03638   0.82645   0.20372   0.00000  Uiso   1.00
C396   C     0.14567   0.86873   0.48846   0.00000  Uiso   1.00
C397   C     0.01134   0.83851   0.29663   0.00000  Uiso   1.00
C398   C     0.29706   0.83777   0.29660   0.00000  Uiso   1.00
C399   C     0.16727   0.75347   0.24792   0.00000  Uiso   1.00
C400   C     0.19249   0.83499   0.14782   0.00000  Uiso   1.00
C401   C     0.26517   0.86043   0.00374   0.00000  Uiso   1.00
C402   C     0.20702   0.84404   0.08963   0.00000  Uiso   1.00
C403   C     0.07789   0.85874   0.43541   0.00000  Uiso   1.00
C404   C     0.06414   0.87013   0.48950   0.00000  Uiso   1.00
C405   C     0.09726   0.87199   0.01707   0.00000  Uiso   1.00
C406   C     0.29407   0.83802   0.07765   0.00000  Uiso   1.00
C407   C     0.15923   0.86874   0.43193   0.00000  Uiso   1.00
C408   C     0.24432   0.70834   0.16455   0.00000  Uiso   1.00
C409   C     0.22552   0.72447   0.12005   0.00000  Uiso   1.00
C410   C     0.18139   0.86477   0.01325   0.00000  Uiso   1.00
C411   C     0.22914   0.86949   0.48186   0.00000  Uiso   1.00
C412   C     0.24017   0.88215   0.42833   0.00000  Uiso   1.00
C413   C     0.20516   0.88195   0.40342   0.00000  Uiso   1.00
C414   C     0.17110   0.85230   0.06679   0.00000  Uiso   1.00
C415   C     0.25462   0.84730   0.05716   0.00000  Uiso   1.00
H416   H     0.10103   0.70559   0.30955   0.00000  Uiso   1.00
H417   H     0.05105   0.85305   0.41619   0.00000  Uiso   1.00
H418   H     0.08465   0.87804   0.05984   0.00000  Uiso   1.00
H419   H     0.02784   0.87660   0.01057   0.00000  Uiso   1.00
H420   H     0.21432   0.89168   0.36182   0.00000  Uiso   1.00
H421   H     0.23302   0.95921   0.18463   0.00000  Uiso   1.00
H422   H     0.30272   0.86005   0.10475   0.00000  Uiso   1.00
H423   H     0.19658   0.74735   0.13610   0.00000  Uiso   1.00
H424   H     0.25436   0.74009   0.08841   0.00000  Uiso   1.00
H425   H     0.21199   0.69796   0.10154   0.00000  Uiso   1.00
H426   H     0.26111   0.73410   0.18045   0.00000  Uiso   1.00
H427   H     0.09999   0.96266   0.31123   0.00000  Uiso   1.00
H428   H     0.27321   0.68576   0.14602   0.00000  Uiso   1.00
H429   H     0.31424   0.81834   0.16759   0.00000  Uiso   1.00
H430   H     0.06408   0.82054   0.16648   0.00000  Uiso   1.00
H431   H     0.01891   0.84250   0.33423   0.00000  Uiso   1.00
H432   H     0.26953   0.83916   0.33423   0.00000  Uiso   1.00
H433   H     0.27618   0.88958   0.40492   0.00000  Uiso   1.00
H434   H     0.30146   0.86280   0.47854   0.00000  Uiso   1.00
H435   H     0.13487   0.84743   0.09070   0.00000  Uiso   1.00
N436   N     0.04760   0.83334   0.25001   0.00000  Uiso   1.00
N437   N     0.28573   0.83331   0.25000   0.00000  Uiso   1.00
O438   O     0.12846   0.89442   0.25000   0.00000  Uiso   1.00
O439   O     0.20490   0.89441   0.25000   0.00000  Uiso   1.00
O440   O     0.10947   0.83333   0.32681   0.00000  Uiso   1.00
O441   O     0.18591   0.83332   0.32681   0.00000  Uiso   1.00
O442   O     0.12843   0.77226   0.24999   0.00000  Uiso   1.00
O443   O     0.20488   0.77225   0.24999   0.00000  Uiso   1.00
O444   O     0.14742   0.83335   0.17319   0.00000  Uiso   1.00
O445   O     0.22387   0.83334   0.17319   0.00000  Uiso   1.00
O446   O     0.31801   0.80664   0.06291   0.00000  Uiso   1.00
Zn447  Zn    0.11562   0.83334   0.25000   0.00000  Uiso   1.00
Zn448  Zn    0.21771   0.83333   0.25000   0.00000  Uiso   1.00
C449   C     0.50000   0.91318   0.25007   0.00000  Uiso   1.00
C450   C     0.45939   0.85585   0.40646   0.00000  Uiso   1.00
C451   C     0.53828   0.97738   0.21198   0.00000  Uiso   1.00
C452   C     0.47449   0.83970   0.35083   0.00000  Uiso   1.00
C453   C     0.53880   0.68730   0.20894   0.00000  Uiso   1.00
C454   C     0.50117   0.70919   0.24561   0.00000  Uiso   1.00
C455   C     0.46316   0.68848   0.28177   0.00000  Uiso   1.00
C456   C     0.46257   0.97891   0.28300   0.00000  Uiso   1.00
C457   C     0.50042   0.95723   0.24869   0.00000  Uiso   1.00
C458   C     0.65532   0.82602   0.20394   0.00000  Uiso   1.00
C459   C     0.36971   0.82645   0.20372   0.00000  Uiso   1.00
C460   C     0.47901   0.86873   0.48846   0.00000  Uiso   1.00
C461   C     0.34467   0.83851   0.29663   0.00000  Uiso   1.00
C462   C     0.63039   0.83777   0.29660   0.00000  Uiso   1.00
C463   C     0.50060   0.75347   0.24792   0.00000  Uiso   1.00
C464   C     0.52582   0.83499   0.14782   0.00000  Uiso   1.00
C465   C     0.59850   0.86043   0.00374   0.00000  Uiso   1.00
C466   C     0.54035   0.84404   0.08963   0.00000  Uiso   1.00
C467   C     0.41122   0.85874   0.43541   0.00000  Uiso   1.00
C468   C     0.39748   0.87013   0.48950   0.00000  Uiso   1.00
C469   C     0.43059   0.87199   0.01707   0.00000  Uiso   1.00
C470   C     0.62741   0.83802   0.07765   0.00000  Uiso   1.00
C471   C     0.49256   0.86874   0.43193   0.00000  Uiso   1.00
C472   C     0.57765   0.70834   0.16455   0.00000  Uiso   1.00
C473   C     0.55885   0.72447   0.12005   0.00000  Uiso   1.00
C474   C     0.51472   0.86477   0.01325   0.00000  Uiso   1.00
C475   C     0.56248   0.86949   0.48186   0.00000  Uiso   1.00
C476   C     0.57350   0.88215   0.42833   0.00000  Uiso   1.00
C477   C     0.53849   0.88195   0.40342   0.00000  Uiso   1.00
C478   C     0.50443   0.85230   0.06679   0.00000  Uiso   1.00
C479   C     0.58795   0.84730   0.05716   0.00000  Uiso   1.00
H480   H     0.43436   0.70559   0.30955   0.00000  Uiso   1.00
H481   H     0.38438   0.85305   0.41619   0.00000  Uiso   1.00
H482   H     0.41798   0.87804   0.05984   0.00000  Uiso   1.00
H483   H     0.36117   0.87660   0.01057   0.00000  Uiso   1.00
H484   H     0.54765   0.89168   0.36182   0.00000  Uiso   1.00
H485   H     0.56635   0.95921   0.18463   0.00000  Uiso   1.00
H486   H     0.63606   0.86005   0.10475   0.00000  Uiso   1.00
H487   H     0.52992   0.74735   0.13610   0.00000  Uiso   1.00
H488   H     0.58770   0.74009   0.08841   0.00000  Uiso   1.00
H489   H     0.54533   0.69796   0.10154   0.00000  Uiso   1.00
H490   H     0.59444   0.73410   0.18045   0.00000  Uiso   1.00
H491   H     0.43332   0.96266   0.31123   0.00000  Uiso   1.00
H492   H     0.60655   0.68576   0.14602   0.00000  Uiso   1.00
H493   H     0.64758   0.81834   0.16759   0.00000  Uiso   1.00
H494   H     0.39741   0.82054   0.16648   0.00000  Uiso   1.00
H495   H     0.35224   0.84250   0.33423   0.00000  Uiso   1.00
H496   H     0.60287   0.83916   0.33423   0.00000  Uiso   1.00
H497   H     0.60951   0.88958   0.40492   0.00000  Uiso   1.00
H498   H     0.63480   0.86280   0.47854   0.00000  Uiso   1.00
H499   H     0.46821   0.84743   0.09070   0.00000  Uiso   1.00
N500   N     0.38093   0.83334   0.25001   0.00000  Uiso   1.00
N501   N     0.61906   0.83331   0.25000   0.00000  Uiso   1.00
O502   O     0.46179   0.89442   0.25000   0.00000  Uiso   1.00
O503   O     0.53823   0.89441   0.25000   0.00000  Uiso   1.00
O504   O     0.44280   0.83333   0.32681   0.00000  Uiso   1.00
O505   O     0.51924   0.83332   0.32681   0.00000  Uiso   1.00
O506   O     0.46177   0.77226   0.24999   0.00000  Uiso   1.00
O507   O     0.53821   0.77225   0.24999   0.00000  Uiso   1.00
O508   O     0.48076   0.83335   0.17319   0.00000  Uiso   1.00
O509   O     0.55720   0.83334   0.17319   0.00000  Uiso   1.00
O510   O     0.65134   0.80664   0.06291   0.00000  Uiso   1.00
Zn511  Zn    0.44896   0.83334   0.25000   0.00000  Uiso   1.00
Zn512  Zn    0.55104   0.83333   0.25000   0.00000  Uiso   1.00
C513   C     0.83333   0.91318   0.25007   0.00000  Uiso   1.00
C514   C     0.79273   0.85585   0.40646   0.00000  Uiso   1.00
C515   C     0.87161   0.97738   0.21198   0.00000  Uiso   1.00
C516   C     0.80782   0.83970   0.35083   0.00000  Uiso   1.00
C517   C     0.87213   0.68730   0.20894   0.00000  Uiso   1.00
C518   C     0.83451   0.70919   0.24561   0.00000  Uiso   1.00
C519   C     0.79649   0.68848   0.28177   0.00000  Uiso   1.00
C520   C     0.79591   0.97891   0.28300   0.00000  Uiso   1.00
C521   C     0.83375   0.95723   0.24869   0.00000  Uiso   1.00
C522   C     0.98866   0.82602   0.20394   0.00000  Uiso   1.00
C523   C     0.70304   0.82645   0.20372   0.00000  Uiso   1.00
C524   C     0.81234   0.86873   0.48846   0.00000  Uiso   1.00
C525   C     0.67800   0.83851   0.29663   0.00000  Uiso   1.00
C526   C     0.96372   0.83777   0.29660   0.00000  Uiso   1.00
C527   C     0.83393   0.75347   0.24792   0.00000  Uiso   1.00
C528   C     0.85916   0.83499   0.14782   0.00000  Uiso   1.00
C529   C     0.93184   0.86043   0.00374   0.00000  Uiso   1.00
C530   C     0.87369   0.84404   0.08963   0.00000  Uiso   1.00
C531   C     0.74456   0.85874   0.43541   0.00000  Uiso   1.00
C532   C     0.73081   0.87013   0.48950   0.00000  Uiso   1.00
C533   C     0.76393   0.87199   0.01707   0.00000  Uiso   1.00
C534   C     0.96074   0.83802   0.07765   0.00000  Uiso   1.00
C535   C     0.82590   0.86874   0.43193   0.00000  Uiso   1.00
C536   C     0.91099   0.70834   0.16455   0.00000  Uiso   1.00
C537   C     0.89219   0.72447   0.12005   0.00000  Uiso   1.00
C538   C     0.84805   0.86477   0.01325   0.00000  Uiso   1.00
C539   C     0.89581   0.86949   0.48186   0.00000  Uiso   1.00
C540   C     0.90684   0.88215   0.42833   0.00000  Uiso   1.00
C541   C     0.87182   0.88195   0.40342   0.00000  Uiso   1.00
C542   C     0.83777   0.85230   0.06679   0.00000  Uiso   1.00
C543   C     0.92128   0.84730   0.05716   0.00000  Uiso   1.00
H544   H     0.76770   0.70559   0.30955   0.00000  Uiso   1.00
H545   H     0.71772   0.85305   0.41619   0.00000  Uiso   1.00
H546   H     0.75132   0.87804   0.05984   0.00000  Uiso   1.00
H547   H     0.69451   0.87660   0.01057   0.00000  Uiso   1.00
H548   H     0.88099   0.89168   0.36182   0.00000  Uiso   1.00
H549   H     0.89969   0.95921   0.18463   0.00000  Uiso   1.00
H550   H     0.96939   0.86005   0.10475   0.00000  Uiso   1.00
H551   H     0.86325   0.74735   0.13610   0.00000  Uiso   1.00
H552   H     0.92103   0.74009   0.08841   0.00000  Uiso   1.00
H553   H     0.87866   0.69796   0.10154   0.00000  Uiso   1.00
H554   H     0.92777   0.73410   0.18045   0.00000  Uiso   1.00
H555   H     0.76665   0.96266   0.31123   0.00000  Uiso   1.00
H556   H     0.93988   0.68576   0.14602   0.00000  Uiso   1.00
H557   H     0.98091   0.81834   0.16759   0.00000  Uiso   1.00
H558   H     0.73074   0.82054   0.16648   0.00000  Uiso   1.00
H559   H     0.68557   0.84250   0.33423   0.00000  Uiso   1.00
H560   H     0.93620   0.83916   0.33423   0.00000  Uiso   1.00
H561   H     0.94284   0.88958   0.40492   0.00000  Uiso   1.00
H562   H     0.96813   0.86280   0.47854   0.00000  Uiso   1.00
H563   H     0.80154   0.84743   0.09070   0.00000  Uiso   1.00
N564   N     0.71426   0.83334   0.25001   0.00000  Uiso   1.00
N565   N     0.95239   0.83331   0.25000   0.00000  Uiso   1.00
O566   O     0.79512   0.89442   0.25000   0.00000  Uiso   1.00
O567   O     0.87157   0.89441   0.25000   0.00000  Uiso   1.00
O568   O     0.77613   0.83333   0.32681   0.00000  Uiso   1.00
O569   O     0.85258   0.83332   0.32681   0.00000  Uiso   1.00
O570   O     0.79510   0.77226   0.24999   0.00000  Uiso   1.00
O571   O     0.87154   0.77225   0.24999   0.00000  Uiso   1.00
O572   O     0.81409   0.83335   0.17319   0.00000  Uiso   1.00
O573   O     0.89053   0.83334   0.17319   0.00000  Uiso   1.00
O574   O     0.98468   0.80664   0.06291   0.00000  Uiso   1.00
Zn575  Zn    0.78229   0.83334   0.25000   0.00000  Uiso   1.00
Zn576  Zn    0.88438   0.83333   0.25000   0.00000  Uiso   1.00
C577   C     0.16666   0.24651   0.75007   0.00000  Uiso   1.00
C578   C     0.12606   0.18919   0.90646   0.00000  Uiso   1.00
C579   C     0.20495   0.31072   0.71198   0.00000  Uiso   1.00
C580   C     0.14115   0.17304   0.85083   0.00000  Uiso   1.00
C581   C     0.20546   0.02063   0.70894   0.00000  Uiso   1.00
C582   C     0.16784   0.04252   0.74561   0.00000  Uiso   1.00
C583   C     0.12983   0.02182   0.78177   0.00000  Uiso   1.00
C584   C     0.12924   0.31225   0.78300   0.00000  Uiso   1.00
C585   C     0.16708   0.29056   0.74869   0.00000  Uiso   1.00
C586   C     0.32199   0.15935   0.70394   0.00000  Uiso   1.00
C587   C     0.03638   0.15978   0.70372   0.00000  Uiso   1.00
C588   C     0.14567   0.20207   0.98846   0.00000  Uiso   1.00
C589   C     0.01134   0.17184   0.79663   0.00000  Uiso   1.00
C590   C     0.29706   0.17110   0.79660   0.00000  Uiso   1.00
C591   C     0.16727   0.08680   0.74792   0.00000  Uiso   1.00
C592   C     0.19249   0.16832   0.64782   0.00000  Uiso   1.00
C593   C     0.26517   0.19376   0.50374   0.00000  Uiso   1.00
C594   C     0.20702   0.17738   0.58963   0.00000  Uiso   1.00
C595   C     0.07789   0.19207   0.93541   0.00000  Uiso   1.00
C596   C     0.06414   0.20347   0.98950   0.00000  Uiso   1.00
C597   C     0.09726   0.20533   0.51707   0.00000  Uiso   1.00
C598   C     0.29407   0.17136   0.57765   0.00000  Uiso   1.00
C599   C     0.15923   0.20208   0.93193   0.00000  Uiso   1.00
C600   C     0.24432   0.04167   0.66455   0.00000  Uiso   1.00
C601   C     0.22552   0.05781   0.62005   0.00000  Uiso   1.00
C602   C     0.18139   0.19810   0.51325   0.00000  Uiso   1.00
C603   C     0.22914   0.20282   0.98186   0.00000  Uiso   1.00
C604   C     0.24017   0.21549   0.92833   0.00000  Uiso   1.00
C605   C     0.20516   0.21529   0.90342   0.00000  Uiso   1.00
C606   C     0.17110   0.18563   0.56679   0.00000  Uiso   1.00
C607   C     0.25462   0.18063   0.55716   0.00000  Uiso   1.00
H608   H     0.10103   0.03893   0.80955   0.00000  Uiso   1.00
H609   H     0.05105   0.18638   0.91619   0.00000  Uiso   1.00
H610   H     0.08465   0.21137   0.55984   0.00000  Uiso   1.00
H611   H     0.02784   0.20994   0.51057   0.00000  Uiso   1.00
H612   H     0.21432   0.22502   0.86182   0.00000  Uiso   1.00
H613   H     0.23302   0.29254   0.68463   0.00000  Uiso   1.00
H614   H     0.30272   0.19338   0.60475   0.00000  Uiso   1.00
H615   H     0.19658   0.08068   0.63610   0.00000  Uiso   1.00
H616   H     0.25436   0.07342   0.58841   0.00000  Uiso   1.00
H617   H     0.21199   0.03129   0.60154   0.00000  Uiso   1.00
H618   H     0.26111   0.06743   0.68045   0.00000  Uiso   1.00
H619   H     0.09999   0.29599   0.81123   0.00000  Uiso   1.00
H620   H     0.27321   0.01909   0.64602   0.00000  Uiso   1.00
H621   H     0.31424   0.15167   0.66759   0.00000  Uiso   1.00
H622   H     0.06408   0.15388   0.66648   0.00000  Uiso   1.00
H623   H     0.01891   0.17583   0.83423   0.00000  Uiso   1.00
H624   H     0.26953   0.17249   0.83423   0.00000  Uiso   1.00
H625   H     0.27618   0.22291   0.90492   0.00000  Uiso   1.00
H626   H     0.30146   0.19613   0.97854   0.00000  Uiso   1.00
H627   H     0.13487   0.18076   0.59070   0.00000  Uiso   1.00
N628   N     0.04760   0.16668   0.75001   0.00000  Uiso   1.00
N629   N     0.28573   0.16665   0.75000   0.00000  Uiso   1.00
O630   O     0.12846   0.22775   0.75000   0.00000  Uiso   1.00
O631   O     0.20490   0.22774   0.75000   0.00000  Uiso   1.00
O632   O     0.10947   0.16666   0.82681   0.00000  Uiso   1.00
O633   O     0.18591   0.16665   0.82681   0.00000  Uiso   1.00
O634   O     0.12843   0.10559   0.74999   0.00000  Uiso   1.00
O635   O     0.20488   0.10558   0.74999   0.00000  Uiso   1.00
O636   O     0.14742   0.16668   0.67319   0.00000  Uiso   1.00
O637   O     0.22387   0.16667   0.67319   0.00000  Uiso   1.00
O638   O     0.31801   0.13998   0.56291   0.00000  Uiso   1.00
Zn639  Zn    0.11562   0.16667   0.75000   0.00000  Uiso   1.00
Zn640  Zn    0.21771   0.16666   0.75000   0.00000  Uiso   1.00
C641   C     0.50000   0.24651   0.75007   0.00000  Uiso   1.00
C642   C     0.45939   0.18919   0.90646   0.00000  Uiso   1.00
C643   C     0.53828   0.31072   0.71198   0.00000  Uiso   1.00
C644   C     0.47449   0.17304   0.85083   0.00000  Uiso   1.00
C645   C     0.53880   0.02063   0.70894   0.00000  Uiso   1.00
C646   C     0.50117   0.04252   0.74561   0.00000  Uiso   1.00
C647   C     0.46316   0.02182   0.78177   0.00000  Uiso   1.00
C648   C     0.46257   0.31225   0.78300   0.00000  Uiso   1.00
C649   C     0.50042   0.29056   0.74869   0.00000  Uiso   1.00
C650   C     0.65532   0.15935   0.70394   0.00000  Uiso   1.00
C651   C     0.36971   0.15978   0.70372   0.00000  Uiso   1.00
C652   C     0.47901   0.20207   0.98846   0.00000  Uiso   1.00
C653   C     0.34467   0.17184   0.79663   0.00000  Uiso   1.00
C654   C     0.63039   0.17110   0.79660   0.00000  Uiso   1.00
C655   C     0.50060   0.08680   0.74792   0.00000  Uiso   1.00
C656   C     0.52582   0.16832   0.64782   0.00000  Uiso   1.00
C657   C     0.59850   0.19376   0.50374   0.00000  Uiso   1.00
C658   C     0.54035   0.17738   0.58963   0.00000  Uiso   1.00
C659   C     0.41122   0.19207   0.93541   0.00000  Uiso   1.00
C660   C     0.39748   0.20347   0.98950   0.00000  Uiso   1.00
C661   C     0.43059   0.20533   0.51707   0.00000  Uiso   1.00
C662   C     0.62741   0.17136   0.57765   0.00000  Uiso   1.00
C663   C     0.49256   0.20208   0.93193   0.00000  Uiso   1.00
C664   C     0.57765   0.04167   0.66455   0.00000  Uiso   1.00
C665   C     0.55885   0.05781   0.62005   0.00000  Uiso   1.00
C666   C     0.51472   0.19810   0.51325   0.00000  Uiso   1.00
C667   C     0.56248   0.20282   0.98186   0.00000  Uiso   1.00
C668   C     0.57350   0.21549   0.92833   0.00000  Uiso   1.00
C669   C     0.53849   0.21529   0.90342   0.00000  Uiso   1.00
C670   C     0.50443   0.18563   0.56679   0.00000  Uiso   1.00
C671   C     0.58795   0.18063   0.55716   0.00000  Uiso   1.00
H672   H     0.43436   0.03893   0.80955   0.00000  Uiso   1.00
H673   H     0.38438   0.18638   0.91619   0.00000  Uiso   1.00
H674   H     0.41798   0.21137   0.55984   0.00000  Uiso   1.00
H675   H     0.36117   0.20994   0.51057   0.00000  Uiso   1.00
H676   H     0.54765   0.22502   0.86182   0.00000  Uiso   1.00
H677   H     0.56635   0.29254   0.68463   0.00000  Uiso   1.00
H678   H     0.63606   0.19338   0.60475   0.00000  Uiso   1.00
H679   H     0.52992   0.08068   0.63610   0.00000  Uiso   1.00
H680   H     0.58770   0.07342   0.58841   0.00000  Uiso   1.00
H681   H     0.54533   0.03129   0.60154   0.00000  Uiso   1.00
H682   H     0.59444   0.06743   0.68045   0.00000  Uiso   1.00
H683   H     0.43332   0.29599   0.81123   0.00000  Uiso   1.00
H684   H     0.60655   0.01909   0.64602   0.00000  Uiso   1.00
H685   H     0.64758   0.15167   0.66759   0.00000  Uiso   1.00
H686   H     0.39741   0.15388   0.66648   0.00000  Uiso   1.00
H687   H     0.35224   0.17583   0.83423   0.00000  Uiso   1.00
H688   H     0.60287   0.17249   0.83423   0.00000  Uiso   1.00
H689   H     0.60951   0.22291   0.90492   0.00000  Uiso   1.00
H690   H     0.63480   0.19613   0.97854   0.00000  Uiso   1.00
H691   H     0.46821   0.18076   0.59070   0.00000  Uiso   1.00
N692   N     0.38093   0.16668   0.75001   0.00000  Uiso   1.00
N693   N     0.61906   0.16665   0.75000   0.00000  Uiso   1.00
O694   O     0.46179   0.22775   0.75000   0.00000  Uiso   1.00
O695   O     0.53823   0.22774   0.75000   0.00000  Uiso   1.00
O696   O     0.44280   0.16666   0.82681   0.00000  Uiso   1.00
O697   O     0.51924   0.16665   0.82681   0.00000  Uiso   1.00
O698   O     0.46177   0.10559   0.74999   0.00000  Uiso   1.00
O699   O     0.53821   0.10558   0.74999   0.00000  Uiso   1.00
O700   O     0.48076   0.16668   0.67319   0.00000  Uiso   1.00
O701   O     0.55720   0.16667   0.67319   0.00000  Uiso   1.00
O702   O     0.65134   0.13998   0.56291   0.00000  Uiso   1.00
Zn703  Zn    0.44896   0.16667   0.75000   0.00000  Uiso   1.00
Zn704  Zn    0.55104   0.16666   0.75000   0.00000  Uiso   1.00
C705   C     0.83333   0.24651   0.75007   0.00000  Uiso   1.00
C706   C     0.79273   0.18919   0.90646   0.00000  Uiso   1.00
C707   C     0.87161   0.31072   0.71198   0.00000  Uiso   1.00
C708   C     0.80782   0.17304   0.85083   0.00000  Uiso   1.00
C709   C     0.87213   0.02063   0.70894   0.00000  Uiso   1.00
C710   C     0.83451   0.04252   0.74561   0.00000  Uiso   1.00
C711   C     0.79649   0.02182   0.78177   0.00000  Uiso   1.00
C712   C     0.79591   0.31225   0.78300   0.00000  Uiso   1.00
C713   C     0.83375   0.29056   0.74869   0.00000  Uiso   1.00
C714   C     0.98866   0.15935   0.70394   0.00000  Uiso   1.00
C715   C     0.70304   0.15978   0.70372   0.00000  Uiso   1.00
C716   C     0.81234   0.20207   0.98846   0.00000  Uiso   1.00
C717   C     0.67800   0.17184   0.79663   0.00000  Uiso   1.00
C718   C     0.96372   0.17110   0.79660   0.00000  Uiso   1.00
C719   C     0.83393   0.08680   0.74792   0.00000  Uiso   1.00
C720   C     0.85916   0.16832   0.64782   0.00000  Uiso   1.00
C721   C     0.93184   0.19376   0.50374   0.00000  Uiso   1.00
C722   C     0.87369   0.17738   0.58963   0.00000  Uiso   1.00
C723   C     0.74456   0.19207   0.93541   0.00000  Uiso   1.00
C724   C     0.73081   0.20347   0.98950   0.00000  Uiso   1.00
C725   C     0.76393   0.20533   0.51707   0.00000  Uiso   1.00
C726   C     0.96074   0.17136   0.57765   0.00000  Uiso   1.00
C727   C     0.82590   0.20208   0.93193   0.00000  Uiso   1.00
C728   C     0.91099   0.04167   0.66455   0.00000  Uiso   1.00
C729   C     0.89219   0.05781   0.62005   0.00000  Uiso   1.00
C730   C     0.84805   0.19810   0.51325   0.00000  Uiso   1.00
C731   C     0.89581   0.20282   0.98186   0.00000  Uiso   1.00
C732   C     0.90684   0.21549   0.92833   0.00000  Uiso   1.00
C733   C     0.87182   0.21529   0.90342   0.00000  Uiso   1.00
C734   C     0.83777   0.18563   0.56679   0.00000  Uiso   1.00
C735   C     0.92128   0.18063   0.55716   0.00000  Uiso   1.00
H736   H     0.76770   0.03893   0.80955   0.00000  Uiso   1.00
H737   H     0.71772   0.18638   0.91619   0.00000  Uiso   1.00
H738   H     0.75132   0.21137   0.55984   0.00000  Uiso   1.00
H739   H     0.69451   0.20994   0.51057   0.00000  Uiso   1.00
H740   H     0.88099   0.22502   0.86182   0.00000  Uiso   1.00
H741   H     0.89969   0.29254   0.68463   0.00000  Uiso   1.00
H742   H     0.96939   0.19338   0.60475   0.00000  Uiso   1.00
H743   H     0.86325   0.08068   0.63610   0.00000  Uiso   1.00
H744   H     0.92103   0.07342   0.58841   0.00000  Uiso   1.00
H745   H     0.87866   0.03129   0.60154   0.00000  Uiso   1.00
H746   H     0.92777   0.06743   0.68045   0.00000  Uiso   1.00
H747   H     0.76665   0.29599   0.81123   0.00000  Uiso   1.00
H748   H     0.93988   0.01909   0.64602   0.00000  Uiso   1.00
H749   H     0.98091   0.15167   0.66759   0.00000  Uiso   1.00
H750   H     0.73074   0.15388   0.66648   0.00000  Uiso   1.00
H751   H     0.68557   0.17583   0.83423   0.00000  Uiso   1.00
H752   H     0.93620   0.17249   0.83423   0.00000  Uiso   1.00
H753   H     0.94284   0.22291   0.90492   0.00000  Uiso   1.00
H754   H     0.96813   0.19613   0.97854   0.00000  Uiso   1.00
H755   H     0.80154   0.18076   0.59070   0.00000  Uiso   1.00
N756   N     0.71426   0.16668   0.75001   0.00000  Uiso   1.00
N757   N     0.95239   0.16665   0.75000   0.00000  Uiso   1.00
O758   O     0.79512   0.22775   0.75000   0.00000  Uiso   1.00
O759   O     0.87157   0.22774   0.75000   0.00000  Uiso   1.00
O760   O     0.77613   0.16666   0.82681   0.00000  Uiso   1.00
O761   O     0.85258   0.16665   0.82681   0.00000  Uiso   1.00
O762   O     0.79510   0.10559   0.74999   0.00000  Uiso   1.00
O763   O     0.87154   0.10558   0.74999   0.00000  Uiso   1.00
O764   O     0.81409   0.16668   0.67319   0.00000  Uiso   1.00
O765   O     0.89053   0.16667   0.67319   0.00000  Uiso   1.00
O766   O     0.98468   0.13998   0.56291   0.00000  Uiso   1.00
Zn767  Zn    0.78229   0.16667   0.75000   0.00000  Uiso   1.00
Zn768  Zn    0.88438   0.16666   0.75000   0.00000  Uiso   1.00
C769   C     0.16666   0.57985   0.75007   0.00000  Uiso   1.00
C770   C     0.12606   0.52252   0.90646   0.00000  Uiso   1.00
C771   C     0.20495   0.64405   0.71198   0.00000  Uiso   1.00
C772   C     0.14115   0.50637   0.85083   0.00000  Uiso   1.00
C773   C     0.20546   0.35396   0.70894   0.00000  Uiso   1.00
C774   C     0.16784   0.37585   0.74561   0.00000  Uiso   1.00
C775   C     0.12983   0.35515   0.78177   0.00000  Uiso   1.00
C776   C     0.12924   0.64558   0.78300   0.00000  Uiso   1.00
C777   C     0.16708   0.62389   0.74869   0.00000  Uiso   1.00
C778   C     0.32199   0.49269   0.70394   0.00000  Uiso   1.00
C779   C     0.03638   0.49312   0.70372   0.00000  Uiso   1.00
C780   C     0.14567   0.53540   0.98846   0.00000  Uiso   1.00
C781   C     0.01134   0.50518   0.79663   0.00000  Uiso   1.00
C782   C     0.29706   0.50443   0.79660   0.00000  Uiso   1.00
C783   C     0.16727   0.42013   0.74792   0.00000  Uiso   1.00
C784   C     0.19249   0.50166   0.64782   0.00000  Uiso   1.00
C785   C     0.26517   0.52710   0.50374   0.00000  Uiso   1.00
C786   C     0.20702   0.51071   0.58963   0.00000  Uiso   1.00
C787   C     0.07789   0.52541   0.93541   0.00000  Uiso   1.00
C788   C     0.06414   0.53680   0.98950   0.00000  Uiso   1.00
C789   C     0.09726   0.53866   0.51707   0.00000  Uiso   1.00
C790   C     0.29407   0.50469   0.57765   0.00000  Uiso   1.00
C791   C     0.15923   0.53541   0.93193   0.00000  Uiso   1.00
C792   C     0.24432   0.37500   0.66455   0.00000  Uiso   1.00
C793   C     0.22552   0.39114   0.62005   0.00000  Uiso   1.00
C794   C     0.18139   0.53144   0.51325   0.00000  Uiso   1.00
C795   C     0.22914   0.53616   0.98186   0.00000  Uiso   1.00
C796   C     0.24017   0.54882   0.92833   0.00000  Uiso   1.00
C797   C     0.20516   0.54862   0.90342   0.00000  Uiso   1.00
C798   C     0.17110   0.51897   0.56679   0.00000  Uiso   1.00
C799   C     0.25462   0.51396   0.55716   0.00000  Uiso   1.00
H800   H     0.10103   0.37226   0.80955   0.00000  Uiso   1.00
H801   H     0.05105   0.51971   0.91619   0.00000  Uiso   1.00
H802   H     0.08465   0.54471   0.55984   0.00000  Uiso   1.00
H803   H     0.02784   0.54327   0.51057   0.00000  Uiso   1.00
H804   H     0.21432   0.55835   0.86182   0.00000  Uiso   1.00
H805   H     0.23302   0.62587   0.68463   0.00000  Uiso   1.00
H806   H     0.30272   0.52671   0.60475   0.00000  Uiso   1.00
H807   H     0.19658   0.41401   0.63610   0.00000  Uiso   1.00
H808   H     0.25436   0.40676   0.58841   0.00000  Uiso   1.00
H809   H     0.21199   0.36462   0.60154   0.00000  Uiso   1.00
H810   H     0.26111   0.40077   0.68045   0.00000  Uiso   1.00
H811   H     0.09999   0.62933   0.81123   0.00000  Uiso   1.00
H812   H     0.27321   0.35242   0.64602   0.00000  Uiso   1.00
H813   H     0.31424   0.48501   0.66759   0.00000  Uiso   1.00
H814   H     0.06408   0.48721   0.66648   0.00000  Uiso   1.00
H815   H     0.01891   0.50916   0.83423   0.00000  Uiso   1.00
H816   H     0.26953   0.50583   0.83423   0.00000  Uiso   1.00
H817   H     0.27618   0.55624   0.90492   0.00000  Uiso   1.00
H818   H     0.30146   0.52947   0.97854   0.00000  Uiso   1.00
H819   H     0.13487   0.51409   0.59070   0.00000  Uiso   1.00
N820   N     0.04760   0.50001   0.75001   0.00000  Uiso   1.00
N821   N     0.28573   0.49998   0.75000   0.00000  Uiso   1.00
O822   O     0.12846   0.56108   0.75000   0.00000  Uiso   1.00
O823   O     0.20490   0.56107   0.75000   0.00000  Uiso   1.00
O824   O     0.10947   0.50000   0.82681   0.00000  Uiso   1.00
O825   O     0.18591   0.49999   0.82681   0.00000  Uiso   1.00
O826   O     0.12843   0.43893   0.74999   0.00000  Uiso   1.00
O827   O     0.20488   0.43892   0.74999   0.00000  Uiso   1.00
O828   O     0.14742   0.50001   0.67319   0.00000  Uiso   1.00
O829   O     0.22387   0.50000   0.67319   0.00000  Uiso   1.00
O830   O     0.31801   0.47331   0.56291   0.00000  Uiso   1.00
Zn831  Zn    0.11562   0.50001   0.75000   0.00000  Uiso   1.00
Zn832  Zn    0.21771   0.49999   0.75000   0.00000  Uiso   1.00
C833   C     0.50000   0.57985   0.75007   0.00000  Uiso   1.00
C834   C     0.45939   0.52252   0.90646   0.00000  Uiso   1.00
C835   C     0.53828   0.64405   0.71198   0.00000  Uiso   1.00
C836   C     0.47449   0.50637   0.85083   0.00000  Uiso   1.00
C837   C     0.53880   0.35396   0.70894   0.00000  Uiso   1.00
C838   C     0.50117   0.37585   0.74561   0.00000  Uiso   1.00
C839   C     0.46316   0.35515   0.78177   0.00000  Uiso   1.00
C840   C     0.46257   0.64558   0.78300   0.00000  Uiso   1.00
C841   C     0.50042   0.62389   0.74869   0.00000  Uiso   1.00
C842   C     0.65532   0.49269   0.70394   0.00000  Uiso   1.00
C843   C     0.36971   0.49312   0.70372   0.00000  Uiso   1.00
C844   C     0.47901   0.53540   0.98846   0.00000  Uiso   1.00
C845   C     0.34467   0.50518   0.79663   0.00000  Uiso   1.00
C846   C     0.63039   0.50443   0.79660   0.00000  Uiso   1.00
C847   C     0.50060   0.42013   0.74792   0.00000  Uiso   1.00
C848   C     0.52582   0.50166   0.64782   0.00000  Uiso   1.00
C849   C     0.59850   0.52710   0.50374   0.00000  Uiso   1.00
C850   C     0.54035   0.51071   0.58963   0.00000  Uiso   1.00
C851   C     0.41122   0.52541   0.93541   0.00000  Uiso   1.00
C852   C     0.39748   0.53680   0.98950   0.00000  Uiso   1.00
C853   C     0.43059   0.53866   0.51707   0.00000  Uiso   1.00
C854   C     0.62741   0.50469   0.57765   0.00000  Uiso   1.00
C855   C     0.49256   0.53541   0.93193   0.00000  Uiso   1.00
C856   C     0.57765   0.37500   0.66455   0.00000  Uiso   1.00
C857   C     0.55885   0.39114   0.62005   0.00000  Uiso   1.00
C858   C     0.51472   0.53144   0.51325   0.00000  Uiso   1.00
C859   C     0.56248   0.53616   0.98186   0.00000  Uiso   1.00
C860   C     0.57350   0.54882   0.92833   0.00000  Uiso   1.00
C861   C     0.53849   0.54862   0.90342   0.00000  Uiso   1.00
C862   C     0.50443   0.51897   0.56679   0.00000  Uiso   1.00
C863   C     0.58795   0.51396   0.55716   0.00000  Uiso   1.00
H864   H     0.43436   0.37226   0.80955   0.00000  Uiso   1.00
H865   H     0.38438   0.51971   0.91619   0.00000  Uiso   1.00
H866   H     0.41798   0.54471   0.55984   0.00000  Uiso   1.00
H867   H     0.36117   0.54327   0.51057   0.00000  Uiso   1.00
H868   H     0.54765   0.55835   0.86182   0.00000  Uiso   1.00
H869   H     0.56635   0.62587   0.68463   0.00000  Uiso   1.00
H870   H     0.63606   0.52671   0.60475   0.00000  Uiso   1.00
H871   H     0.52992   0.41401   0.63610   0.00000  Uiso   1.00
H872   H     0.58770   0.40676   0.58841   0.00000  Uiso   1.00
H873   H     0.54533   0.36462   0.60154   0.00000  Uiso   1.00
H874   H     0.59444   0.40077   0.68045   0.00000  Uiso   1.00
H875   H     0.43332   0.62933   0.81123   0.00000  Uiso   1.00
H876   H     0.60655   0.35242   0.64602   0.00000  Uiso   1.00
H877   H     0.64758   0.48501   0.66759   0.00000  Uiso   1.00
H878   H     0.39741   0.48721   0.66648   0.00000  Uiso   1.00
H879   H     0.35224   0.50916   0.83423   0.00000  Uiso   1.00
H880   H     0.60287   0.50583   0.83423   0.00000  Uiso   1.00
H881   H     0.60951   0.55624   0.90492   0.00000  Uiso   1.00
H882   H     0.63480   0.52947   0.97854   0.00000  Uiso   1.00
H883   H     0.46821   0.51409   0.59070   0.00000  Uiso   1.00
N884   N     0.38093   0.50001   0.75001   0.00000  Uiso   1.00
N885   N     0.61906   0.49998   0.75000   0.00000  Uiso   1.00
O886   O     0.46179   0.56108   0.75000   0.00000  Uiso   1.00
O887   O     0.53823   0.56107   0.75000   0.00000  Uiso   1.00
O888   O     0.44280   0.50000   0.82681   0.00000  Uiso   1.00
O889   O     0.51924   0.49999   0.82681   0.00000  Uiso   1.00
O890   O     0.46177   0.43893   0.74999   0.00000  Uiso   1.00
O891   O     0.53821   0.43892   0.74999   0.00000  Uiso   1.00
O892   O     0.48076   0.50001   0.67319   0.00000  Uiso   1.00
O893   O     0.55720   0.50000   0.67319   0.00000  Uiso   1.00
O894   O     0.65134   0.47331   0.56291   0.00000  Uiso   1.00
Zn895  Zn    0.44896   0.50001   0.75000   0.00000  Uiso   1.00
Zn896  Zn    0.55104   0.49999   0.75000   0.00000  Uiso   1.00
C897   C     0.83333   0.57985   0.75007   0.00000  Uiso   1.00
C898   C     0.79273   0.52252   0.90646   0.00000  Uiso   1.00
C899   C     0.87161   0.64405   0.71198   0.00000  Uiso   1.00
C900   C     0.80782   0.50637   0.85083   0.00000  Uiso   1.00
C901   C     0.87213   0.35396   0.70894   0.00000  Uiso   1.00
C902   C     0.83451   0.37585   0.74561   0.00000  Uiso   1.00
C903   C     0.79649   0.35515   0.78177   0.00000  Uiso   1.00
C904   C     0.79591   0.64558   0.78300   0.00000  Uiso   1.00
C905   C     0.83375   0.62389   0.74869   0.00000  Uiso   1.00
C906   C     0.98866   0.49269   0.70394   0.00000  Uiso   1.00
C907   C     0.70304   0.49312   0.70372   0.00000  Uiso   1.00
C908   C     0.81234   0.53540   0.98846   0.00000  Uiso   1.00
C909   C     0.67800   0.50518   0.79663   0.00000  Uiso   1.00
C910   C     0.96372   0.50443   0.79660   0.00000  Uiso   1.00
C911   C     0.83393   0.42013   0.74792   0.00000  Uiso   1.00
C912   C     0.85916   0.50166   0.64782   0.00000  Uiso   1.00
C913   C     0.93184   0.52710   0.50374   0.00000  Uiso   1.00
C914   C     0.87369   0.51071   0.58963   0.00000  Uiso   1.00
C915   C     0.74456   0.52541   0.93541   0.00000  Uiso   1.00
C916   C     0.73081   0.53680   0.98950   0.00000  Uiso   1.00
C917   C     0.76393   0.53866   0.51707   0.00000  Uiso   1.00
C918   C     0.96074   0.50469   0.57765   0.00000  Uiso   1.00
C919   C     0.82590   0.53541   0.93193   0.00000  Uiso   1.00
C920   C     0.91099   0.37500   0.66455   0.00000  Uiso   1.00
C921   C     0.89219   0.39114   0.62005   0.00000  Uiso   1.00
C922   C     0.84805   0.53144   0.51325   0.00000  Uiso   1.00
C923   C     0.89581   0.53616   0.98186   0.00000  Uiso   1.00
C924   C     0.90684   0.54882   0.92833   0.00000  Uiso   1.00
C925   C     0.87182   0.54862   0.90342   0.00000  Uiso   1.00
C926   C     0.83777   0.51897   0.56679   0.00000  Uiso   1.00
C927   C     0.92128   0.51396   0.55716   0.00000  Uiso   1.00
H928   H     0.76770   0.37226   0.80955   0.00000  Uiso   1.00
H929   H     0.71772   0.51971   0.91619   0.00000  Uiso   1.00
H930   H     0.75132   0.54471   0.55984   0.00000  Uiso   1.00
H931   H     0.69451   0.54327   0.51057   0.00000  Uiso   1.00
H932   H     0.88099   0.55835   0.86182   0.00000  Uiso   1.00
H933   H     0.89969   0.62587   0.68463   0.00000  Uiso   1.00
H934   H     0.96939   0.52671   0.60475   0.00000  Uiso   1.00
H935   H     0.86325   0.41401   0.63610   0.00000  Uiso   1.00
H936   H     0.92103   0.40676   0.58841   0.00000  Uiso   1.00
H937   H     0.87866   0.36462   0.60154   0.00000  Uiso   1.00
H938   H     0.92777   0.40077   0.68045   0.00000  Uiso   1.00
H939   H     0.76665   0.62933   0.81123   0.00000  Uiso   1.00
H940   H     0.93988   0.35242   0.64602   0.00000  Uiso   1.00
H941   H     0.98091   0.48501   0.66759   0.00000  Uiso   1.00
H942   H     0.73074   0.48721   0.66648   0.00000  Uiso   1.00
H943   H     0.68557   0.50916   0.83423   0.00000  Uiso   1.00
H944   H     0.93620   0.50583   0.83423   0.00000  Uiso   1.00
H945   H     0.94284   0.55624   0.90492   0.00000  Uiso   1.00
H946   H     0.96813   0.52947   0.97854   0.00000  Uiso   1.00
H947   H     0.80154   0.51409   0.59070   0.00000  Uiso   1.00
N948   N     0.71426   0.50001   0.75001   0.00000  Uiso   1.00
N949   N     0.95239   0.49998   0.75000   0.00000  Uiso   1.00
O950   O     0.79512   0.56108   0.75000   0.00000  Uiso   1.00
O951   O     0.87157   0.56107   0.75000   0.00000  Uiso   1.00
O952   O     0.77613   0.50000   0.82681   0.00000  Uiso   1.00
O953   O     0.85258   0.49999   0.82681   0.00000  Uiso   1.00
O954   O     0.79510   0.43893   0.74999   0.00000  Uiso   1.00
O955   O     0.87154   0.43892   0.74999   0.00000  Uiso   1.00
O956   O     0.81409   0.50001   0.67319   0.00000  Uiso   1.00
O957   O     0.89053   0.50000   0.67319   0.00000  Uiso   1.00
O958   O     0.98468   0.47331   0.56291   0.00000  Uiso   1.00
Zn959  Zn    0.78229   0.50001   0.75000   0.00000  Uiso   1.00
Zn960  Zn    0.88438   0.49999   0.75000   0.00000  Uiso   1.00
C961   C     0.16666   0.91318   0.75007   0.00000  Uiso   1.00
C962   C     0.12606   0.85585   0.90646   0.00000  Uiso   1.00
C963   C     0.20495   0.97738   0.71198   0.00000  Uiso   1.00
C964   C     0.14115   0.83970   0.85083   0.00000  Uiso   1.00
C965   C     0.20546   0.68730   0.70894   0.00000  Uiso   1.00
C966   C     0.16784   0.70919   0.74561   0.00000  Uiso   1.00
C967   C     0.12983   0.68848   0.78177   0.00000  Uiso   1.00
C968   C     0.12924   0.97891   0.78300   0.00000  Uiso   1.00
C969   C     0.16708   0.95723   0.74869   0.00000  Uiso   1.00
C970   C     0.32199   0.82602   0.70394   0.00000  Uiso   1.00
C971   C     0.03638   0.82645   0.70372   0.00000  Uiso   1.00
C972   C     0.14567   0.86873   0.98846   0.00000  Uiso   1.00
C973   C     0.01134   0.83851   0.79663   0.00000  Uiso   1.00
C974   C     0.29706   0.83777   0.79660   0.00000  Uiso   1.00
C975   C     0.16727   0.75347   0.74792   0.00000  Uiso   1.00
C976   C     0.19249   0.83499   0.64782   0.00000  Uiso   1.00
C977   C     0.26517   0.86043   0.50374   0.00000  Uiso   1.00
C978   C     0.20702   0.84404   0.58963   0.00000  Uiso   1.00
C979   C     0.07789   0.85874   0.93541   0.00000  Uiso   1.00
C980   C     0.06414   0.87013   0.98950   0.00000  Uiso   1.00
C981   C     0.09726   0.87199   0.51707   0.00000  Uiso   1.00
C982   C     0.29407   0.83802   0.57765   0.00000  Uiso   1.00
C983   C     0.15923   0.86874   0.93193   0.00000  Uiso   1.00
C984   C     0.24432   0.70834   0.66455   0.00000  Uiso   1.00
C985   C     0.22552   0.72447   0.62005   0.00000  Uiso   1.00
C986   C     0.18139   0.86477   0.51325   0.00000  Uiso   1.00
C987   C     0.22914   0.86949   0.98186   0.00000  Uiso   1.00
C988   C     0.24017   0.88215   0.92833   0.00000  Uiso   1.00
C989   C     0.20516   0.88195   0.90342   0.00000  Uiso   1.00
C990   C     0.17110   0.85230   0.56679   0.00000  Uiso   1.00
C991   C     0.25462   0.84730   0.55716   0.00000  Uiso   1.00
H992   H     0.10103   0.70559   0.80955   0.00000  Uiso   1.00
H993   H     0.05105   0.85305   0.91619   0.00000  Uiso   1.00
H994   H     0.08465   0.87804   0.55984   0.00000  Uiso   1.00
H995   H     0.02784   0.87660   0.51057   0.00000  Uiso   1.00
H996   H     0.21432   0.89168   0.86182   0.00000  Uiso   1.00
H997   H     0.23302   0.95921   0.68463   0.00000  Uiso   1.00
H998   H     0.30272   0.86005   0.60475   0.00000  Uiso   1.00
H999   H     0.19658   0.74735   0.63610   0.00000  Uiso   1.00
H1000  H     0.25436   0.74009   0.58841   0.00000  Uiso   1.00
H1001  H     0.21199   0.69796   0.60154   0.00000  Uiso   1.00
H1002  H     0.26111   0.73410   0.68045   0.00000  Uiso   1.00
H1003  H     0.09999   0.96266   0.81123   0.00000  Uiso   1.00
H1004  H     0.27321   0.68576   0.64602   0.00000  Uiso   1.00
H1005  H     0.31424   0.81834   0.66759   0.00000  Uiso   1.00
H1006  H     0.06408   0.82054   0.66648   0.00000  Uiso   1.00
H1007  H     0.01891   0.84250   0.83423   0.00000  Uiso   1.00
H1008  H     0.26953   0.83916   0.83423   0.00000  Uiso   1.00
H1009  H     0.27618   0.88958   0.90492   0.00000  Uiso   1.00
H1010  H     0.30146   0.86280   0.97854   0.00000  Uiso   1.00
H1011  H     0.13487   0.84743   0.59070   0.00000  Uiso   1.00
N1012  N     0.04760   0.83334   0.75001   0.00000  Uiso   1.00
N1013  N     0.28573   0.83331   0.75000   0.00000  Uiso   1.00
O1014  O     0.12846   0.89442   0.75000   0.00000  Uiso   1.00
O1015  O     0.20490   0.89441   0.75000   0.00000  Uiso   1.00
O1016  O     0.10947   0.83333   0.82681   0.00000  Uiso   1.00
O1017  O     0.18591   0.83332   0.82681   0.00000  Uiso   1.00
O1018  O     0.12843   0.77226   0.74999   0.00000  Uiso   1.00
O1019  O     0.20488   0.77225   0.74999   0.00000  Uiso   1.00
O1020  O     0.14742   0.83335   0.67319   0.00000  Uiso   1.00
O1021  O     0.22387   0.83334   0.67319   0.00000  Uiso   1.00
O1022  O     0.31801   0.80664   0.56291   0.00000  Uiso   1.00
Zn1023 Zn    0.11562   0.83334   0.75000   0.00000  Uiso   1.00
Zn1024 Zn    0.21771   0.83333   0.75000   0.00000  Uiso   1.00
C1025  C     0.50000   0.91318   0.75007   0.00000  Uiso   1.00
C1026  C     0.45939   0.85585   0.90646   0.00000  Uiso   1.00
C1027  C     0.53828   0.97738   0.71198   0.00000  Uiso   1.00
C1028  C     0.47449   0.83970   0.85083   0.00000  Uiso   1.00
C1029  C     0.53880   0.68730   0.70894   0.00000  Uiso   1.00
C1030  C     0.50117   0.70919   0.74561   0.00000  Uiso   1.00
C1031  C     0.46316   0.68848   0.78177   0.00000  Uiso   1.00
C1032  C     0.46257   0.97891   0.78300   0.00000  Uiso   1.00
C1033  C     0.50042   0.95723   0.74869   0.00000  Uiso   1.00
C1034  C     0.65532   0.82602   0.70394   0.00000  Uiso   1.00
C1035  C     0.36971   0.82645   0.70372   0.00000  Uiso   1.00
C1036  C     0.47901   0.86873   0.98846   0.00000  Uiso   1.00
C1037  C     0.34467   0.83851   0.79663   0.00000  Uiso   1.00
C1038  C     0.63039   0.83777   0.79660   0.00000  Uiso   1.00
C1039  C     0.50060   0.75347   0.74792   0.00000  Uiso   1.00
C1040  C     0.52582   0.83499   0.64782   0.00000  Uiso   1.00
C1041  C     0.59850   0.86043   0.50374   0.00000  Uiso   1.00
C1042  C     0.54035   0.84404   0.58963   0.00000  Uiso   1.00
C1043  C     0.41122   0.85874   0.93541   0.00000  Uiso   1.00
C1044  C     0.39748   0.87013   0.98950   0.00000  Uiso   1.00
C1045  C     0.43059   0.87199   0.51707   0.00000  Uiso   1.00
C1046  C     0.62741   0.83802   0.57765   0.00000  Uiso   1.00
C1047  C     0.49256   0.86874   0.93193   0.00000  Uiso   1.00
C1048  C     0.57765   0.70834   0.66455   0.00000  Uiso   1.00
C1049  C     0.55885   0.72447   0.62005   0.00000  Uiso   1.00
C1050  C     0.51472   0.86477   0.51325   0.00000  Uiso   1.00
C1051  C     0.56248   0.86949   0.98186   0.00000  Uiso   1.00
C1052  C     0.57350   0.88215   0.92833   0.00000  Uiso   1.00
C1053  C     0.53849   0.88195   0.90342   0.00000  Uiso   1.00
C1054  C     0.50443   0.85230   0.56679   0.00000  Uiso   1.00
C1055  C     0.58795   0.84730   0.55716   0.00000  Uiso   1.00
H1056  H     0.43436   0.70559   0.80955   0.00000  Uiso   1.00
H1057  H     0.38438   0.85305   0.91619   0.00000  Uiso   1.00
H1058  H     0.41798   0.87804   0.55984   0.00000  Uiso   1.00
H1059  H     0.36117   0.87660   0.51057   0.00000  Uiso   1.00
H1060  H     0.54765   0.89168   0.86182   0.00000  Uiso   1.00
H1061  H     0.56635   0.95921   0.68463   0.00000  Uiso   1.00
H1062  H     0.63606   0.86005   0.60475   0.00000  Uiso   1.00
H1063  H     0.52992   0.74735   0.63610   0.00000  Uiso   1.00
H1064  H     0.58770   0.74009   0.58841   0.00000  Uiso   1.00
H1065  H     0.54533   0.69796   0.60154   0.00000  Uiso   1.00
H1066  H     0.59444   0.73410   0.68045   0.00000  Uiso   1.00
H1067  H     0.43332   0.96266   0.81123   0.00000  Uiso   1.00
H1068  H     0.60655   0.68576   0.64602   0.00000  Uiso   1.00
H1069  H     0.64758   0.81834   0.66759   0.00000  Uiso   1.00
H1070  H     0.39741   0.82054   0.66648   0.00000  Uiso   1.00
H1071  H     0.35224   0.84250   0.83423   0.00000  Uiso   1.00
H1072  H     0.60287   0.83916   0.83423   0.00000  Uiso   1.00
H1073  H     0.60951   0.88958   0.90492   0.00000  Uiso   1.00
H1074  H     0.63480   0.86280   0.97854   0.00000  Uiso   1.00
H1075  H     0.46821   0.84743   0.59070   0.00000  Uiso   1.00
N1076  N     0.38093   0.83334   0.75001   0.00000  Uiso   1.00
N1077  N     0.61906   0.83331   0.75000   0.00000  Uiso   1.00
O1078  O     0.46179   0.89442   0.75000   0.00000  Uiso   1.00
O1079  O     0.53823   0.89441   0.75000   0.00000  Uiso   1.00
O1080  O     0.44280   0.83333   0.82681   0.00000  Uiso   1.00
O1081  O     0.51924   0.83332   0.82681   0.00000  Uiso   1.00
O1082  O     0.46177   0.77226   0.74999   0.00000  Uiso   1.00
O1083  O     0.53821   0.77225   0.74999   0.00000  Uiso   1.00
O1084  O     0.48076   0.83335   0.67319   0.00000  Uiso   1.00
O1085  O     0.55720   0.83334   0.67319   0.00000  Uiso   1.00
O1086  O     0.65134   0.80664   0.56291   0.00000  Uiso   1.00
Zn1087 Zn    0.44896   0.83334   0.75000   0.00000  Uiso   1.00
Zn1088 Zn    0.55104   0.83333   0.75000   0.00000  Uiso   1.00
C1089  C     0.83333   0.91318   0.75007   0.00000  Uiso   1.00
C1090  C     0.79273   0.85585   0.90646   0.00000  Uiso   1.00
C1091  C     0.87161   0.97738   0.71198   0.00000  Uiso   1.00
C1092  C     0.80782   0.83970   0.85083   0.00000  Uiso   1.00
C1093  C     0.87213   0.68730   0.70894   0.00000  Uiso   1.00
C1094  C     0.83451   0.70919   0.74561   0.00000  Uiso   1.00
C1095  C     0.79649   0.68848   0.78177   0.00000  Uiso   1.00
C1096  C     0.79591   0.97891   0.78300   0.00000  Uiso   1.00
C1097  C     0.83375   0.95723   0.74869   0.00000  Uiso   1.00
C1098  C     0.98866   0.82602   0.70394   0.00000  Uiso   1.00
C1099  C     0.70304   0.82645   0.70372   0.00000  Uiso   1.00
C1100  C     0.81234   0.86873   0.98846   0.00000  Uiso   1.00
C1101  C     0.67800   0.83851   0.79663   0.00000  Uiso   1.00
C1102  C     0.96372   0.83777   0.79660   0.00000  Uiso   1.00
C1103  C     0.83393   0.75347   0.74792   0.00000  Uiso   1.00
C1104  C     0.85916   0.83499   0.64782   0.00000  Uiso   1.00
C1105  C     0.93184   0.86043   0.50374   0.00000  Uiso   1.00
C1106  C     0.87369   0.84404   0.58963   0.00000  Uiso   1.00
C1107  C     0.74456   0.85874   0.93541   0.00000  Uiso   1.00
C1108  C     0.73081   0.87013   0.98950   0.00000  Uiso   1.00
C1109  C     0.76393   0.87199   0.51707   0.00000  Uiso   1.00
C1110  C     0.96074   0.83802   0.57765   0.00000  Uiso   1.00
C1111  C     0.82590   0.86874   0.93193   0.00000  Uiso   1.00
C1112  C     0.91099   0.70834   0.66455   0.00000  Uiso   1.00
C1113  C     0.89219   0.72447   0.62005   0.00000  Uiso   1.00
C1114  C     0.84805   0.86477   0.51325   0.00000  Uiso   1.00
C1115  C     0.89581   0.86949   0.98186   0.00000  Uiso   1.00
C1116  C     0.90684   0.88215   0.92833   0.00000  Uiso   1.00
C1117  C     0.87182   0.88195   0.90342   0.00000  Uiso   1.00
C1118  C     0.83777   0.85230   0.56679   0.00000  Uiso   1.00
C1119  C     0.92128   0.84730   0.55716   0.00000  Uiso   1.00
H1120  H     0.76770   0.70559   0.80955   0.00000  Uiso   1.00
H1121  H     0.71772   0.85305   0.91619   0.00000  Uiso   1.00
H1122  H     0.75132   0.87804   0.55984   0.00000  Uiso   1.00
H1123  H     0.69451   0.87660   0.51057   0.00000  Uiso   1.00
H1124  H     0.88099   0.89168   0.86182   0.00000  Uiso   1.00
H1125  H     0.89969   0.95921   0.68463   0.00000  Uiso   1.00
H1126  H     0.96939   0.86005   0.60475   0.00000  Uiso   1.00
H1127  H     0.86325   0.74735   0.63610   0.00000  Uiso   1.00
H1128  H     0.92103   0.74009   0.58841   0.00000  Uiso   1.00
H1129  H     0.87866   0.69796   0.60154   0.00000  Uiso   1.00
H1130  H     0.92777   0.73410   0.68045   0.00000  Uiso   1.00
H1131  H     0.76665   0.96266   0.81123   0.00000  Uiso   1.00
H1132  H     0.93988   0.68576   0.64602   0.00000  Uiso   1.00
H1133  H     0.98091   0.81834   0.66759   0.00000  Uiso   1.00
H1134  H     0.73074   0.82054   0.66648   0.00000  Uiso   1.00
H1135  H     0.68557   0.84250   0.83423   0.00000  Uiso   1.00
H1136  H     0.93620   0.83916   0.83423   0.00000  Uiso   1.00
H1137  H     0.94284   0.88958   0.90492   0.00000  Uiso   1.00
H1138  H     0.96813   0.86280   0.97854   0.00000  Uiso   1.00
H1139  H     0.80154   0.84743   0.59070   0.00000  Uiso   1.00
N1140  N     0.71426   0.83334   0.75001   0.00000  Uiso   1.00
N1141  N     0.95239   0.83331   0.75000   0.00000  Uiso   1.00
O1142  O     0.79512   0.89442   0.75000   0.00000  Uiso   1.00
O1143  O     0.87157   0.89441   0.75000   0.00000  Uiso   1.00
O1144  O     0.77613   0.83333   0.82681   0.00000  Uiso   1.00
O1145  O     0.85258   0.83332   0.82681   0.00000  Uiso   1.00
O1146  O     0.79510   0.77226   0.74999   0.00000  Uiso   1.00
O1147  O     0.87154   0.77225   0.74999   0.00000  Uiso   1.00
O1148  O     0.81409   0.83335   0.67319   0.00000  Uiso   1.00
O1149  O     0.89053   0.83334   0.67319   0.00000  Uiso   1.00
O1150  O     0.98468   0.80664   0.56291   0.00000  Uiso   1.00
Zn1151 Zn    0.78229   0.83334   0.75000   0.00000  Uiso   1.00
Zn1152 Zn    0.88438   0.83333   0.75000   0.00000  Uiso   1.00
loop_
_geom_bond_atom_site_label_1
_geom_bond_atom_site_label_2
_geom_bond_distance
_geom_bond_site_symmetry_2
_ccdc_geom_bond_type
C1     O54     1.286   .     A
C1     O55     1.286   .     A
C1     C9      1.406   .     S
C2     C4      1.476   .     S
C2     C23     1.412   .     A
C2     C19     1.403   .     A
C3     C9      1.392   .     A
C3     H37     1.085   .     S
C3     C197    1.382   .     S
C4     O57     1.302   .     A
C4     O56     1.300   .     A
C5     C24     1.519   .     S
C5     C6      1.414   .     A
C5     C387    1.382   1_545 S
C6     C7      1.397   .     A
C6     C15     1.414   .     S
C7     H32     1.084   .     S
C7     C392    1.370   1_545 S
C8     H43     1.084   .     S
C8     C9      1.389   .     A
C8     C199    1.370   .     S
C10    H45     1.072   .     S
C10    N53     1.366   .     A
C10    C75     1.419   .     S
C11    N52     1.368   .     A
C11    H46     1.080   .     S
C11    C138    1.419   1_455 S
C12    C23     1.406   .     A
C12    C597    1.408   .     S
C12    C602    1.411   .     S
C13    N52     1.366   .     A
C13    H47     1.081   .     S
C13    C142    1.418   1_455 S
C14    N53     1.367   .     A
C14    H48     1.069   .     S
C14    C77     1.418   .     S
C15    O58     1.288   .     A
C15    O59     1.286   .     A
C16    C18     1.475   .     S
C16    O61     1.303   .     A
C16    O60     1.301   .     A
C17    C31     1.397   .     A
C17    C603    1.392   1_554 S
C17    H626    1.081   1_554 S
C18    C30     1.401   .     A
C18    C31     1.413   .     A
C19    C20     1.393   .     A
C19    H33     1.082   .     S
C20    C597    1.390   .     S
C20    H611    1.071   .     S
C21    H34     1.081   .     S
C21    C596    1.390   1_554 S
C21    C588    1.408   1_554 S
C22    O62     1.221   .     D
C22    C31     1.463   .     S
C22    H38     1.084   .     S
C23    C29     1.405   .     A
C24    C25     1.527   .     S
C24    H42     1.108   .     S
C24    H44     1.112   .     S
C25    H39     1.108   .     S
C25    H40     1.110   .     S
C25    H41     1.110   .     S
C26    C30     1.394   .     A
C26    C588    1.411   1_554 S
C26    C603    1.413   1_554 S
C27    C28     1.394   .     A
C27    C593    1.392   .     S
C27    C602    1.413   .     S
C28    H49     1.084   .     S
C28    C29     1.389   .     A
C29    H36     1.081   .     S
C30    H51     1.078   .     S
H35    C596    1.071   1_554 S
H50    C593    1.081   .     S
N52    Zn63    2.025   .     S
N53    Zn64    2.025   .     S
O54    Zn63    1.987   .     S
O55    Zn64    1.986   .     S
O56    Zn63    1.958   .     S
O57    Zn64    1.937   .     S
O58    Zn63    1.986   .     S
O59    Zn64    1.987   .     S
O60    Zn63    1.937   .     S
O61    Zn64    1.958   .     S
C65    O118    1.286   .     A
C65    O119    1.286   .     A
C65    C73     1.406   .     S
C66    C68     1.476   .     S
C66    C87     1.412   .     A
C66    C83     1.403   .     A
C67    C73     1.392   .     A
C67    H101    1.085   .     S
C67    C261    1.382   .     S
C68    O121    1.302   .     A
C68    O120    1.300   .     A
C69    C88     1.519   .     S
C69    C70     1.414   .     A
C69    C451    1.382   1_545 S
C70    C71     1.397   .     A
C70    C79     1.414   .     S
C71    H96     1.084   .     S
C71    C456    1.370   1_545 S
C72    H107    1.084   .     S
C72    C73     1.389   .     A
C72    C263    1.370   .     S
C74    H109    1.072   .     S
C74    N117    1.366   .     A
C74    C139    1.419   .     S
C75    N116    1.368   .     A
C75    H110    1.080   .     S
C76    C87     1.406   .     A
C76    C661    1.408   .     S
C76    C666    1.411   .     S
C77    N116    1.366   .     A
C77    H111    1.081   .     S
C78    N117    1.367   .     A
C78    H112    1.069   .     S
C78    C141    1.418   .     S
C79    O122    1.288   .     A
C79    O123    1.286   .     A
C80    C82     1.475   .     S
C80    O125    1.303   .     A
C80    O124    1.301   .     A
C81    C95     1.397   .     A
C81    C667    1.392   1_554 S
C81    H690    1.081   1_554 S
C82    C94     1.401   .     A
C82    C95     1.413   .     A
C83    C84     1.393   .     A
C83    H97     1.082   .     S
C84    C661    1.390   .     S
C84    H675    1.071   .     S
C85    H98     1.081   .     S
C85    C660    1.390   1_554 S
C85    C652    1.408   1_554 S
C86    O126    1.221   .     D
C86    C95     1.463   .     S
C86    H102    1.084   .     S
C87    C93     1.405   .     A
C88    C89     1.527   .     S
C88    H106    1.108   .     S
C88    H108    1.112   .     S
C89    H103    1.108   .     S
C89    H104    1.110   .     S
C89    H105    1.110   .     S
C90    C94     1.394   .     A
C90    C652    1.411   1_554 S
C90    C667    1.413   1_554 S
C91    C92     1.394   .     A
C91    C657    1.392   .     S
C91    C666    1.413   .     S
C92    H113    1.084   .     S
C92    C93     1.389   .     A
C93    H100    1.081   .     S
C94    H115    1.078   .     S
H99    C660    1.071   1_554 S
H114   C657    1.081   .     S
N116   Zn127   2.025   .     S
N117   Zn128   2.025   .     S
O118   Zn127   1.987   .     S
O119   Zn128   1.986   .     S
O120   Zn127   1.958   .     S
O121   Zn128   1.937   .     S
O122   Zn127   1.986   .     S
O123   Zn128   1.987   .     S
O124   Zn127   1.937   .     S
O125   Zn128   1.958   .     S
C129   O182    1.286   .     A
C129   O183    1.286   .     A
C129   C137    1.406   .     S
C130   C132    1.476   .     S
C130   C151    1.412   .     A
C130   C147    1.403   .     A
C131   C137    1.392   .     A
C131   H165    1.085   .     S
C131   C325    1.382   .     S
C132   O185    1.302   .     A
C132   O184    1.300   .     A
C133   C152    1.519   .     S
C133   C134    1.414   .     A
C133   C515    1.382   1_545 S
C134   C135    1.397   .     A
C134   C143    1.414   .     S
C135   H160    1.084   .     S
C135   C520    1.370   1_545 S
C136   H171    1.084   .     S
C136   C137    1.389   .     A
C136   C327    1.370   .     S
C138   H173    1.072   .     S
C138   N181    1.366   .     A
C138   C11     1.419   1_655 S
C139   N180    1.368   .     A
C139   H174    1.080   .     S
C140   C151    1.406   .     A
C140   C725    1.408   .     S
C140   C730    1.411   .     S
C141   N180    1.366   .     A
C141   H175    1.081   .     S
C142   N181    1.367   .     A
C142   H176    1.069   .     S
C142   C13     1.418   1_655 S
C143   O186    1.288   .     A
C143   O187    1.286   .     A
C144   C146    1.475   .     S
C144   O189    1.303   .     A
C144   O188    1.301   .     A
C145   C159    1.397   .     A
C145   C731    1.392   1_554 S
C145   H754    1.081   1_554 S
C146   C158    1.401   .     A
C146   C159    1.413   .     A
C147   C148    1.393   .     A
C147   H161    1.082   .     S
C148   C725    1.390   .     S
C148   H739    1.071   .     S
C149   H162    1.081   .     S
C149   C724    1.390   1_554 S
C149   C716    1.408   1_554 S
C150   O190    1.221   .     D
C150   C159    1.463   .     S
C150   H166    1.084   .     S
C151   C157    1.405   .     A
C152   C153    1.527   .     S
C152   H170    1.108   .     S
C152   H172    1.112   .     S
C153   H167    1.108   .     S
C153   H168    1.110   .     S
C153   H169    1.110   .     S
C154   C158    1.394   .     A
C154   C716    1.411   1_554 S
C154   C731    1.413   1_554 S
C155   C156    1.394   .     A
C155   C721    1.392   .     S
C155   C730    1.413   .     S
C156   H177    1.084   .     S
C156   C157    1.389   .     A
C157   H164    1.081   .     S
C158   H179    1.078   .     S
H163   C724    1.071   1_554 S
H178   C721    1.081   .     S
N180   Zn191   2.025   .     S
N181   Zn192   2.025   .     S
O182   Zn191   1.987   .     S
O183   Zn192   1.986   .     S
O184   Zn191   1.958   .     S
O185   Zn192   1.937   .     S
O186   Zn191   1.986   .     S
O187   Zn192   1.987   .     S
O188   Zn191   1.937   .     S
O189   Zn192   1.958   .     S
C193   O246    1.286   .     A
C193   O247    1.286   .     A
C193   C201    1.406   .     S
C194   C196    1.476   .     S
C194   C215    1.412   .     A
C194   C211    1.403   .     A
C195   C201    1.392   .     A
C195   H229    1.085   .     S
C195   C389    1.382   .     S
C196   O249    1.302   .     A
C196   O248    1.300   .     A
C197   C216    1.519   .     S
C197   C198    1.414   .     A
C198   C199    1.397   .     A
C198   C207    1.414   .     S
C199   H224    1.084   .     S
C200   H235    1.084   .     S
C200   C201    1.389   .     A
C200   C391    1.370   .     S
C202   H237    1.072   .     S
C202   N245    1.366   .     A
C202   C267    1.419   .     S
C203   N244    1.368   .     A
C203   H238    1.080   .     S
C203   C330    1.419   1_455 S
C204   C215    1.406   .     A
C204   C789    1.408   .     S
C204   C794    1.411   .     S
C205   N244    1.366   .     A
C205   H239    1.081   .     S
C205   C334    1.418   1_455 S
C206   N245    1.367   .     A
C206   H240    1.069   .     S
C206   C269    1.418   .     S
C207   O250    1.288   .     A
C207   O251    1.286   .     A
C208   C210    1.475   .     S
C208   O253    1.303   .     A
C208   O252    1.301   .     A
C209   C223    1.397   .     A
C209   C795    1.392   1_554 S
C209   H818    1.081   1_554 S
C210   C222    1.401   .     A
C210   C223    1.413   .     A
C211   C212    1.393   .     A
C211   H225    1.082   .     S
C212   C789    1.390   .     S
C212   H803    1.071   .     S
C213   H226    1.081   .     S
C213   C788    1.390   1_554 S
C213   C780    1.408   1_554 S
C214   O254    1.221   .     D
C214   C223    1.463   .     S
C214   H230    1.084   .     S
C215   C221    1.405   .     A
C216   C217    1.527   .     S
C216   H234    1.108   .     S
C216   H236    1.112   .     S
C217   H231    1.108   .     S
C217   H232    1.110   .     S
C217   H233    1.110   .     S
C218   C222    1.394   .     A
C218   C780    1.411   1_554 S
C218   C795    1.413   1_554 S
C219   C220    1.394   .     A
C219   C785    1.392   .     S
C219   C794    1.413   .     S
C220   H241    1.084   .     S
C220   C221    1.389   .     A
C221   H228    1.081   .     S
C222   H243    1.078   .     S
H227   C788    1.071   1_554 S
H242   C785    1.081   .     S
N244   Zn255   2.025   .     S
N245   Zn256   2.025   .     S
O246   Zn255   1.987   .     S
O247   Zn256   1.986   .     S
O248   Zn255   1.958   .     S
O249   Zn256   1.937   .     S
O250   Zn255   1.986   .     S
O251   Zn256   1.987   .     S
O252   Zn255   1.937   .     S
O253   Zn256   1.958   .     S
C257   O310    1.286   .     A
C257   O311    1.286   .     A
C257   C265    1.406   .     S
C258   C260    1.476   .     S
C258   C279    1.412   .     A
C258   C275    1.403   .     A
C259   C265    1.392   .     A
C259   H293    1.085   .     S
C259   C453    1.382   .     S
C260   O313    1.302   .     A
C260   O312    1.300   .     A
C261   C280    1.519   .     S
C261   C262    1.414   .     A
C262   C263    1.397   .     A
C262   C271    1.414   .     S
C263   H288    1.084   .     S
C264   H299    1.084   .     S
C264   C265    1.389   .     A
C264   C455    1.370   .     S
C266   H301    1.072   .     S
C266   N309    1.366   .     A
C266   C331    1.419   .     S
C267   N308    1.368   .     A
C267   H302    1.080   .     S
C268   C279    1.406   .     A
C268   C853    1.408   .     S
C268   C858    1.411   .     S
C269   N308    1.366   .     A
C269   H303    1.081   .     S
C270   N309    1.367   .     A
C270   H304    1.069   .     S
C270   C333    1.418   .     S
C271   O314    1.288   .     A
C271   O315    1.286   .     A
C272   C274    1.475   .     S
C272   O317    1.303   .     A
C272   O316    1.301   .     A
C273   C287    1.397   .     A
C273   C859    1.392   1_554 S
C273   H882    1.081   1_554 S
C274   C286    1.401   .     A
C274   C287    1.413   .     A
C275   C276    1.393   .     A
C275   H289    1.082   .     S
C276   C853    1.390   .     S
C276   H867    1.071   .     S
C277   H290    1.081   .     S
C277   C852    1.390   1_554 S
C277   C844    1.408   1_554 S
C278   O318    1.221   .     D
C278   C287    1.463   .     S
C278   H294    1.084   .     S
C279   C285    1.405   .     A
C280   C281    1.527   .     S
C280   H298    1.108   .     S
C280   H300    1.112   .     S
C281   H295    1.108   .     S
C281   H296    1.110   .     S
C281   H297    1.110   .     S
C282   C286    1.394   .     A
C282   C844    1.411   1_554 S
C282   C859    1.413   1_554 S
C283   C284    1.394   .     A
C283   C849    1.392   .     S
C283   C858    1.413   .     S
C284   H305    1.084   .     S
C284   C285    1.389   .     A
C285   H292    1.081   .     S
C286   H307    1.078   .     S
H291   C852    1.071   1_554 S
H306   C849    1.081   .     S
N308   Zn319   2.025   .     S
N309   Zn320   2.025   .     S
O310   Zn319   1.987   .     S
O311   Zn320   1.986   .     S
O312   Zn319   1.958   .     S
O313   Zn320   1.937   .     S
O314   Zn319   1.986   .     S
O315   Zn320   1.987   .     S
O316   Zn319   1.937   .     S
O317   Zn320   1.958   .     S
C321   O374    1.286   .     A
C321   O375    1.286   .     A
C321   C329    1.406   .     S
C322   C324    1.476   .     S
C322   C343    1.412   .     A
C322   C339    1.403   .     A
C323   C329    1.392   .     A
C323   H357    1.085   .     S
C323   C517    1.382   .     S
C324   O377    1.302   .     A
C324   O376    1.300   .     A
C325   C344    1.519   .     S
C325   C326    1.414   .     A
C326   C327    1.397   .     A
C326   C335    1.414   .     S
C327   H352    1.084   .     S
C328   H363    1.084   .     S
C328   C329    1.389   .     A
C328   C519    1.370   .     S
C330   H365    1.072   .     S
C330   N373    1.366   .     A
C330   C203    1.419   1_655 S
C331   N372    1.368   .     A
C331   H366    1.080   .     S
C332   C343    1.406   .     A
C332   C917    1.408   .     S
C332   C922    1.411   .     S
C333   N372    1.366   .     A
C333   H367    1.081   .     S
C334   N373    1.367   .     A
C334   H368    1.069   .     S
C334   C205    1.418   1_655 S
C335   O378    1.288   .     A
C335   O379    1.286   .     A
C336   C338    1.475   .     S
C336   O381    1.303   .     A
C336   O380    1.301   .     A
C337   C351    1.397   .     A
C337   C923    1.392   1_554 S
C337   H946    1.081   1_554 S
C338   C350    1.401   .     A
C338   C351    1.413   .     A
C339   C340    1.393   .     A
C339   H353    1.082   .     S
C340   C917    1.390   .     S
C340   H931    1.071   .     S
C341   H354    1.081   .     S
C341   C916    1.390   1_554 S
C341   C908    1.408   1_554 S
C342   O382    1.221   .     D
C342   C351    1.463   .     S
C342   H358    1.084   .     S
C343   C349    1.405   .     A
C344   C345    1.527   .     S
C344   H362    1.108   .     S
C344   H364    1.112   .     S
C345   H359    1.108   .     S
C345   H360    1.110   .     S
C345   H361    1.110   .     S
C346   C350    1.394   .     A
C346   C908    1.411   1_554 S
C346   C923    1.413   1_554 S
C347   C348    1.394   .     A
C347   C913    1.392   .     S
C347   C922    1.413   .     S
C348   H369    1.084   .     S
C348   C349    1.389   .     A
C349   H356    1.081   .     S
C350   H371    1.078   .     S
H355   C916    1.071   1_554 S
H370   C913    1.081   .     S
N372   Zn383   2.025   .     S
N373   Zn384   2.025   .     S
O374   Zn383   1.987   .     S
O375   Zn384   1.986   .     S
O376   Zn383   1.958   .     S
O377   Zn384   1.937   .     S
O378   Zn383   1.986   .     S
O379   Zn384   1.987   .     S
O380   Zn383   1.937   .     S
O381   Zn384   1.958   .     S
C385   O438    1.286   .     A
C385   O439    1.286   .     A
C385   C393    1.406   .     S
C386   C388    1.476   .     S
C386   C407    1.412   .     A
C386   C403    1.403   .     A
C387   C393    1.392   .     A
C387   H421    1.085   .     S
C387   C5      1.382   1_565 S
C388   O441    1.302   .     A
C388   O440    1.300   .     A
C389   C408    1.519   .     S
C389   C390    1.414   .     A
C390   C391    1.397   .     A
C390   C399    1.414   .     S
C391   H416    1.084   .     S
C392   H427    1.084   .     S
C392   C393    1.389   .     A
C392   C7      1.370   1_565 S
C394   H429    1.072   .     S
C394   N437    1.366   .     A
C394   C459    1.419   .     S
C395   N436    1.368   .     A
C395   H430    1.080   .     S
C395   C522    1.419   1_455 S
C396   C407    1.406   .     A
C396   C981    1.408   .     S
C396   C986    1.411   .     S
C397   N436    1.366   .     A
C397   H431    1.081   .     S
C397   C526    1.418   1_455 S
C398   N437    1.367   .     A
C398   H432    1.069   .     S
C398   C461    1.418   .     S
C399   O442    1.288   .     A
C399   O443    1.286   .     A
C400   C402    1.475   .     S
C400   O445    1.303   .     A
C400   O444    1.301   .     A
C401   C415    1.397   .     A
C401   C987    1.392   1_554 S
C401   H1010   1.081   1_554 S
C402   C414    1.401   .     A
C402   C415    1.413   .     A
C403   C404    1.393   .     A
C403   H417    1.082   .     S
C404   C981    1.390   .     S
C404   H995    1.071   .     S
C405   H418    1.081   .     S
C405   C980    1.390   1_554 S
C405   C972    1.408   1_554 S
C406   O446    1.221   .     D
C406   C415    1.463   .     S
C406   H422    1.084   .     S
C407   C413    1.405   .     A
C408   C409    1.527   .     S
C408   H426    1.108   .     S
C408   H428    1.112   .     S
C409   H423    1.108   .     S
C409   H424    1.110   .     S
C409   H425    1.110   .     S
C410   C414    1.394   .     A
C410   C972    1.411   1_554 S
C410   C987    1.413   1_554 S
C411   C412    1.394   .     A
C411   C977    1.392   .     S
C411   C986    1.413   .     S
C412   H433    1.084   .     S
C412   C413    1.389   .     A
C413   H420    1.081   .     S
C414   H435    1.078   .     S
H419   C980    1.071   1_554 S
H434   C977    1.081   .     S
N436   Zn447   2.025   .     S
N437   Zn448   2.025   .     S
O438   Zn447   1.987   .     S
O439   Zn448   1.986   .     S
O440   Zn447   1.958   .     S
O441   Zn448   1.937   .     S
O442   Zn447   1.986   .     S
O443   Zn448   1.987   .     S
O444   Zn447   1.937   .     S
O445   Zn448   1.958   .     S
C449   O502    1.286   .     A
C449   O503    1.286   .     A
C449   C457    1.406   .     S
C450   C452    1.476   .     S
C450   C471    1.412   .     A
C450   C467    1.403   .     A
C451   C457    1.392   .     A
C451   H485    1.085   .     S
C451   C69     1.382   1_565 S
C452   O505    1.302   .     A
C452   O504    1.300   .     A
C453   C472    1.519   .     S
C453   C454    1.414   .     A
C454   C455    1.397   .     A
C454   C463    1.414   .     S
C455   H480    1.084   .     S
C456   H491    1.084   .     S
C456   C457    1.389   .     A
C456   C71     1.370   1_565 S
C458   H493    1.072   .     S
C458   N501    1.366   .     A
C458   C523    1.419   .     S
C459   N500    1.368   .     A
C459   H494    1.080   .     S
C460   C471    1.406   .     A
C460   C1045   1.408   .     S
C460   C1050   1.411   .     S
C461   N500    1.366   .     A
C461   H495    1.081   .     S
C462   N501    1.367   .     A
C462   H496    1.069   .     S
C462   C525    1.418   .     S
C463   O506    1.288   .     A
C463   O507    1.286   .     A
C464   C466    1.475   .     S
C464   O509    1.303   .     A
C464   O508    1.301   .     A
C465   C479    1.397   .     A
C465   C1051   1.392   1_554 S
C465   H1074   1.081   1_554 S
C466   C478    1.401   .     A
C466   C479    1.413   .     A
C467   C468    1.393   .     A
C467   H481    1.082   .     S
C468   C1045   1.390   .     S
C468   H1059   1.071   .     S
C469   H482    1.081   .     S
C469   C1044   1.390   1_554 S
C469   C1036   1.408   1_554 S
C470   O510    1.221   .     D
C470   C479    1.463   .     S
C470   H486    1.084   .     S
C471   C477    1.405   .     A
C472   C473    1.527   .     S
C472   H490    1.108   .     S
C472   H492    1.112   .     S
C473   H487    1.108   .     S
C473   H488    1.110   .     S
C473   H489    1.110   .     S
C474   C478    1.394   .     A
C474   C1036   1.411   1_554 S
C474   C1051   1.413   1_554 S
C475   C476    1.394   .     A
C475   C1041   1.392   .     S
C475   C1050   1.413   .     S
C476   H497    1.084   .     S
C476   C477    1.389   .     A
C477   H484    1.081   .     S
C478   H499    1.078   .     S
H483   C1044   1.071   1_554 S
H498   C1041   1.081   .     S
N500   Zn511   2.025   .     S
N501   Zn512   2.025   .     S
O502   Zn511   1.987   .     S
O503   Zn512   1.986   .     S
O504   Zn511   1.958   .     S
O505   Zn512   1.937   .     S
O506   Zn511   1.986   .     S
O507   Zn512   1.987   .     S
O508   Zn511   1.937   .     S
O509   Zn512   1.958   .     S
C513   O566    1.286   .     A
C513   O567    1.286   .     A
C513   C521    1.406   .     S
C514   C516    1.476   .     S
C514   C535    1.412   .     A
C514   C531    1.403   .     A
C515   C521    1.392   .     A
C515   H549    1.085   .     S
C515   C133    1.382   1_565 S
C516   O569    1.302   .     A
C516   O568    1.300   .     A
C517   C536    1.519   .     S
C517   C518    1.414   .     A
C518   C519    1.397   .     A
C518   C527    1.414   .     S
C519   H544    1.084   .     S
C520   H555    1.084   .     S
C520   C521    1.389   .     A
C520   C135    1.370   1_565 S
C522   H557    1.072   .     S
C522   N565    1.366   .     A
C522   C395    1.419   1_655 S
C523   N564    1.368   .     A
C523   H558    1.080   .     S
C524   C535    1.406   .     A
C524   C1109   1.408   .     S
C524   C1114   1.411   .     S
C525   N564    1.366   .     A
C525   H559    1.081   .     S
C526   N565    1.367   .     A
C526   H560    1.069   .     S
C526   C397    1.418   1_655 S
C527   O570    1.288   .     A
C527   O571    1.286   .     A
C528   C530    1.475   .     S
C528   O573    1.303   .     A
C528   O572    1.301   .     A
C529   C543    1.397   .     A
C529   C1115   1.392   1_554 S
C529   H1138   1.081   1_554 S
C530   C542    1.401   .     A
C530   C543    1.413   .     A
C531   C532    1.393   .     A
C531   H545    1.082   .     S
C532   C1109   1.390   .     S
C532   H1123   1.071   .     S
C533   H546    1.081   .     S
C533   C1108   1.390   1_554 S
C533   C1100   1.408   1_554 S
C534   O574    1.221   .     D
C534   C543    1.463   .     S
C534   H550    1.084   .     S
C535   C541    1.405   .     A
C536   C537    1.527   .     S
C536   H554    1.108   .     S
C536   H556    1.112   .     S
C537   H551    1.108   .     S
C537   H552    1.110   .     S
C537   H553    1.110   .     S
C538   C542    1.394   .     A
C538   C1100   1.411   1_554 S
C538   C1115   1.413   1_554 S
C539   C540    1.394   .     A
C539   C1105   1.392   .     S
C539   C1114   1.413   .     S
C540   H561    1.084   .     S
C540   C541    1.389   .     A
C541   H548    1.081   .     S
C542   H563    1.078   .     S
H547   C1108   1.071   1_554 S
H562   C1105   1.081   .     S
N564   Zn575   2.025   .     S
N565   Zn576   2.025   .     S
O566   Zn575   1.987   .     S
O567   Zn576   1.986   .     S
O568   Zn575   1.958   .     S
O569   Zn576   1.937   .     S
O570   Zn575   1.986   .     S
O571   Zn576   1.987   .     S
O572   Zn575   1.937   .     S
O573   Zn576   1.958   .     S
C577   O630    1.286   .     A
C577   O631    1.286   .     A
C577   C585    1.406   .     S
C578   C580    1.476   .     S
C578   C599    1.412   .     A
C578   C595    1.403   .     A
C579   C585    1.392   .     A
C579   H613    1.085   .     S
C579   C773    1.382   .     S
C580   O633    1.302   .     A
C580   O632    1.300   .     A
C581   C600    1.519   .     S
C581   C582    1.414   .     A
C581   C963    1.382   1_545 S
C582   C583    1.397   .     A
C582   C591    1.414   .     S
C583   H608    1.084   .     S
C583   C968    1.370   1_545 S
C584   H619    1.084   .     S
C584   C585    1.389   .     A
C584   C775    1.370   .     S
C586   H621    1.072   .     S
C586   N629    1.366   .     A
C586   C651    1.419   .     S
C587   N628    1.368   .     A
C587   H622    1.080   .     S
C587   C714    1.419   1_455 S
C588   C599    1.406   .     A
C588   C21     1.408   1_556 S
C588   C26     1.411   1_556 S
C589   N628    1.366   .     A
C589   H623    1.081   .     S
C589   C718    1.418   1_455 S
C590   N629    1.367   .     A
C590   H624    1.069   .     S
C590   C653    1.418   .     S
C591   O634    1.288   .     A
C591   O635    1.286   .     A
C592   C594    1.475   .     S
C592   O637    1.303   .     A
C592   O636    1.301   .     A
C593   C607    1.397   .     A
C594   C606    1.401   .     A
C594   C607    1.413   .     A
C595   C596    1.393   .     A
C595   H609    1.082   .     S
C596   C21     1.390   1_556 S
C596   H35     1.071   1_556 S
C597   H610    1.081   .     S
C598   O638    1.221   .     D
C598   C607    1.463   .     S
C598   H614    1.084   .     S
C599   C605    1.405   .     A
C600   C601    1.527   .     S
C600   H618    1.108   .     S
C600   H620    1.112   .     S
C601   H615    1.108   .     S
C601   H616    1.110   .     S
C601   H617    1.110   .     S
C602   C606    1.394   .     A
C603   C604    1.394   .     A
C603   C17     1.392   1_556 S
C603   C26     1.413   1_556 S
C604   H625    1.084   .     S
C604   C605    1.389   .     A
C605   H612    1.081   .     S
C606   H627    1.078   .     S
H626   C17     1.081   1_556 S
N628   Zn639   2.025   .     S
N629   Zn640   2.025   .     S
O630   Zn639   1.987   .     S
O631   Zn640   1.986   .     S
O632   Zn639   1.958   .     S
O633   Zn640   1.937   .     S
O634   Zn639   1.986   .     S
O635   Zn640   1.987   .     S
O636   Zn639   1.937   .     S
O637   Zn640   1.958   .     S
C641   O694    1.286   .     A
C641   O695    1.286   .     A
C641   C649    1.406   .     S
C642   C644    1.476   .     S
C642   C663    1.412   .     A
C642   C659    1.403   .     A
C643   C649    1.392   .     A
C643   H677    1.085   .     S
C643   C837    1.382   .     S
C644   O697    1.302   .     A
C644   O696    1.300   .     A
C645   C664    1.519   .     S
C645   C646    1.414   .     A
C645   C1027   1.382   1_545 S
C646   C647    1.397   .     A
C646   C655    1.414   .     S
C647   H672    1.084   .     S
C647   C1032   1.370   1_545 S
C648   H683    1.084   .     S
C648   C649    1.389   .     A
C648   C839    1.370   .     S
C650   H685    1.072   .     S
C650   N693    1.366   .     A
C650   C715    1.419   .     S
C651   N692    1.368   .     A
C651   H686    1.080   .     S
C652   C663    1.406   .     A
C652   C85     1.408   1_556 S
C652   C90     1.411   1_556 S
C653   N692    1.366   .     A
C653   H687    1.081   .     S
C654   N693    1.367   .     A
C654   H688    1.069   .     S
C654   C717    1.418   .     S
C655   O698    1.288   .     A
C655   O699    1.286   .     A
C656   C658    1.475   .     S
C656   O701    1.303   .     A
C656   O700    1.301   .     A
C657   C671    1.397   .     A
C658   C670    1.401   .     A
C658   C671    1.413   .     A
C659   C660    1.393   .     A
C659   H673    1.082   .     S
C660   C85     1.390   1_556 S
C660   H99     1.071   1_556 S
C661   H674    1.081   .     S
C662   O702    1.221   .     D
C662   C671    1.463   .     S
C662   H678    1.084   .     S
C663   C669    1.405   .     A
C664   C665    1.527   .     S
C664   H682    1.108   .     S
C664   H684    1.112   .     S
C665   H679    1.108   .     S
C665   H680    1.110   .     S
C665   H681    1.110   .     S
C666   C670    1.394   .     A
C667   C668    1.394   .     A
C667   C81     1.392   1_556 S
C667   C90     1.413   1_556 S
C668   H689    1.084   .     S
C668   C669    1.389   .     A
C669   H676    1.081   .     S
C670   H691    1.078   .     S
H690   C81     1.081   1_556 S
N692   Zn703   2.025   .     S
N693   Zn704   2.025   .     S
O694   Zn703   1.987   .     S
O695   Zn704   1.986   .     S
O696   Zn703   1.958   .     S
O697   Zn704   1.937   .     S
O698   Zn703   1.986   .     S
O699   Zn704   1.987   .     S
O700   Zn703   1.937   .     S
O701   Zn704   1.958   .     S
C705   O758    1.286   .     A
C705   O759    1.286   .     A
C705   C713    1.406   .     S
C706   C708    1.476   .     S
C706   C727    1.412   .     A
C706   C723    1.403   .     A
C707   C713    1.392   .     A
C707   H741    1.085   .     S
C707   C901    1.382   .     S
C708   O761    1.302   .     A
C708   O760    1.300   .     A
C709   C728    1.519   .     S
C709   C710    1.414   .     A
C709   C1091   1.382   1_545 S
C710   C711    1.397   .     A
C710   C719    1.414   .     S
C711   H736    1.084   .     S
C711   C1096   1.370   1_545 S
C712   H747    1.084   .     S
C712   C713    1.389   .     A
C712   C903    1.370   .     S
C714   H749    1.072   .     S
C714   N757    1.366   .     A
C714   C587    1.419   1_655 S
C715   N756    1.368   .     A
C715   H750    1.080   .     S
C716   C727    1.406   .     A
C716   C149    1.408   1_556 S
C716   C154    1.411   1_556 S
C717   N756    1.366   .     A
C717   H751    1.081   .     S
C718   N757    1.367   .     A
C718   H752    1.069   .     S
C718   C589    1.418   1_655 S
C719   O762    1.288   .     A
C719   O763    1.286   .     A
C720   C722    1.475   .     S
C720   O765    1.303   .     A
C720   O764    1.301   .     A
C721   C735    1.397   .     A
C722   C734    1.401   .     A
C722   C735    1.413   .     A
C723   C724    1.393   .     A
C723   H737    1.082   .     S
C724   C149    1.390   1_556 S
C724   H163    1.071   1_556 S
C725   H738    1.081   .     S
C726   O766    1.221   .     D
C726   C735    1.463   .     S
C726   H742    1.084   .     S
C727   C733    1.405   .     A
C728   C729    1.527   .     S
C728   H746    1.108   .     S
C728   H748    1.112   .     S
C729   H743    1.108   .     S
C729   H744    1.110   .     S
C729   H745    1.110   .     S
C730   C734    1.394   .     A
C731   C732    1.394   .     A
C731   C145    1.392   1_556 S
C731   C154    1.413   1_556 S
C732   H753    1.084   .     S
C732   C733    1.389   .     A
C733   H740    1.081   .     S
C734   H755    1.078   .     S
H754   C145    1.081   1_556 S
N756   Zn767   2.025   .     S
N757   Zn768   2.025   .     S
O758   Zn767   1.987   .     S
O759   Zn768   1.986   .     S
O760   Zn767   1.958   .     S
O761   Zn768   1.937   .     S
O762   Zn767   1.986   .     S
O763   Zn768   1.987   .     S
O764   Zn767   1.937   .     S
O765   Zn768   1.958   .     S
C769   O822    1.286   .     A
C769   O823    1.286   .     A
C769   C777    1.406   .     S
C770   C772    1.476   .     S
C770   C791    1.412   .     A
C770   C787    1.403   .     A
C771   C777    1.392   .     A
C771   H805    1.085   .     S
C771   C965    1.382   .     S
C772   O825    1.302   .     A
C772   O824    1.300   .     A
C773   C792    1.519   .     S
C773   C774    1.414   .     A
C774   C775    1.397   .     A
C774   C783    1.414   .     S
C775   H800    1.084   .     S
C776   H811    1.084   .     S
C776   C777    1.389   .     A
C776   C967    1.370   .     S
C778   H813    1.072   .     S
C778   N821    1.366   .     A
C778   C843    1.419   .     S
C779   N820    1.368   .     A
C779   H814    1.080   .     S
C779   C906    1.419   1_455 S
C780   C791    1.406   .     A
C780   C213    1.408   1_556 S
C780   C218    1.411   1_556 S
C781   N820    1.366   .     A
C781   H815    1.081   .     S
C781   C910    1.418   1_455 S
C782   N821    1.367   .     A
C782   H816    1.069   .     S
C782   C845    1.418   .     S
C783   O826    1.288   .     A
C783   O827    1.286   .     A
C784   C786    1.475   .     S
C784   O829    1.303   .     A
C784   O828    1.301   .     A
C785   C799    1.397   .     A
C786   C798    1.401   .     A
C786   C799    1.413   .     A
C787   C788    1.393   .     A
C787   H801    1.082   .     S
C788   C213    1.390   1_556 S
C788   H227    1.071   1_556 S
C789   H802    1.081   .     S
C790   O830    1.221   .     D
C790   C799    1.463   .     S
C790   H806    1.084   .     S
C791   C797    1.405   .     A
C792   C793    1.527   .     S
C792   H810    1.108   .     S
C792   H812    1.112   .     S
C793   H807    1.108   .     S
C793   H808    1.110   .     S
C793   H809    1.110   .     S
C794   C798    1.394   .     A
C795   C796    1.394   .     A
C795   C209    1.392   1_556 S
C795   C218    1.413   1_556 S
C796   H817    1.084   .     S
C796   C797    1.389   .     A
C797   H804    1.081   .     S
C798   H819    1.078   .     S
H818   C209    1.081   1_556 S
N820   Zn831   2.025   .     S
N821   Zn832   2.025   .     S
O822   Zn831   1.987   .     S
O823   Zn832   1.986   .     S
O824   Zn831   1.958   .     S
O825   Zn832   1.937   .     S
O826   Zn831   1.986   .     S
O827   Zn832   1.987   .     S
O828   Zn831   1.937   .     S
O829   Zn832   1.958   .     S
C833   O886    1.286   .     A
C833   O887    1.286   .     A
C833   C841    1.406   .     S
C834   C836    1.476   .     S
C834   C855    1.412   .     A
C834   C851    1.403   .     A
C835   C841    1.392   .     A
C835   H869    1.085   .     S
C835   C1029   1.382   .     S
C836   O889    1.302   .     A
C836   O888    1.300   .     A
C837   C856    1.519   .     S
C837   C838    1.414   .     A
C838   C839    1.397   .     A
C838   C847    1.414   .     S
C839   H864    1.084   .     S
C840   H875    1.084   .     S
C840   C841    1.389   .     A
C840   C1031   1.370   .     S
C842   H877    1.072   .     S
C842   N885    1.366   .     A
C842   C907    1.419   .     S
C843   N884    1.368   .     A
C843   H878    1.080   .     S
C844   C855    1.406   .     A
C844   C277    1.408   1_556 S
C844   C282    1.411   1_556 S
C845   N884    1.366   .     A
C845   H879    1.081   .     S
C846   N885    1.367   .     A
C846   H880    1.069   .     S
C846   C909    1.418   .     S
C847   O890    1.288   .     A
C847   O891    1.286   .     A
C848   C850    1.475   .     S
C848   O893    1.303   .     A
C848   O892    1.301   .     A
C849   C863    1.397   .     A
C850   C862    1.401   .     A
C850   C863    1.413   .     A
C851   C852    1.393   .     A
C851   H865    1.082   .     S
C852   C277    1.390   1_556 S
C852   H291    1.071   1_556 S
C853   H866    1.081   .     S
C854   O894    1.221   .     D
C854   C863    1.463   .     S
C854   H870    1.084   .     S
C855   C861    1.405   .     A
C856   C857    1.527   .     S
C856   H874    1.108   .     S
C856   H876    1.112   .     S
C857   H871    1.108   .     S
C857   H872    1.110   .     S
C857   H873    1.110   .     S
C858   C862    1.394   .     A
C859   C860    1.394   .     A
C859   C273    1.392   1_556 S
C859   C282    1.413   1_556 S
C860   H881    1.084   .     S
C860   C861    1.389   .     A
C861   H868    1.081   .     S
C862   H883    1.078   .     S
H882   C273    1.081   1_556 S
N884   Zn895   2.025   .     S
N885   Zn896   2.025   .     S
O886   Zn895   1.987   .     S
O887   Zn896   1.986   .     S
O888   Zn895   1.958   .     S
O889   Zn896   1.937   .     S
O890   Zn895   1.986   .     S
O891   Zn896   1.987   .     S
O892   Zn895   1.937   .     S
O893   Zn896   1.958   .     S
C897   O950    1.286   .     A
C897   O951    1.286   .     A
C897   C905    1.406   .     S
C898   C900    1.476   .     S
C898   C919    1.412   .     A
C898   C915    1.403   .     A
C899   C905    1.392   .     A
C899   H933    1.085   .     S
C899   C1093   1.382   .     S
C900   O953    1.302   .     A
C900   O952    1.300   .     A
C901   C920    1.519   .     S
C901   C902    1.414   .     A
C902   C903    1.397   .     A
C902   C911    1.414   .     S
C903   H928    1.084   .     S
C904   H939    1.084   .     S
C904   C905    1.389   .     A
C904   C1095   1.370   .     S
C906   H941    1.072   .     S
C906   N949    1.366   .     A
C906   C779    1.419   1_655 S
C907   N948    1.368   .     A
C907   H942    1.080   .     S
C908   C919    1.406   .     A
C908   C341    1.408   1_556 S
C908   C346    1.411   1_556 S
C909   N948    1.366   .     A
C909   H943    1.081   .     S
C910   N949    1.367   .     A
C910   H944    1.069   .     S
C910   C781    1.418   1_655 S
C911   O954    1.288   .     A
C911   O955    1.286   .     A
C912   C914    1.475   .     S
C912   O957    1.303   .     A
C912   O956    1.301   .     A
C913   C927    1.397   .     A
C914   C926    1.401   .     A
C914   C927    1.413   .     A
C915   C916    1.393   .     A
C915   H929    1.082   .     S
C916   C341    1.390   1_556 S
C916   H355    1.071   1_556 S
C917   H930    1.081   .     S
C918   O958    1.221   .     D
C918   C927    1.463   .     S
C918   H934    1.084   .     S
C919   C925    1.405   .     A
C920   C921    1.527   .     S
C920   H938    1.108   .     S
C920   H940    1.112   .     S
C921   H935    1.108   .     S
C921   H936    1.110   .     S
C921   H937    1.110   .     S
C922   C926    1.394   .     A
C923   C924    1.394   .     A
C923   C337    1.392   1_556 S
C923   C346    1.413   1_556 S
C924   H945    1.084   .     S
C924   C925    1.389   .     A
C925   H932    1.081   .     S
C926   H947    1.078   .     S
H946   C337    1.081   1_556 S
N948   Zn959   2.025   .     S
N949   Zn960   2.025   .     S
O950   Zn959   1.987   .     S
O951   Zn960   1.986   .     S
O952   Zn959   1.958   .     S
O953   Zn960   1.937   .     S
O954   Zn959   1.986   .     S
O955   Zn960   1.987   .     S
O956   Zn959   1.937   .     S
O957   Zn960   1.958   .     S
C961   O1014   1.286   .     A
C961   O1015   1.286   .     A
C961   C969    1.406   .     S
C962   C964    1.476   .     S
C962   C983    1.412   .     A
C962   C979    1.403   .     A
C963   C969    1.392   .     A
C963   H997    1.085   .     S
C963   C581    1.382   1_565 S
C964   O1017   1.302   .     A
C964   O1016   1.300   .     A
C965   C984    1.519   .     S
C965   C966    1.414   .     A
C966   C967    1.397   .     A
C966   C975    1.414   .     S
C967   H992    1.084   .     S
C968   H1003   1.084   .     S
C968   C969    1.389   .     A
C968   C583    1.370   1_565 S
C970   H1005   1.072   .     S
C970   N1013   1.366   .     A
C970   C1035   1.419   .     S
C971   N1012   1.368   .     A
C971   H1006   1.080   .     S
C971   C1098   1.419   1_455 S
C972   C983    1.406   .     A
C972   C405    1.408   1_556 S
C972   C410    1.411   1_556 S
C973   N1012   1.366   .     A
C973   H1007   1.081   .     S
C973   C1102   1.418   1_455 S
C974   N1013   1.367   .     A
C974   H1008   1.069   .     S
C974   C1037   1.418   .     S
C975   O1018   1.288   .     A
C975   O1019   1.286   .     A
C976   C978    1.475   .     S
C976   O1021   1.303   .     A
C976   O1020   1.301   .     A
C977   C991    1.397   .     A
C978   C990    1.401   .     A
C978   C991    1.413   .     A
C979   C980    1.393   .     A
C979   H993    1.082   .     S
C980   C405    1.390   1_556 S
C980   H419    1.071   1_556 S
C981   H994    1.081   .     S
C982   O1022   1.221   .     D
C982   C991    1.463   .     S
C982   H998    1.084   .     S
C983   C989    1.405   .     A
C984   C985    1.527   .     S
C984   H1002   1.108   .     S
C984   H1004   1.112   .     S
C985   H999    1.108   .     S
C985   H1000   1.110   .     S
C985   H1001   1.110   .     S
C986   C990    1.394   .     A
C987   C988    1.394   .     A
C987   C401    1.392   1_556 S
C987   C410    1.413   1_556 S
C988   H1009   1.084   .     S
C988   C989    1.389   .     A
C989   H996    1.081   .     S
C990   H1011   1.078   .     S
H1010  C401    1.081   1_556 S
N1012  Zn1023  2.025   .     S
N1013  Zn1024  2.025   .     S
O1014  Zn1023  1.987   .     S
O1015  Zn1024  1.986   .     S
O1016  Zn1023  1.958   .     S
O1017  Zn1024  1.937   .     S
O1018  Zn1023  1.986   .     S
O1019  Zn1024  1.987   .     S
O1020  Zn1023  1.937   .     S
O1021  Zn1024  1.958   .     S
C1025  O1078   1.286   .     A
C1025  O1079   1.286   .     A
C1025  C1033   1.406   .     S
C1026  C1028   1.476   .     S
C1026  C1047   1.412   .     A
C1026  C1043   1.403   .     A
C1027  C1033   1.392   .     A
C1027  H1061   1.085   .     S
C1027  C645    1.382   1_565 S
C1028  O1081   1.302   .     A
C1028  O1080   1.300   .     A
C1029  C1048   1.519   .     S
C1029  C1030   1.414   .     A
C1030  C1031   1.397   .     A
C1030  C1039   1.414   .     S
C1031  H1056   1.084   .     S
C1032  H1067   1.084   .     S
C1032  C1033   1.389   .     A
C1032  C647    1.370   1_565 S
C1034  H1069   1.072   .     S
C1034  N1077   1.366   .     A
C1034  C1099   1.419   .     S
C1035  N1076   1.368   .     A
C1035  H1070   1.080   .     S
C1036  C1047   1.406   .     A
C1036  C469    1.408   1_556 S
C1036  C474    1.411   1_556 S
C1037  N1076   1.366   .     A
C1037  H1071   1.081   .     S
C1038  N1077   1.367   .     A
C1038  H1072   1.069   .     S
C1038  C1101   1.418   .     S
C1039  O1082   1.288   .     A
C1039  O1083   1.286   .     A
C1040  C1042   1.475   .     S
C1040  O1085   1.303   .     A
C1040  O1084   1.301   .     A
C1041  C1055   1.397   .     A
C1042  C1054   1.401   .     A
C1042  C1055   1.413   .     A
C1043  C1044   1.393   .     A
C1043  H1057   1.082   .     S
C1044  C469    1.390   1_556 S
C1044  H483    1.071   1_556 S
C1045  H1058   1.081   .     S
C1046  O1086   1.221   .     D
C1046  C1055   1.463   .     S
C1046  H1062   1.084   .     S
C1047  C1053   1.405   .     A
C1048  C1049   1.527   .     S
C1048  H1066   1.108   .     S
C1048  H1068   1.112   .     S
C1049  H1063   1.108   .     S
C1049  H1064   1.110   .     S
C1049  H1065   1.110   .     S
C1050  C1054   1.394   .     A
C1051  C1052   1.394   .     A
C1051  C465    1.392   1_556 S
C1051  C474    1.413   1_556 S
C1052  H1073   1.084   .     S
C1052  C1053   1.389   .     A
C1053  H1060   1.081   .     S
C1054  H1075   1.078   .     S
H1074  C465    1.081   1_556 S
N1076  Zn1087  2.025   .     S
N1077  Zn1088  2.025   .     S
O1078  Zn1087  1.987   .     S
O1079  Zn1088  1.986   .     S
O1080  Zn1087  1.958   .     S
O1081  Zn1088  1.937   .     S
O1082  Zn1087  1.986   .     S
O1083  Zn1088  1.987   .     S
O1084  Zn1087  1.937   .     S
O1085  Zn1088  1.958   .     S
C1089  O1142   1.286   .     A
C1089  O1143   1.286   .     A
C1089  C1097   1.406   .     S
C1090  C1092   1.476   .     S
C1090  C1111   1.412   .     A
C1090  C1107   1.403   .     A
C1091  C1097   1.392   .     A
C1091  H1125   1.085   .     S
C1091  C709    1.382   1_565 S
C1092  O1145   1.302   .     A
C1092  O1144   1.300   .     A
C1093  C1112   1.519   .     S
C1093  C1094   1.414   .     A
C1094  C1095   1.397   .     A
C1094  C1103   1.414   .     S
C1095  H1120   1.084   .     S
C1096  H1131   1.084   .     S
C1096  C1097   1.389   .     A
C1096  C711    1.370   1_565 S
C1098  H1133   1.072   .     S
C1098  N1141   1.366   .     A
C1098  C971    1.419   1_655 S
C1099  N1140   1.368   .     A
C1099  H1134   1.080   .     S
C1100  C1111   1.406   .     A
C1100  C533    1.408   1_556 S
C1100  C538    1.411   1_556 S
C1101  N1140   1.366   .     A
C1101  H1135   1.081   .     S
C1102  N1141   1.367   .     A
C1102  H1136   1.069   .     S
C1102  C973    1.418   1_655 S
C1103  O1146   1.288   .     A
C1103  O1147   1.286   .     A
C1104  C1106   1.475   .     S
C1104  O1149   1.303   .     A
C1104  O1148   1.301   .     A
C1105  C1119   1.397   .     A
C1106  C1118   1.401   .     A
C1106  C1119   1.413   .     A
C1107  C1108   1.393   .     A
C1107  H1121   1.082   .     S
C1108  C533    1.390   1_556 S
C1108  H547    1.071   1_556 S
C1109  H1122   1.081   .     S
C1110  O1150   1.221   .     D
C1110  C1119   1.463   .     S
C1110  H1126   1.084   .     S
C1111  C1117   1.405   .     A
C1112  C1113   1.527   .     S
C1112  H1130   1.108   .     S
C1112  H1132   1.112   .     S
C1113  H1127   1.108   .     S
C1113  H1128   1.110   .     S
C1113  H1129   1.110   .     S
C1114  C1118   1.394   .     A
C1115  C1116   1.394   .     A
C1115  C529    1.392   1_556 S
C1115  C538    1.413   1_556 S
C1116  H1137   1.084   .     S
C1116  C1117   1.389   .     A
C1117  H1124   1.081   .     S
C1118  H1139   1.078   .     S
H1138  C529    1.081   1_556 S
N1140  Zn1151  2.025   .     S
N1141  Zn1152  2.025   .     S
O1142  Zn1151  1.987   .     S
O1143  Zn1152  1.986   .     S
O1144  Zn1151  1.958   .     S
O1145  Zn1152  1.937   .     S
O1146  Zn1151  1.986   .     S
O1147  Zn1152  1.987   .     S
O1148  Zn1151  1.937   .     S
O1149  Zn1152  1.958   .     S
