data_str_m1_o1_o17_pcu_sym.150
_audit_creation_date              2020-01-03
_audit_creation_method            'Materials Studio'
_symmetry_space_group_name_H-M    'P1'
_symmetry_Int_Tables_number       1
_symmetry_cell_setting            triclinic
loop_
_symmetry_equiv_pos_as_xyz
  x,y,z
_cell_length_a                    36.6521
_cell_length_b                    36.6522
_cell_length_c                    34.5026
_cell_angle_alpha                 90.0001
_cell_angle_beta                  90.0000
_cell_angle_gamma                 89.9595
loop_
_atom_site_label
_atom_site_type_symbol
_atom_site_fract_x
_atom_site_fract_y
_atom_site_fract_z
_atom_site_U_iso_or_equiv
_atom_site_adp_type
_atom_site_occupancy
C1     C     0.47529   0.27257   0.41823   0.00000  Uiso   1.00
C2     C     0.02471   0.22743   0.58177   0.00000  Uiso   1.00
C3     C     0.22732   0.02461   0.41823   0.00000  Uiso   1.00
C4     C     0.27268   0.47538   0.58177   0.00000  Uiso   1.00
C5     C     0.02471   0.22743   0.41823   0.00000  Uiso   1.00
C6     C     0.47529   0.27257   0.58177   0.00000  Uiso   1.00
C7     C     0.27268   0.47538   0.41823   0.00000  Uiso   1.00
C8     C     0.22732   0.02462   0.58177   0.00000  Uiso   1.00
C9     C     0.22529   0.02257   0.91823   0.00000  Uiso   1.00
C10    C     0.27471   0.47743   0.08177   0.00000  Uiso   1.00
C11    C     0.47743   0.27472   0.91823   0.00000  Uiso   1.00
C12    C     0.02257   0.22528   0.08177   0.00000  Uiso   1.00
C13    C     0.27471   0.47743   0.91823   0.00000  Uiso   1.00
C14    C     0.22529   0.02257   0.08177   0.00000  Uiso   1.00
C15    C     0.02257   0.22528   0.91823   0.00000  Uiso   1.00
C16    C     0.47743   0.27472   0.08177   0.00000  Uiso   1.00
C17    C     0.00000   0.25000   0.39820   0.00000  Uiso   1.00
C18    C     0.00000   0.25000   0.60180   0.00000  Uiso   1.00
C19    C     0.25000  -0.00000   0.39819   0.00000  Uiso   1.00
C20    C     0.25000   0.00000   0.60181   0.00000  Uiso   1.00
C21    C     0.25000  -0.00000   0.89820   0.00000  Uiso   1.00
C22    C     0.25000  -0.00000   0.10180   0.00000  Uiso   1.00
C23    C     0.00000   0.25000   0.89820   0.00000  Uiso   1.00
C24    C     0.00000   0.25000   0.10180   0.00000  Uiso   1.00
C25    C     0.04789   0.20398   0.47993   0.00000  Uiso   1.00
C26    C     0.45211   0.29602   0.52007   0.00000  Uiso   1.00
C27    C     0.29624   0.45232   0.47993   0.00000  Uiso   1.00
C28    C     0.20375   0.04768   0.52007   0.00000  Uiso   1.00
C29    C     0.45211   0.29602   0.47993   0.00000  Uiso   1.00
C30    C     0.04789   0.20398   0.52007   0.00000  Uiso   1.00
C31    C     0.20375   0.04767   0.47993   0.00000  Uiso   1.00
C32    C     0.29624   0.45232   0.52007   0.00000  Uiso   1.00
C33    C     0.29789   0.45398   0.97993   0.00000  Uiso   1.00
C34    C     0.20211   0.04602   0.02007   0.00000  Uiso   1.00
C35    C     0.04602   0.20210   0.97993   0.00000  Uiso   1.00
C36    C     0.45398   0.29790   0.02007   0.00000  Uiso   1.00
C37    C     0.20211   0.04602   0.97993   0.00000  Uiso   1.00
C38    C     0.29789   0.45398   0.02007   0.00000  Uiso   1.00
C39    C     0.45398   0.29790   0.97993   0.00000  Uiso   1.00
C40    C     0.04602   0.20210   0.02007   0.00000  Uiso   1.00
C41    C     0.25000   0.00000   0.35582   0.00000  Uiso   1.00
C42    C     0.25000  -0.00000   0.64418   0.00000  Uiso   1.00
C43    C     0.00000   0.25000   0.35582   0.00000  Uiso   1.00
C44    C     0.00000   0.25000   0.64418   0.00000  Uiso   1.00
C45    C     0.00000   0.25000   0.85582   0.00000  Uiso   1.00
C46    C     0.00000   0.25000   0.14418   0.00000  Uiso   1.00
C47    C     0.25000  -0.00000   0.85582   0.00000  Uiso   1.00
C48    C     0.25000  -0.00000   0.14418   0.00000  Uiso   1.00
C49    C     0.17995   0.07005   0.25000   0.00000  Uiso   1.00
C50    C     0.32005   0.42995   0.75000   0.00000  Uiso   1.00
C51    C     0.42994   0.17994   0.25000   0.00000  Uiso   1.00
C52    C     0.07006   0.32006   0.75000   0.00000  Uiso   1.00
C53    C     0.32005   0.42995   0.25000   0.00000  Uiso   1.00
C54    C     0.17995   0.07005   0.75000   0.00000  Uiso   1.00
C55    C     0.07006   0.32006   0.25000   0.00000  Uiso   1.00
C56    C     0.42994   0.17994   0.75000   0.00000  Uiso   1.00
C57    C     0.17994   0.42994   0.75000   0.00000  Uiso   1.00
C58    C     0.32006   0.07006   0.25000   0.00000  Uiso   1.00
C59    C     0.42995   0.32005   0.75000   0.00000  Uiso   1.00
C60    C     0.07005   0.17995   0.25000   0.00000  Uiso   1.00
C61    C     0.32006   0.07006   0.75000   0.00000  Uiso   1.00
C62    C     0.17994   0.42994   0.25000   0.00000  Uiso   1.00
C63    C     0.07005   0.17995   0.75000   0.00000  Uiso   1.00
C64    C     0.42995   0.32005   0.25000   0.00000  Uiso   1.00
C65    C     0.12193   0.40480   0.22491   0.00000  Uiso   1.00
C66    C     0.37807   0.09520   0.77509   0.00000  Uiso   1.00
C67    C     0.09681   0.12356   0.22274   0.00000  Uiso   1.00
C68    C     0.40319   0.37644   0.77726   0.00000  Uiso   1.00
C69    C     0.37807   0.09520   0.22491   0.00000  Uiso   1.00
C70    C     0.12193   0.40480   0.77509   0.00000  Uiso   1.00
C71    C     0.40319   0.37644   0.22274   0.00000  Uiso   1.00
C72    C     0.09681   0.12356   0.77726   0.00000  Uiso   1.00
C73    C     0.12356   0.09681   0.77726   0.00000  Uiso   1.00
C74    C     0.37644   0.40319   0.22274   0.00000  Uiso   1.00
C75    C     0.09520   0.37807   0.77509   0.00000  Uiso   1.00
C76    C     0.40480   0.12193   0.22491   0.00000  Uiso   1.00
C77    C     0.37644   0.40319   0.77726   0.00000  Uiso   1.00
C78    C     0.12356   0.09681   0.22274   0.00000  Uiso   1.00
C79    C     0.40480   0.12193   0.77509   0.00000  Uiso   1.00
C80    C     0.09520   0.37807   0.22491   0.00000  Uiso   1.00
C81    C     0.37193   0.15480   0.72491   0.00000  Uiso   1.00
C82    C     0.12807   0.34520   0.27509   0.00000  Uiso   1.00
C83    C     0.34681   0.37355   0.72274   0.00000  Uiso   1.00
C84    C     0.15319   0.12645   0.27726   0.00000  Uiso   1.00
C85    C     0.12807   0.34520   0.72491   0.00000  Uiso   1.00
C86    C     0.37193   0.15480   0.27509   0.00000  Uiso   1.00
C87    C     0.15319   0.12645   0.72274   0.00000  Uiso   1.00
C88    C     0.34681   0.37355   0.27726   0.00000  Uiso   1.00
C89    C     0.37355   0.34681   0.27726   0.00000  Uiso   1.00
C90    C     0.12645   0.15319   0.72274   0.00000  Uiso   1.00
C91    C     0.34520   0.12807   0.27509   0.00000  Uiso   1.00
C92    C     0.15480   0.37193   0.72491   0.00000  Uiso   1.00
C93    C     0.12645   0.15319   0.27726   0.00000  Uiso   1.00
C94    C     0.37355   0.34681   0.72274   0.00000  Uiso   1.00
C95    C     0.15480   0.37193   0.27509   0.00000  Uiso   1.00
C96    C     0.34520   0.12807   0.72491   0.00000  Uiso   1.00
C97    C     0.02454   0.22713   0.45905   0.00000  Uiso   1.00
C98    C     0.47547   0.27287   0.54095   0.00000  Uiso   1.00
C99    C     0.27298   0.47557   0.45905   0.00000  Uiso   1.00
C100   C     0.22702   0.02443   0.54095   0.00000  Uiso   1.00
C101   C     0.47547   0.27287   0.45905   0.00000  Uiso   1.00
C102   C     0.02454   0.22713   0.54095   0.00000  Uiso   1.00
C103   C     0.22701   0.02443   0.45905   0.00000  Uiso   1.00
C104   C     0.27298   0.47557   0.54095   0.00000  Uiso   1.00
C105   C     0.27453   0.47713   0.95905   0.00000  Uiso   1.00
C106   C     0.22547   0.02287   0.04095   0.00000  Uiso   1.00
C107   C     0.02287   0.22546   0.95905   0.00000  Uiso   1.00
C108   C     0.47713   0.27454   0.04095   0.00000  Uiso   1.00
C109   C     0.22547   0.02287   0.95905   0.00000  Uiso   1.00
C110   C     0.27453   0.47713   0.04095   0.00000  Uiso   1.00
C111   C     0.47713   0.27454   0.95905   0.00000  Uiso   1.00
C112   C     0.02287   0.22546   0.04095   0.00000  Uiso   1.00
C113   C     0.09813   0.34813   0.25000   0.00000  Uiso   1.00
C114   C     0.40187   0.15187   0.75000   0.00000  Uiso   1.00
C115   C     0.15188   0.09813   0.25000   0.00000  Uiso   1.00
C116   C     0.34813   0.40187   0.75000   0.00000  Uiso   1.00
C117   C     0.40187   0.15187   0.25000   0.00000  Uiso   1.00
C118   C     0.09813   0.34813   0.75000   0.00000  Uiso   1.00
C119   C     0.34813   0.40187   0.25000   0.00000  Uiso   1.00
C120   C     0.15187   0.09813   0.75000   0.00000  Uiso   1.00
C121   C     0.09813   0.15187   0.75000   0.00000  Uiso   1.00
C122   C     0.40187   0.34812   0.25000   0.00000  Uiso   1.00
C123   C     0.15187   0.40187   0.75000   0.00000  Uiso   1.00
C124   C     0.34813   0.09813   0.25000   0.00000  Uiso   1.00
C125   C     0.40187   0.34812   0.75000   0.00000  Uiso   1.00
C126   C     0.09813   0.15187   0.25000   0.00000  Uiso   1.00
C127   C     0.34813   0.09813   0.75000   0.00000  Uiso   1.00
C128   C     0.15187   0.40187   0.25000   0.00000  Uiso   1.00
C129   C     0.00000   0.25000   0.47948   0.00000  Uiso   1.00
C130   C     0.00000   0.25000   0.52052   0.00000  Uiso   1.00
C131   C     0.25000  -0.00000   0.47948   0.00000  Uiso   1.00
C132   C     0.25000  -0.00000   0.52052   0.00000  Uiso   1.00
C133   C     0.25000  -0.00000   0.97948   0.00000  Uiso   1.00
C134   C     0.25000  -0.00000   0.02052   0.00000  Uiso   1.00
C135   C     0.00000   0.25000   0.97948   0.00000  Uiso   1.00
C136   C     0.00000   0.25000   0.02052   0.00000  Uiso   1.00
H137   H     0.06628   0.18522   0.46568   0.00000  Uiso   1.00
H138   H     0.43373   0.31478   0.53432   0.00000  Uiso   1.00
H139   H     0.31509   0.43402   0.46568   0.00000  Uiso   1.00
H140   H     0.18490   0.06597   0.53432   0.00000  Uiso   1.00
H141   H     0.43373   0.31478   0.46568   0.00000  Uiso   1.00
H142   H     0.06628   0.18522   0.53432   0.00000  Uiso   1.00
H143   H     0.18490   0.06596   0.46568   0.00000  Uiso   1.00
H144   H     0.31509   0.43402   0.53432   0.00000  Uiso   1.00
H145   H     0.31627   0.43522   0.96568   0.00000  Uiso   1.00
H146   H     0.18373   0.06478   0.03432   0.00000  Uiso   1.00
H147   H     0.06477   0.18372   0.96568   0.00000  Uiso   1.00
H148   H     0.43523   0.31628   0.03432   0.00000  Uiso   1.00
H149   H     0.18373   0.06478   0.96568   0.00000  Uiso   1.00
H150   H     0.31627   0.43522   0.03432   0.00000  Uiso   1.00
H151   H     0.43523   0.31628   0.96568   0.00000  Uiso   1.00
H152   H     0.06477   0.18372   0.03432   0.00000  Uiso   1.00
H153   H     0.11912   0.42770   0.20529   0.00000  Uiso   1.00
H154   H     0.38088   0.07230   0.79471   0.00000  Uiso   1.00
H155   H     0.07523   0.12209   0.20134   0.00000  Uiso   1.00
H156   H     0.42477   0.37791   0.79865   0.00000  Uiso   1.00
H157   H     0.38088   0.07230   0.20529   0.00000  Uiso   1.00
H158   H     0.11912   0.42770   0.79471   0.00000  Uiso   1.00
H159   H     0.42477   0.37791   0.20135   0.00000  Uiso   1.00
H160   H     0.07523   0.12209   0.79866   0.00000  Uiso   1.00
H161   H     0.12209   0.07523   0.79866   0.00000  Uiso   1.00
H162   H     0.37791   0.42477   0.20135   0.00000  Uiso   1.00
H163   H     0.07230   0.38088   0.79471   0.00000  Uiso   1.00
H164   H     0.42770   0.11912   0.20529   0.00000  Uiso   1.00
H165   H     0.37791   0.42477   0.79865   0.00000  Uiso   1.00
H166   H     0.12209   0.07523   0.20134   0.00000  Uiso   1.00
H167   H     0.42770   0.11912   0.79471   0.00000  Uiso   1.00
H168   H     0.07230   0.38088   0.20529   0.00000  Uiso   1.00
H169   H     0.36912   0.17770   0.70529   0.00000  Uiso   1.00
H170   H     0.13088   0.32230   0.29471   0.00000  Uiso   1.00
H171   H     0.32523   0.37209   0.70135   0.00000  Uiso   1.00
H172   H     0.17477   0.12791   0.29865   0.00000  Uiso   1.00
H173   H     0.13088   0.32230   0.70529   0.00000  Uiso   1.00
H174   H     0.36912   0.17770   0.29471   0.00000  Uiso   1.00
H175   H     0.17477   0.12791   0.70135   0.00000  Uiso   1.00
H176   H     0.32523   0.37209   0.29865   0.00000  Uiso   1.00
H177   H     0.37209   0.32523   0.29865   0.00000  Uiso   1.00
H178   H     0.12791   0.17477   0.70134   0.00000  Uiso   1.00
H179   H     0.32230   0.13088   0.29471   0.00000  Uiso   1.00
H180   H     0.17770   0.36912   0.70529   0.00000  Uiso   1.00
H181   H     0.12791   0.17477   0.29865   0.00000  Uiso   1.00
H182   H     0.37209   0.32523   0.70135   0.00000  Uiso   1.00
H183   H     0.17770   0.36912   0.29471   0.00000  Uiso   1.00
H184   H     0.32230   0.13088   0.70529   0.00000  Uiso   1.00
O185   O     0.25000  -0.00000   0.25000   0.00000  Uiso   1.00
O186   O     0.25000  -0.00000   0.75000   0.00000  Uiso   1.00
O187   O     0.00000   0.25000   0.25000   0.00000  Uiso   1.00
O188   O     0.00000   0.25000   0.75000   0.00000  Uiso   1.00
O189   O     0.25000   0.46964   0.33755   0.00000  Uiso   1.00
O190   O     0.25000   0.03036   0.66245   0.00000  Uiso   1.00
O191   O     0.03037   0.25000   0.33755   0.00000  Uiso   1.00
O192   O     0.46964   0.25000   0.66245   0.00000  Uiso   1.00
O193   O     0.25000   0.03036   0.33755   0.00000  Uiso   1.00
O194   O     0.25000   0.46964   0.66245   0.00000  Uiso   1.00
O195   O     0.46964   0.25000   0.33755   0.00000  Uiso   1.00
O196   O     0.03037   0.25000   0.66245   0.00000  Uiso   1.00
O197   O     0.00000   0.21963   0.83755   0.00000  Uiso   1.00
O198   O     0.00000   0.28037   0.16245   0.00000  Uiso   1.00
O199   O     0.28037  -0.00000   0.83755   0.00000  Uiso   1.00
O200   O     0.21964  -0.00000   0.16245   0.00000  Uiso   1.00
O201   O     0.00000   0.28037   0.83755   0.00000  Uiso   1.00
O202   O     0.00000   0.21963   0.16245   0.00000  Uiso   1.00
O203   O     0.21964  -0.00000   0.83755   0.00000  Uiso   1.00
O204   O     0.28037  -0.00000   0.16245   0.00000  Uiso   1.00
O205   O     0.20725   0.07307   0.27302   0.00000  Uiso   1.00
O206   O     0.29276   0.42692   0.72698   0.00000  Uiso   1.00
O207   O     0.42693   0.20724   0.27302   0.00000  Uiso   1.00
O208   O     0.07308   0.29276   0.72698   0.00000  Uiso   1.00
O209   O     0.29276   0.42692   0.27302   0.00000  Uiso   1.00
O210   O     0.20725   0.07307   0.72698   0.00000  Uiso   1.00
O211   O     0.07308   0.29276   0.27302   0.00000  Uiso   1.00
O212   O     0.42693   0.20724   0.72698   0.00000  Uiso   1.00
O213   O     0.20725   0.42693   0.72698   0.00000  Uiso   1.00
O214   O     0.29276   0.07307   0.27302   0.00000  Uiso   1.00
O215   O     0.42693   0.29275   0.72698   0.00000  Uiso   1.00
O216   O     0.07308   0.20725   0.27302   0.00000  Uiso   1.00
O217   O     0.29276   0.07307   0.72698   0.00000  Uiso   1.00
O218   O     0.20725   0.42693   0.27302   0.00000  Uiso   1.00
O219   O     0.07308   0.20725   0.72698   0.00000  Uiso   1.00
O220   O     0.42693   0.29275   0.27302   0.00000  Uiso   1.00
O221   O     0.45725   0.32307   0.77302   0.00000  Uiso   1.00
O222   O     0.04276   0.17693   0.22698   0.00000  Uiso   1.00
O223   O     0.17693   0.45725   0.77302   0.00000  Uiso   1.00
O224   O     0.32308   0.04275   0.22698   0.00000  Uiso   1.00
O225   O     0.04276   0.17693   0.77302   0.00000  Uiso   1.00
O226   O     0.45725   0.32307   0.22698   0.00000  Uiso   1.00
O227   O     0.32308   0.04275   0.77302   0.00000  Uiso   1.00
O228   O     0.17693   0.45725   0.22698   0.00000  Uiso   1.00
O229   O     0.45725   0.17692   0.22698   0.00000  Uiso   1.00
O230   O     0.04276   0.32308   0.77302   0.00000  Uiso   1.00
O231   O     0.17693   0.04275   0.22698   0.00000  Uiso   1.00
O232   O     0.32308   0.45724   0.77302   0.00000  Uiso   1.00
O233   O     0.04276   0.32308   0.22698   0.00000  Uiso   1.00
O234   O     0.45725   0.17692   0.77302   0.00000  Uiso   1.00
O235   O     0.32308   0.45724   0.22698   0.00000  Uiso   1.00
O236   O     0.17693   0.04275   0.77302   0.00000  Uiso   1.00
Zn237  Zn    0.20660  -0.00000   0.21735   0.00000  Uiso   1.00
Zn238  Zn    0.29341  -0.00000   0.78265   0.00000  Uiso   1.00
Zn239  Zn    0.00000   0.20660   0.21735   0.00000  Uiso   1.00
Zn240  Zn    0.00000   0.29340   0.78265   0.00000  Uiso   1.00
Zn241  Zn    0.29341  -0.00000   0.21735   0.00000  Uiso   1.00
Zn242  Zn    0.20660  -0.00000   0.78265   0.00000  Uiso   1.00
Zn243  Zn    0.00000   0.29340   0.21735   0.00000  Uiso   1.00
Zn244  Zn    0.00000   0.20660   0.78265   0.00000  Uiso   1.00
Zn245  Zn    0.45660   0.25000   0.71735   0.00000  Uiso   1.00
Zn246  Zn    0.04341   0.25000   0.28265   0.00000  Uiso   1.00
Zn247  Zn    0.25000   0.45660   0.71735   0.00000  Uiso   1.00
Zn248  Zn    0.25000   0.04340   0.28265   0.00000  Uiso   1.00
Zn249  Zn    0.04341   0.25000   0.71735   0.00000  Uiso   1.00
Zn250  Zn    0.45660   0.25000   0.28265   0.00000  Uiso   1.00
Zn251  Zn    0.25000   0.04340   0.71735   0.00000  Uiso   1.00
Zn252  Zn    0.25000   0.45660   0.28265   0.00000  Uiso   1.00
N253   N     0.45065   0.29496   0.39673   0.00000  Uiso   1.00
H254   H     0.42404   0.29506   0.40638   0.00000  Uiso   1.00
C255   C     0.46457   0.33066   0.38672   0.00000  Uiso   1.00
H256   H     0.46901   0.34718   0.41329   0.00000  Uiso   1.00
H257   H     0.44459   0.34493   0.36786   0.00000  Uiso   1.00
H258   H     0.49069   0.32814   0.37060   0.00000  Uiso   1.00
N259   N     0.04936   0.20504   0.60327   0.00000  Uiso   1.00
H260   H     0.07596   0.20494   0.59362   0.00000  Uiso   1.00
C261   C     0.03544   0.16935   0.61328   0.00000  Uiso   1.00
H262   H     0.03099   0.15282   0.58671   0.00000  Uiso   1.00
H263   H     0.00932   0.17186   0.62941   0.00000  Uiso   1.00
H264   H     0.05542   0.15507   0.63214   0.00000  Uiso   1.00
N265   N     0.20482   0.04916   0.39672   0.00000  Uiso   1.00
H266   H     0.20459   0.07576   0.40639   0.00000  Uiso   1.00
C267   C     0.16921   0.03507   0.38667   0.00000  Uiso   1.00
H268   H     0.15270   0.03047   0.41322   0.00000  Uiso   1.00
H269   H     0.17188   0.00900   0.37047   0.00000  Uiso   1.00
H270   H     0.15482   0.05501   0.36785   0.00000  Uiso   1.00
N271   N     0.29517   0.45084   0.60328   0.00000  Uiso   1.00
H272   H     0.29540   0.42423   0.59362   0.00000  Uiso   1.00
C273   C     0.33079   0.46493   0.61331   0.00000  Uiso   1.00
H274   H     0.34731   0.46944   0.58675   0.00000  Uiso   1.00
H275   H     0.34516   0.44502   0.63218   0.00000  Uiso   1.00
H276   H     0.32815   0.49103   0.62943   0.00000  Uiso   1.00
N277   N     0.04935   0.20504   0.39673   0.00000  Uiso   1.00
H278   H     0.07596   0.20494   0.40638   0.00000  Uiso   1.00
C279   C     0.03543   0.16934   0.38672   0.00000  Uiso   1.00
H280   H     0.03099   0.15282   0.41329   0.00000  Uiso   1.00
H281   H     0.05541   0.15506   0.36786   0.00000  Uiso   1.00
H282   H     0.00931   0.17186   0.37060   0.00000  Uiso   1.00
N283   N     0.45064   0.29496   0.60327   0.00000  Uiso   1.00
H284   H     0.42404   0.29506   0.59362   0.00000  Uiso   1.00
C285   C     0.46456   0.33065   0.61328   0.00000  Uiso   1.00
H286   H     0.46901   0.34718   0.58671   0.00000  Uiso   1.00
H287   H     0.49068   0.32814   0.62941   0.00000  Uiso   1.00
H288   H     0.44458   0.34493   0.63214   0.00000  Uiso   1.00
N289   N     0.29517   0.45083   0.39672   0.00000  Uiso   1.00
H290   H     0.29539   0.42423   0.40638   0.00000  Uiso   1.00
C291   C     0.33079   0.46491   0.38669   0.00000  Uiso   1.00
H292   H     0.34731   0.46945   0.41325   0.00000  Uiso   1.00
H293   H     0.32815   0.49101   0.37055   0.00000  Uiso   1.00
H294   H     0.34516   0.44499   0.36784   0.00000  Uiso   1.00
N295   N     0.20484   0.04918   0.60328   0.00000  Uiso   1.00
H296   H     0.20462   0.07578   0.59361   0.00000  Uiso   1.00
C297   C     0.16921   0.03511   0.61332   0.00000  Uiso   1.00
H298   H     0.15268   0.03059   0.58676   0.00000  Uiso   1.00
H299   H     0.15486   0.05504   0.63218   0.00000  Uiso   1.00
H300   H     0.17184   0.00901   0.62945   0.00000  Uiso   1.00
N301   N     0.20065   0.04496   0.89673   0.00000  Uiso   1.00
H302   H     0.17404   0.04506   0.90638   0.00000  Uiso   1.00
C303   C     0.21457   0.08066   0.88672   0.00000  Uiso   1.00
H304   H     0.21901   0.09718   0.91329   0.00000  Uiso   1.00
H305   H     0.19459   0.09494   0.86786   0.00000  Uiso   1.00
H306   H     0.24069   0.07814   0.87059   0.00000  Uiso   1.00
N307   N     0.29935   0.45504   0.10327   0.00000  Uiso   1.00
H308   H     0.32596   0.45494   0.09362   0.00000  Uiso   1.00
C309   C     0.28543   0.41934   0.11328   0.00000  Uiso   1.00
H310   H     0.28099   0.40282   0.08671   0.00000  Uiso   1.00
H311   H     0.25931   0.42186   0.12941   0.00000  Uiso   1.00
H312   H     0.30541   0.40506   0.13214   0.00000  Uiso   1.00
N313   N     0.45504   0.29936   0.89673   0.00000  Uiso   1.00
H314   H     0.45495   0.32597   0.90638   0.00000  Uiso   1.00
C315   C     0.41935   0.28544   0.88672   0.00000  Uiso   1.00
H316   H     0.40282   0.28100   0.91329   0.00000  Uiso   1.00
H317   H     0.42186   0.25933   0.87059   0.00000  Uiso   1.00
H318   H     0.40507   0.30543   0.86786   0.00000  Uiso   1.00
N319   N     0.04496   0.20064   0.10327   0.00000  Uiso   1.00
H320   H     0.04505   0.17403   0.09362   0.00000  Uiso   1.00
C321   C     0.08065   0.21456   0.11328   0.00000  Uiso   1.00
H322   H     0.09718   0.21900   0.08671   0.00000  Uiso   1.00
H323   H     0.09493   0.19458   0.13214   0.00000  Uiso   1.00
H324   H     0.07814   0.24067   0.12941   0.00000  Uiso   1.00
N325   N     0.29935   0.45504   0.89673   0.00000  Uiso   1.00
H326   H     0.32596   0.45494   0.90638   0.00000  Uiso   1.00
C327   C     0.28543   0.41934   0.88672   0.00000  Uiso   1.00
H328   H     0.28099   0.40282   0.91329   0.00000  Uiso   1.00
H329   H     0.30541   0.40507   0.86786   0.00000  Uiso   1.00
H330   H     0.25931   0.42186   0.87059   0.00000  Uiso   1.00
N331   N     0.20065   0.04496   0.10327   0.00000  Uiso   1.00
H332   H     0.17404   0.04506   0.09362   0.00000  Uiso   1.00
C333   C     0.21457   0.08066   0.11328   0.00000  Uiso   1.00
H334   H     0.21901   0.09718   0.08671   0.00000  Uiso   1.00
H335   H     0.24068   0.07814   0.12941   0.00000  Uiso   1.00
H336   H     0.19459   0.09493   0.13214   0.00000  Uiso   1.00
N337   N     0.04496   0.20064   0.89673   0.00000  Uiso   1.00
H338   H     0.04505   0.17403   0.90638   0.00000  Uiso   1.00
C339   C     0.08065   0.21456   0.88672   0.00000  Uiso   1.00
H340   H     0.09718   0.21900   0.91329   0.00000  Uiso   1.00
H341   H     0.07814   0.24067   0.87059   0.00000  Uiso   1.00
H342   H     0.09493   0.19457   0.86786   0.00000  Uiso   1.00
N343   N     0.45504   0.29936   0.10327   0.00000  Uiso   1.00
H344   H     0.45495   0.32597   0.09362   0.00000  Uiso   1.00
C345   C     0.41935   0.28544   0.11328   0.00000  Uiso   1.00
H346   H     0.40282   0.28100   0.08671   0.00000  Uiso   1.00
H347   H     0.40507   0.30543   0.13214   0.00000  Uiso   1.00
H348   H     0.42186   0.25933   0.12941   0.00000  Uiso   1.00
C349   C     0.97529   0.27257   0.41823   0.00000  Uiso   1.00
C350   C     0.52471   0.22743   0.58177   0.00000  Uiso   1.00
C351   C     0.72732   0.02461   0.41823   0.00000  Uiso   1.00
C352   C     0.77268   0.47538   0.58177   0.00000  Uiso   1.00
C353   C     0.52471   0.22743   0.41823   0.00000  Uiso   1.00
C354   C     0.97529   0.27257   0.58177   0.00000  Uiso   1.00
C355   C     0.77268   0.47538   0.41823   0.00000  Uiso   1.00
C356   C     0.72732   0.02462   0.58177   0.00000  Uiso   1.00
C357   C     0.72529   0.02257   0.91823   0.00000  Uiso   1.00
C358   C     0.77471   0.47743   0.08177   0.00000  Uiso   1.00
C359   C     0.97743   0.27472   0.91823   0.00000  Uiso   1.00
C360   C     0.52257   0.22528   0.08177   0.00000  Uiso   1.00
C361   C     0.77471   0.47743   0.91823   0.00000  Uiso   1.00
C362   C     0.72529   0.02257   0.08177   0.00000  Uiso   1.00
C363   C     0.52257   0.22528   0.91823   0.00000  Uiso   1.00
C364   C     0.97743   0.27472   0.08177   0.00000  Uiso   1.00
C365   C     0.50000   0.25000   0.39820   0.00000  Uiso   1.00
C366   C     0.50000   0.25000   0.60180   0.00000  Uiso   1.00
C367   C     0.75000  -0.00000   0.39819   0.00000  Uiso   1.00
C368   C     0.75000   0.00000   0.60181   0.00000  Uiso   1.00
C369   C     0.75000  -0.00000   0.89820   0.00000  Uiso   1.00
C370   C     0.75000  -0.00000   0.10180   0.00000  Uiso   1.00
C371   C     0.50000   0.25000   0.89820   0.00000  Uiso   1.00
C372   C     0.50000   0.25000   0.10180   0.00000  Uiso   1.00
C373   C     0.54789   0.20398   0.47993   0.00000  Uiso   1.00
C374   C     0.95211   0.29602   0.52007   0.00000  Uiso   1.00
C375   C     0.79624   0.45232   0.47993   0.00000  Uiso   1.00
C376   C     0.70375   0.04768   0.52007   0.00000  Uiso   1.00
C377   C     0.95211   0.29602   0.47993   0.00000  Uiso   1.00
C378   C     0.54789   0.20398   0.52007   0.00000  Uiso   1.00
C379   C     0.70375   0.04767   0.47993   0.00000  Uiso   1.00
C380   C     0.79624   0.45232   0.52007   0.00000  Uiso   1.00
C381   C     0.79789   0.45398   0.97993   0.00000  Uiso   1.00
C382   C     0.70211   0.04602   0.02007   0.00000  Uiso   1.00
C383   C     0.54602   0.20210   0.97993   0.00000  Uiso   1.00
C384   C     0.95398   0.29790   0.02007   0.00000  Uiso   1.00
C385   C     0.70211   0.04602   0.97993   0.00000  Uiso   1.00
C386   C     0.79789   0.45398   0.02007   0.00000  Uiso   1.00
C387   C     0.95398   0.29790   0.97993   0.00000  Uiso   1.00
C388   C     0.54602   0.20210   0.02007   0.00000  Uiso   1.00
C389   C     0.75000   0.00000   0.35582   0.00000  Uiso   1.00
C390   C     0.75000  -0.00000   0.64418   0.00000  Uiso   1.00
C391   C     0.50000   0.25000   0.35582   0.00000  Uiso   1.00
C392   C     0.50000   0.25000   0.64418   0.00000  Uiso   1.00
C393   C     0.50000   0.25000   0.85582   0.00000  Uiso   1.00
C394   C     0.50000   0.25000   0.14418   0.00000  Uiso   1.00
C395   C     0.75000  -0.00000   0.85582   0.00000  Uiso   1.00
C396   C     0.75000  -0.00000   0.14418   0.00000  Uiso   1.00
C397   C     0.67995   0.07005   0.25000   0.00000  Uiso   1.00
C398   C     0.82005   0.42995   0.75000   0.00000  Uiso   1.00
C399   C     0.92994   0.17994   0.25000   0.00000  Uiso   1.00
C400   C     0.57006   0.32006   0.75000   0.00000  Uiso   1.00
C401   C     0.82005   0.42995   0.25000   0.00000  Uiso   1.00
C402   C     0.67995   0.07005   0.75000   0.00000  Uiso   1.00
C403   C     0.57006   0.32006   0.25000   0.00000  Uiso   1.00
C404   C     0.92994   0.17994   0.75000   0.00000  Uiso   1.00
C405   C     0.67994   0.42994   0.75000   0.00000  Uiso   1.00
C406   C     0.82006   0.07006   0.25000   0.00000  Uiso   1.00
C407   C     0.92995   0.32005   0.75000   0.00000  Uiso   1.00
C408   C     0.57005   0.17995   0.25000   0.00000  Uiso   1.00
C409   C     0.82006   0.07006   0.75000   0.00000  Uiso   1.00
C410   C     0.67994   0.42994   0.25000   0.00000  Uiso   1.00
C411   C     0.57005   0.17995   0.75000   0.00000  Uiso   1.00
C412   C     0.92995   0.32005   0.25000   0.00000  Uiso   1.00
C413   C     0.62193   0.40480   0.22491   0.00000  Uiso   1.00
C414   C     0.87807   0.09520   0.77509   0.00000  Uiso   1.00
C415   C     0.59681   0.12356   0.22274   0.00000  Uiso   1.00
C416   C     0.90319   0.37644   0.77726   0.00000  Uiso   1.00
C417   C     0.87807   0.09520   0.22491   0.00000  Uiso   1.00
C418   C     0.62193   0.40480   0.77509   0.00000  Uiso   1.00
C419   C     0.90319   0.37644   0.22274   0.00000  Uiso   1.00
C420   C     0.59681   0.12356   0.77726   0.00000  Uiso   1.00
C421   C     0.62356   0.09681   0.77726   0.00000  Uiso   1.00
C422   C     0.87644   0.40319   0.22274   0.00000  Uiso   1.00
C423   C     0.59520   0.37807   0.77509   0.00000  Uiso   1.00
C424   C     0.90480   0.12193   0.22491   0.00000  Uiso   1.00
C425   C     0.87644   0.40319   0.77726   0.00000  Uiso   1.00
C426   C     0.62356   0.09681   0.22274   0.00000  Uiso   1.00
C427   C     0.90480   0.12193   0.77509   0.00000  Uiso   1.00
C428   C     0.59520   0.37807   0.22491   0.00000  Uiso   1.00
C429   C     0.87193   0.15480   0.72491   0.00000  Uiso   1.00
C430   C     0.62807   0.34520   0.27509   0.00000  Uiso   1.00
C431   C     0.84681   0.37355   0.72274   0.00000  Uiso   1.00
C432   C     0.65319   0.12645   0.27726   0.00000  Uiso   1.00
C433   C     0.62807   0.34520   0.72491   0.00000  Uiso   1.00
C434   C     0.87193   0.15480   0.27509   0.00000  Uiso   1.00
C435   C     0.65319   0.12645   0.72274   0.00000  Uiso   1.00
C436   C     0.84681   0.37355   0.27726   0.00000  Uiso   1.00
C437   C     0.87355   0.34681   0.27726   0.00000  Uiso   1.00
C438   C     0.62645   0.15319   0.72274   0.00000  Uiso   1.00
C439   C     0.84520   0.12807   0.27509   0.00000  Uiso   1.00
C440   C     0.65480   0.37193   0.72491   0.00000  Uiso   1.00
C441   C     0.62645   0.15319   0.27726   0.00000  Uiso   1.00
C442   C     0.87355   0.34681   0.72274   0.00000  Uiso   1.00
C443   C     0.65480   0.37193   0.27509   0.00000  Uiso   1.00
C444   C     0.84520   0.12807   0.72491   0.00000  Uiso   1.00
C445   C     0.52454   0.22713   0.45905   0.00000  Uiso   1.00
C446   C     0.97547   0.27287   0.54095   0.00000  Uiso   1.00
C447   C     0.77298   0.47557   0.45905   0.00000  Uiso   1.00
C448   C     0.72702   0.02443   0.54095   0.00000  Uiso   1.00
C449   C     0.97547   0.27287   0.45905   0.00000  Uiso   1.00
C450   C     0.52454   0.22713   0.54095   0.00000  Uiso   1.00
C451   C     0.72701   0.02443   0.45905   0.00000  Uiso   1.00
C452   C     0.77298   0.47557   0.54095   0.00000  Uiso   1.00
C453   C     0.77453   0.47713   0.95905   0.00000  Uiso   1.00
C454   C     0.72547   0.02287   0.04095   0.00000  Uiso   1.00
C455   C     0.52287   0.22546   0.95905   0.00000  Uiso   1.00
C456   C     0.97713   0.27454   0.04095   0.00000  Uiso   1.00
C457   C     0.72547   0.02287   0.95905   0.00000  Uiso   1.00
C458   C     0.77453   0.47713   0.04095   0.00000  Uiso   1.00
C459   C     0.97713   0.27454   0.95905   0.00000  Uiso   1.00
C460   C     0.52287   0.22546   0.04095   0.00000  Uiso   1.00
C461   C     0.59813   0.34813   0.25000   0.00000  Uiso   1.00
C462   C     0.90187   0.15187   0.75000   0.00000  Uiso   1.00
C463   C     0.65188   0.09813   0.25000   0.00000  Uiso   1.00
C464   C     0.84813   0.40187   0.75000   0.00000  Uiso   1.00
C465   C     0.90187   0.15187   0.25000   0.00000  Uiso   1.00
C466   C     0.59813   0.34813   0.75000   0.00000  Uiso   1.00
C467   C     0.84813   0.40187   0.25000   0.00000  Uiso   1.00
C468   C     0.65187   0.09813   0.75000   0.00000  Uiso   1.00
C469   C     0.59813   0.15187   0.75000   0.00000  Uiso   1.00
C470   C     0.90187   0.34812   0.25000   0.00000  Uiso   1.00
C471   C     0.65187   0.40187   0.75000   0.00000  Uiso   1.00
C472   C     0.84813   0.09813   0.25000   0.00000  Uiso   1.00
C473   C     0.90187   0.34812   0.75000   0.00000  Uiso   1.00
C474   C     0.59813   0.15187   0.25000   0.00000  Uiso   1.00
C475   C     0.84813   0.09813   0.75000   0.00000  Uiso   1.00
C476   C     0.65187   0.40187   0.25000   0.00000  Uiso   1.00
C477   C     0.50000   0.25000   0.47948   0.00000  Uiso   1.00
C478   C     0.50000   0.25000   0.52052   0.00000  Uiso   1.00
C479   C     0.75000  -0.00000   0.47948   0.00000  Uiso   1.00
C480   C     0.75000  -0.00000   0.52052   0.00000  Uiso   1.00
C481   C     0.75000  -0.00000   0.97948   0.00000  Uiso   1.00
C482   C     0.75000  -0.00000   0.02052   0.00000  Uiso   1.00
C483   C     0.50000   0.25000   0.97948   0.00000  Uiso   1.00
C484   C     0.50000   0.25000   0.02052   0.00000  Uiso   1.00
H485   H     0.56628   0.18522   0.46568   0.00000  Uiso   1.00
H486   H     0.93373   0.31478   0.53432   0.00000  Uiso   1.00
H487   H     0.81509   0.43402   0.46568   0.00000  Uiso   1.00
H488   H     0.68490   0.06597   0.53432   0.00000  Uiso   1.00
H489   H     0.93373   0.31478   0.46568   0.00000  Uiso   1.00
H490   H     0.56628   0.18522   0.53432   0.00000  Uiso   1.00
H491   H     0.68490   0.06596   0.46568   0.00000  Uiso   1.00
H492   H     0.81509   0.43402   0.53432   0.00000  Uiso   1.00
H493   H     0.81627   0.43522   0.96568   0.00000  Uiso   1.00
H494   H     0.68373   0.06478   0.03432   0.00000  Uiso   1.00
H495   H     0.56477   0.18372   0.96568   0.00000  Uiso   1.00
H496   H     0.93523   0.31628   0.03432   0.00000  Uiso   1.00
H497   H     0.68373   0.06478   0.96568   0.00000  Uiso   1.00
H498   H     0.81627   0.43522   0.03432   0.00000  Uiso   1.00
H499   H     0.93523   0.31628   0.96568   0.00000  Uiso   1.00
H500   H     0.56477   0.18372   0.03432   0.00000  Uiso   1.00
H501   H     0.61912   0.42770   0.20529   0.00000  Uiso   1.00
H502   H     0.88088   0.07230   0.79471   0.00000  Uiso   1.00
H503   H     0.57523   0.12209   0.20134   0.00000  Uiso   1.00
H504   H     0.92477   0.37791   0.79865   0.00000  Uiso   1.00
H505   H     0.88088   0.07230   0.20529   0.00000  Uiso   1.00
H506   H     0.61912   0.42770   0.79471   0.00000  Uiso   1.00
H507   H     0.92477   0.37791   0.20135   0.00000  Uiso   1.00
H508   H     0.57523   0.12209   0.79866   0.00000  Uiso   1.00
H509   H     0.62209   0.07523   0.79866   0.00000  Uiso   1.00
H510   H     0.87791   0.42477   0.20135   0.00000  Uiso   1.00
H511   H     0.57230   0.38088   0.79471   0.00000  Uiso   1.00
H512   H     0.92770   0.11912   0.20529   0.00000  Uiso   1.00
H513   H     0.87791   0.42477   0.79865   0.00000  Uiso   1.00
H514   H     0.62209   0.07523   0.20134   0.00000  Uiso   1.00
H515   H     0.92770   0.11912   0.79471   0.00000  Uiso   1.00
H516   H     0.57230   0.38088   0.20529   0.00000  Uiso   1.00
H517   H     0.86912   0.17770   0.70529   0.00000  Uiso   1.00
H518   H     0.63088   0.32230   0.29471   0.00000  Uiso   1.00
H519   H     0.82523   0.37209   0.70135   0.00000  Uiso   1.00
H520   H     0.67477   0.12791   0.29865   0.00000  Uiso   1.00
H521   H     0.63088   0.32230   0.70529   0.00000  Uiso   1.00
H522   H     0.86912   0.17770   0.29471   0.00000  Uiso   1.00
H523   H     0.67477   0.12791   0.70135   0.00000  Uiso   1.00
H524   H     0.82523   0.37209   0.29865   0.00000  Uiso   1.00
H525   H     0.87209   0.32523   0.29865   0.00000  Uiso   1.00
H526   H     0.62791   0.17477   0.70134   0.00000  Uiso   1.00
H527   H     0.82230   0.13088   0.29471   0.00000  Uiso   1.00
H528   H     0.67770   0.36912   0.70529   0.00000  Uiso   1.00
H529   H     0.62791   0.17477   0.29865   0.00000  Uiso   1.00
H530   H     0.87209   0.32523   0.70135   0.00000  Uiso   1.00
H531   H     0.67770   0.36912   0.29471   0.00000  Uiso   1.00
H532   H     0.82230   0.13088   0.70529   0.00000  Uiso   1.00
O533   O     0.75000  -0.00000   0.25000   0.00000  Uiso   1.00
O534   O     0.75000  -0.00000   0.75000   0.00000  Uiso   1.00
O535   O     0.50000   0.25000   0.25000   0.00000  Uiso   1.00
O536   O     0.50000   0.25000   0.75000   0.00000  Uiso   1.00
O537   O     0.75000   0.46964   0.33755   0.00000  Uiso   1.00
O538   O     0.75000   0.03036   0.66245   0.00000  Uiso   1.00
O539   O     0.53037   0.25000   0.33755   0.00000  Uiso   1.00
O540   O     0.96964   0.25000   0.66245   0.00000  Uiso   1.00
O541   O     0.75000   0.03036   0.33755   0.00000  Uiso   1.00
O542   O     0.75000   0.46964   0.66245   0.00000  Uiso   1.00
O543   O     0.96964   0.25000   0.33755   0.00000  Uiso   1.00
O544   O     0.53037   0.25000   0.66245   0.00000  Uiso   1.00
O545   O     0.50000   0.21963   0.83755   0.00000  Uiso   1.00
O546   O     0.50000   0.28037   0.16245   0.00000  Uiso   1.00
O547   O     0.78037  -0.00000   0.83755   0.00000  Uiso   1.00
O548   O     0.71964  -0.00000   0.16245   0.00000  Uiso   1.00
O549   O     0.50000   0.28037   0.83755   0.00000  Uiso   1.00
O550   O     0.50000   0.21963   0.16245   0.00000  Uiso   1.00
O551   O     0.71964  -0.00000   0.83755   0.00000  Uiso   1.00
O552   O     0.78037  -0.00000   0.16245   0.00000  Uiso   1.00
O553   O     0.70725   0.07307   0.27302   0.00000  Uiso   1.00
O554   O     0.79276   0.42692   0.72698   0.00000  Uiso   1.00
O555   O     0.92693   0.20724   0.27302   0.00000  Uiso   1.00
O556   O     0.57308   0.29276   0.72698   0.00000  Uiso   1.00
O557   O     0.79276   0.42692   0.27302   0.00000  Uiso   1.00
O558   O     0.70725   0.07307   0.72698   0.00000  Uiso   1.00
O559   O     0.57308   0.29276   0.27302   0.00000  Uiso   1.00
O560   O     0.92693   0.20724   0.72698   0.00000  Uiso   1.00
O561   O     0.70725   0.42693   0.72698   0.00000  Uiso   1.00
O562   O     0.79276   0.07307   0.27302   0.00000  Uiso   1.00
O563   O     0.92693   0.29275   0.72698   0.00000  Uiso   1.00
O564   O     0.57308   0.20725   0.27302   0.00000  Uiso   1.00
O565   O     0.79276   0.07307   0.72698   0.00000  Uiso   1.00
O566   O     0.70725   0.42693   0.27302   0.00000  Uiso   1.00
O567   O     0.57308   0.20725   0.72698   0.00000  Uiso   1.00
O568   O     0.92693   0.29275   0.27302   0.00000  Uiso   1.00
O569   O     0.95725   0.32307   0.77302   0.00000  Uiso   1.00
O570   O     0.54276   0.17693   0.22698   0.00000  Uiso   1.00
O571   O     0.67693   0.45725   0.77302   0.00000  Uiso   1.00
O572   O     0.82308   0.04275   0.22698   0.00000  Uiso   1.00
O573   O     0.54276   0.17693   0.77302   0.00000  Uiso   1.00
O574   O     0.95725   0.32307   0.22698   0.00000  Uiso   1.00
O575   O     0.82308   0.04275   0.77302   0.00000  Uiso   1.00
O576   O     0.67693   0.45725   0.22698   0.00000  Uiso   1.00
O577   O     0.95725   0.17692   0.22698   0.00000  Uiso   1.00
O578   O     0.54276   0.32308   0.77302   0.00000  Uiso   1.00
O579   O     0.67693   0.04275   0.22698   0.00000  Uiso   1.00
O580   O     0.82308   0.45724   0.77302   0.00000  Uiso   1.00
O581   O     0.54276   0.32308   0.22698   0.00000  Uiso   1.00
O582   O     0.95725   0.17692   0.77302   0.00000  Uiso   1.00
O583   O     0.82308   0.45724   0.22698   0.00000  Uiso   1.00
O584   O     0.67693   0.04275   0.77302   0.00000  Uiso   1.00
Zn585  Zn    0.70660  -0.00000   0.21735   0.00000  Uiso   1.00
Zn586  Zn    0.79341  -0.00000   0.78265   0.00000  Uiso   1.00
Zn587  Zn    0.50000   0.20660   0.21735   0.00000  Uiso   1.00
Zn588  Zn    0.50000   0.29340   0.78265   0.00000  Uiso   1.00
Zn589  Zn    0.79341  -0.00000   0.21735   0.00000  Uiso   1.00
Zn590  Zn    0.70660  -0.00000   0.78265   0.00000  Uiso   1.00
Zn591  Zn    0.50000   0.29340   0.21735   0.00000  Uiso   1.00
Zn592  Zn    0.50000   0.20660   0.78265   0.00000  Uiso   1.00
Zn593  Zn    0.95660   0.25000   0.71735   0.00000  Uiso   1.00
Zn594  Zn    0.54341   0.25000   0.28265   0.00000  Uiso   1.00
Zn595  Zn    0.75000   0.45660   0.71735   0.00000  Uiso   1.00
Zn596  Zn    0.75000   0.04340   0.28265   0.00000  Uiso   1.00
Zn597  Zn    0.54341   0.25000   0.71735   0.00000  Uiso   1.00
Zn598  Zn    0.95660   0.25000   0.28265   0.00000  Uiso   1.00
Zn599  Zn    0.75000   0.04340   0.71735   0.00000  Uiso   1.00
Zn600  Zn    0.75000   0.45660   0.28265   0.00000  Uiso   1.00
N601   N     0.95065   0.29496   0.39673   0.00000  Uiso   1.00
H602   H     0.92404   0.29506   0.40638   0.00000  Uiso   1.00
C603   C     0.96457   0.33066   0.38672   0.00000  Uiso   1.00
H604   H     0.96901   0.34718   0.41329   0.00000  Uiso   1.00
H605   H     0.94459   0.34493   0.36786   0.00000  Uiso   1.00
H606   H     0.99069   0.32814   0.37060   0.00000  Uiso   1.00
N607   N     0.54936   0.20504   0.60327   0.00000  Uiso   1.00
H608   H     0.57596   0.20494   0.59362   0.00000  Uiso   1.00
C609   C     0.53544   0.16935   0.61328   0.00000  Uiso   1.00
H610   H     0.53099   0.15282   0.58671   0.00000  Uiso   1.00
H611   H     0.50932   0.17186   0.62941   0.00000  Uiso   1.00
H612   H     0.55542   0.15507   0.63214   0.00000  Uiso   1.00
N613   N     0.70482   0.04916   0.39672   0.00000  Uiso   1.00
H614   H     0.70459   0.07576   0.40639   0.00000  Uiso   1.00
C615   C     0.66921   0.03507   0.38667   0.00000  Uiso   1.00
H616   H     0.65270   0.03047   0.41322   0.00000  Uiso   1.00
H617   H     0.67188   0.00900   0.37047   0.00000  Uiso   1.00
H618   H     0.65482   0.05501   0.36785   0.00000  Uiso   1.00
N619   N     0.79517   0.45084   0.60328   0.00000  Uiso   1.00
H620   H     0.79540   0.42423   0.59362   0.00000  Uiso   1.00
C621   C     0.83079   0.46493   0.61331   0.00000  Uiso   1.00
H622   H     0.84731   0.46944   0.58675   0.00000  Uiso   1.00
H623   H     0.84516   0.44502   0.63218   0.00000  Uiso   1.00
H624   H     0.82815   0.49103   0.62943   0.00000  Uiso   1.00
N625   N     0.54935   0.20504   0.39673   0.00000  Uiso   1.00
H626   H     0.57596   0.20494   0.40638   0.00000  Uiso   1.00
C627   C     0.53543   0.16934   0.38672   0.00000  Uiso   1.00
H628   H     0.53099   0.15282   0.41329   0.00000  Uiso   1.00
H629   H     0.55541   0.15506   0.36786   0.00000  Uiso   1.00
H630   H     0.50931   0.17186   0.37060   0.00000  Uiso   1.00
N631   N     0.95064   0.29496   0.60327   0.00000  Uiso   1.00
H632   H     0.92404   0.29506   0.59362   0.00000  Uiso   1.00
C633   C     0.96456   0.33065   0.61328   0.00000  Uiso   1.00
H634   H     0.96901   0.34718   0.58671   0.00000  Uiso   1.00
H635   H     0.99068   0.32814   0.62941   0.00000  Uiso   1.00
H636   H     0.94458   0.34493   0.63214   0.00000  Uiso   1.00
N637   N     0.79517   0.45083   0.39672   0.00000  Uiso   1.00
H638   H     0.79539   0.42423   0.40638   0.00000  Uiso   1.00
C639   C     0.83079   0.46491   0.38669   0.00000  Uiso   1.00
H640   H     0.84731   0.46945   0.41325   0.00000  Uiso   1.00
H641   H     0.82815   0.49101   0.37055   0.00000  Uiso   1.00
H642   H     0.84516   0.44499   0.36784   0.00000  Uiso   1.00
N643   N     0.70484   0.04918   0.60328   0.00000  Uiso   1.00
H644   H     0.70462   0.07578   0.59361   0.00000  Uiso   1.00
C645   C     0.66921   0.03511   0.61332   0.00000  Uiso   1.00
H646   H     0.65268   0.03059   0.58676   0.00000  Uiso   1.00
H647   H     0.65486   0.05504   0.63218   0.00000  Uiso   1.00
H648   H     0.67184   0.00901   0.62945   0.00000  Uiso   1.00
N649   N     0.70065   0.04496   0.89673   0.00000  Uiso   1.00
H650   H     0.67404   0.04506   0.90638   0.00000  Uiso   1.00
C651   C     0.71457   0.08066   0.88672   0.00000  Uiso   1.00
H652   H     0.71901   0.09718   0.91329   0.00000  Uiso   1.00
H653   H     0.69459   0.09494   0.86786   0.00000  Uiso   1.00
H654   H     0.74069   0.07814   0.87059   0.00000  Uiso   1.00
N655   N     0.79935   0.45504   0.10327   0.00000  Uiso   1.00
H656   H     0.82596   0.45494   0.09362   0.00000  Uiso   1.00
C657   C     0.78543   0.41934   0.11328   0.00000  Uiso   1.00
H658   H     0.78099   0.40282   0.08671   0.00000  Uiso   1.00
H659   H     0.75931   0.42186   0.12941   0.00000  Uiso   1.00
H660   H     0.80541   0.40506   0.13214   0.00000  Uiso   1.00
N661   N     0.95504   0.29936   0.89673   0.00000  Uiso   1.00
H662   H     0.95495   0.32597   0.90638   0.00000  Uiso   1.00
C663   C     0.91935   0.28544   0.88672   0.00000  Uiso   1.00
H664   H     0.90282   0.28100   0.91329   0.00000  Uiso   1.00
H665   H     0.92186   0.25933   0.87059   0.00000  Uiso   1.00
H666   H     0.90507   0.30543   0.86786   0.00000  Uiso   1.00
N667   N     0.54496   0.20064   0.10327   0.00000  Uiso   1.00
H668   H     0.54505   0.17403   0.09362   0.00000  Uiso   1.00
C669   C     0.58065   0.21456   0.11328   0.00000  Uiso   1.00
H670   H     0.59718   0.21900   0.08671   0.00000  Uiso   1.00
H671   H     0.59493   0.19458   0.13214   0.00000  Uiso   1.00
H672   H     0.57814   0.24067   0.12941   0.00000  Uiso   1.00
N673   N     0.79935   0.45504   0.89673   0.00000  Uiso   1.00
H674   H     0.82596   0.45494   0.90638   0.00000  Uiso   1.00
C675   C     0.78543   0.41934   0.88672   0.00000  Uiso   1.00
H676   H     0.78099   0.40282   0.91329   0.00000  Uiso   1.00
H677   H     0.80541   0.40507   0.86786   0.00000  Uiso   1.00
H678   H     0.75931   0.42186   0.87059   0.00000  Uiso   1.00
N679   N     0.70065   0.04496   0.10327   0.00000  Uiso   1.00
H680   H     0.67404   0.04506   0.09362   0.00000  Uiso   1.00
C681   C     0.71457   0.08066   0.11328   0.00000  Uiso   1.00
H682   H     0.71901   0.09718   0.08671   0.00000  Uiso   1.00
H683   H     0.74068   0.07814   0.12941   0.00000  Uiso   1.00
H684   H     0.69459   0.09493   0.13214   0.00000  Uiso   1.00
N685   N     0.54496   0.20064   0.89673   0.00000  Uiso   1.00
H686   H     0.54505   0.17403   0.90638   0.00000  Uiso   1.00
C687   C     0.58065   0.21456   0.88672   0.00000  Uiso   1.00
H688   H     0.59718   0.21900   0.91329   0.00000  Uiso   1.00
H689   H     0.57814   0.24067   0.87059   0.00000  Uiso   1.00
H690   H     0.59493   0.19457   0.86786   0.00000  Uiso   1.00
N691   N     0.95504   0.29936   0.10327   0.00000  Uiso   1.00
H692   H     0.95495   0.32597   0.09362   0.00000  Uiso   1.00
C693   C     0.91935   0.28544   0.11328   0.00000  Uiso   1.00
H694   H     0.90282   0.28100   0.08671   0.00000  Uiso   1.00
H695   H     0.90507   0.30543   0.13214   0.00000  Uiso   1.00
H696   H     0.92186   0.25933   0.12941   0.00000  Uiso   1.00
C697   C     0.47529   0.77257   0.41823   0.00000  Uiso   1.00
C698   C     0.02471   0.72743   0.58177   0.00000  Uiso   1.00
C699   C     0.22732   0.52461   0.41823   0.00000  Uiso   1.00
C700   C     0.27268   0.97538   0.58177   0.00000  Uiso   1.00
C701   C     0.02471   0.72743   0.41823   0.00000  Uiso   1.00
C702   C     0.47529   0.77257   0.58177   0.00000  Uiso   1.00
C703   C     0.27268   0.97538   0.41823   0.00000  Uiso   1.00
C704   C     0.22732   0.52462   0.58177   0.00000  Uiso   1.00
C705   C     0.22529   0.52257   0.91823   0.00000  Uiso   1.00
C706   C     0.27471   0.97743   0.08177   0.00000  Uiso   1.00
C707   C     0.47743   0.77472   0.91823   0.00000  Uiso   1.00
C708   C     0.02257   0.72528   0.08177   0.00000  Uiso   1.00
C709   C     0.27471   0.97743   0.91823   0.00000  Uiso   1.00
C710   C     0.22529   0.52257   0.08177   0.00000  Uiso   1.00
C711   C     0.02257   0.72528   0.91823   0.00000  Uiso   1.00
C712   C     0.47743   0.77472   0.08177   0.00000  Uiso   1.00
C713   C     0.00000   0.75000   0.39820   0.00000  Uiso   1.00
C714   C     0.00000   0.75000   0.60180   0.00000  Uiso   1.00
C715   C     0.25000   0.50000   0.39819   0.00000  Uiso   1.00
C716   C     0.25000   0.50000   0.60181   0.00000  Uiso   1.00
C717   C     0.25000   0.50000   0.89820   0.00000  Uiso   1.00
C718   C     0.25000   0.50000   0.10180   0.00000  Uiso   1.00
C719   C     0.00000   0.75000   0.89820   0.00000  Uiso   1.00
C720   C     0.00000   0.75000   0.10180   0.00000  Uiso   1.00
C721   C     0.04789   0.70398   0.47993   0.00000  Uiso   1.00
C722   C     0.45211   0.79602   0.52007   0.00000  Uiso   1.00
C723   C     0.29624   0.95232   0.47993   0.00000  Uiso   1.00
C724   C     0.20375   0.54768   0.52007   0.00000  Uiso   1.00
C725   C     0.45211   0.79602   0.47993   0.00000  Uiso   1.00
C726   C     0.04789   0.70398   0.52007   0.00000  Uiso   1.00
C727   C     0.20375   0.54767   0.47993   0.00000  Uiso   1.00
C728   C     0.29624   0.95232   0.52007   0.00000  Uiso   1.00
C729   C     0.29789   0.95398   0.97993   0.00000  Uiso   1.00
C730   C     0.20211   0.54602   0.02007   0.00000  Uiso   1.00
C731   C     0.04602   0.70210   0.97993   0.00000  Uiso   1.00
C732   C     0.45398   0.79790   0.02007   0.00000  Uiso   1.00
C733   C     0.20211   0.54602   0.97993   0.00000  Uiso   1.00
C734   C     0.29789   0.95398   0.02007   0.00000  Uiso   1.00
C735   C     0.45398   0.79790   0.97993   0.00000  Uiso   1.00
C736   C     0.04602   0.70210   0.02007   0.00000  Uiso   1.00
C737   C     0.25000   0.50000   0.35582   0.00000  Uiso   1.00
C738   C     0.25000   0.50000   0.64418   0.00000  Uiso   1.00
C739   C     0.00000   0.75000   0.35582   0.00000  Uiso   1.00
C740   C     0.00000   0.75000   0.64418   0.00000  Uiso   1.00
C741   C     0.00000   0.75000   0.85582   0.00000  Uiso   1.00
C742   C     0.00000   0.75000   0.14418   0.00000  Uiso   1.00
C743   C     0.25000   0.50000   0.85582   0.00000  Uiso   1.00
C744   C     0.25000   0.50000   0.14418   0.00000  Uiso   1.00
C745   C     0.17995   0.57005   0.25000   0.00000  Uiso   1.00
C746   C     0.32005   0.92995   0.75000   0.00000  Uiso   1.00
C747   C     0.42994   0.67994   0.25000   0.00000  Uiso   1.00
C748   C     0.07006   0.82006   0.75000   0.00000  Uiso   1.00
C749   C     0.32005   0.92995   0.25000   0.00000  Uiso   1.00
C750   C     0.17995   0.57005   0.75000   0.00000  Uiso   1.00
C751   C     0.07006   0.82006   0.25000   0.00000  Uiso   1.00
C752   C     0.42994   0.67994   0.75000   0.00000  Uiso   1.00
C753   C     0.17994   0.92994   0.75000   0.00000  Uiso   1.00
C754   C     0.32006   0.57006   0.25000   0.00000  Uiso   1.00
C755   C     0.42995   0.82005   0.75000   0.00000  Uiso   1.00
C756   C     0.07005   0.67995   0.25000   0.00000  Uiso   1.00
C757   C     0.32006   0.57006   0.75000   0.00000  Uiso   1.00
C758   C     0.17994   0.92994   0.25000   0.00000  Uiso   1.00
C759   C     0.07005   0.67995   0.75000   0.00000  Uiso   1.00
C760   C     0.42995   0.82005   0.25000   0.00000  Uiso   1.00
C761   C     0.12193   0.90480   0.22491   0.00000  Uiso   1.00
C762   C     0.37807   0.59520   0.77509   0.00000  Uiso   1.00
C763   C     0.09681   0.62356   0.22274   0.00000  Uiso   1.00
C764   C     0.40319   0.87644   0.77726   0.00000  Uiso   1.00
C765   C     0.37807   0.59520   0.22491   0.00000  Uiso   1.00
C766   C     0.12193   0.90480   0.77509   0.00000  Uiso   1.00
C767   C     0.40319   0.87644   0.22274   0.00000  Uiso   1.00
C768   C     0.09681   0.62356   0.77726   0.00000  Uiso   1.00
C769   C     0.12356   0.59681   0.77726   0.00000  Uiso   1.00
C770   C     0.37644   0.90319   0.22274   0.00000  Uiso   1.00
C771   C     0.09520   0.87807   0.77509   0.00000  Uiso   1.00
C772   C     0.40480   0.62193   0.22491   0.00000  Uiso   1.00
C773   C     0.37644   0.90319   0.77726   0.00000  Uiso   1.00
C774   C     0.12356   0.59681   0.22274   0.00000  Uiso   1.00
C775   C     0.40480   0.62193   0.77509   0.00000  Uiso   1.00
C776   C     0.09520   0.87807   0.22491   0.00000  Uiso   1.00
C777   C     0.37193   0.65480   0.72491   0.00000  Uiso   1.00
C778   C     0.12807   0.84520   0.27509   0.00000  Uiso   1.00
C779   C     0.34681   0.87355   0.72274   0.00000  Uiso   1.00
C780   C     0.15319   0.62645   0.27726   0.00000  Uiso   1.00
C781   C     0.12807   0.84520   0.72491   0.00000  Uiso   1.00
C782   C     0.37193   0.65480   0.27509   0.00000  Uiso   1.00
C783   C     0.15319   0.62645   0.72274   0.00000  Uiso   1.00
C784   C     0.34681   0.87355   0.27726   0.00000  Uiso   1.00
C785   C     0.37355   0.84681   0.27726   0.00000  Uiso   1.00
C786   C     0.12645   0.65319   0.72274   0.00000  Uiso   1.00
C787   C     0.34520   0.62807   0.27509   0.00000  Uiso   1.00
C788   C     0.15480   0.87193   0.72491   0.00000  Uiso   1.00
C789   C     0.12645   0.65319   0.27726   0.00000  Uiso   1.00
C790   C     0.37355   0.84681   0.72274   0.00000  Uiso   1.00
C791   C     0.15480   0.87193   0.27509   0.00000  Uiso   1.00
C792   C     0.34520   0.62807   0.72491   0.00000  Uiso   1.00
C793   C     0.02454   0.72713   0.45905   0.00000  Uiso   1.00
C794   C     0.47547   0.77287   0.54095   0.00000  Uiso   1.00
C795   C     0.27298   0.97557   0.45905   0.00000  Uiso   1.00
C796   C     0.22702   0.52443   0.54095   0.00000  Uiso   1.00
C797   C     0.47547   0.77287   0.45905   0.00000  Uiso   1.00
C798   C     0.02454   0.72713   0.54095   0.00000  Uiso   1.00
C799   C     0.22701   0.52443   0.45905   0.00000  Uiso   1.00
C800   C     0.27298   0.97557   0.54095   0.00000  Uiso   1.00
C801   C     0.27453   0.97713   0.95905   0.00000  Uiso   1.00
C802   C     0.22547   0.52287   0.04095   0.00000  Uiso   1.00
C803   C     0.02287   0.72546   0.95905   0.00000  Uiso   1.00
C804   C     0.47713   0.77454   0.04095   0.00000  Uiso   1.00
C805   C     0.22547   0.52287   0.95905   0.00000  Uiso   1.00
C806   C     0.27453   0.97713   0.04095   0.00000  Uiso   1.00
C807   C     0.47713   0.77454   0.95905   0.00000  Uiso   1.00
C808   C     0.02287   0.72546   0.04095   0.00000  Uiso   1.00
C809   C     0.09813   0.84813   0.25000   0.00000  Uiso   1.00
C810   C     0.40187   0.65187   0.75000   0.00000  Uiso   1.00
C811   C     0.15188   0.59813   0.25000   0.00000  Uiso   1.00
C812   C     0.34813   0.90187   0.75000   0.00000  Uiso   1.00
C813   C     0.40187   0.65187   0.25000   0.00000  Uiso   1.00
C814   C     0.09813   0.84813   0.75000   0.00000  Uiso   1.00
C815   C     0.34813   0.90187   0.25000   0.00000  Uiso   1.00
C816   C     0.15187   0.59813   0.75000   0.00000  Uiso   1.00
C817   C     0.09813   0.65187   0.75000   0.00000  Uiso   1.00
C818   C     0.40187   0.84812   0.25000   0.00000  Uiso   1.00
C819   C     0.15187   0.90187   0.75000   0.00000  Uiso   1.00
C820   C     0.34813   0.59813   0.25000   0.00000  Uiso   1.00
C821   C     0.40187   0.84812   0.75000   0.00000  Uiso   1.00
C822   C     0.09813   0.65187   0.25000   0.00000  Uiso   1.00
C823   C     0.34813   0.59813   0.75000   0.00000  Uiso   1.00
C824   C     0.15187   0.90187   0.25000   0.00000  Uiso   1.00
C825   C     0.00000   0.75000   0.47948   0.00000  Uiso   1.00
C826   C     0.00000   0.75000   0.52052   0.00000  Uiso   1.00
C827   C     0.25000   0.50000   0.47948   0.00000  Uiso   1.00
C828   C     0.25000   0.50000   0.52052   0.00000  Uiso   1.00
C829   C     0.25000   0.50000   0.97948   0.00000  Uiso   1.00
C830   C     0.25000   0.50000   0.02052   0.00000  Uiso   1.00
C831   C     0.00000   0.75000   0.97948   0.00000  Uiso   1.00
C832   C     0.00000   0.75000   0.02052   0.00000  Uiso   1.00
H833   H     0.06628   0.68522   0.46568   0.00000  Uiso   1.00
H834   H     0.43373   0.81478   0.53432   0.00000  Uiso   1.00
H835   H     0.31509   0.93402   0.46568   0.00000  Uiso   1.00
H836   H     0.18490   0.56597   0.53432   0.00000  Uiso   1.00
H837   H     0.43373   0.81478   0.46568   0.00000  Uiso   1.00
H838   H     0.06628   0.68522   0.53432   0.00000  Uiso   1.00
H839   H     0.18490   0.56596   0.46568   0.00000  Uiso   1.00
H840   H     0.31509   0.93402   0.53432   0.00000  Uiso   1.00
H841   H     0.31627   0.93522   0.96568   0.00000  Uiso   1.00
H842   H     0.18373   0.56478   0.03432   0.00000  Uiso   1.00
H843   H     0.06477   0.68372   0.96568   0.00000  Uiso   1.00
H844   H     0.43523   0.81628   0.03432   0.00000  Uiso   1.00
H845   H     0.18373   0.56478   0.96568   0.00000  Uiso   1.00
H846   H     0.31627   0.93522   0.03432   0.00000  Uiso   1.00
H847   H     0.43523   0.81628   0.96568   0.00000  Uiso   1.00
H848   H     0.06477   0.68372   0.03432   0.00000  Uiso   1.00
H849   H     0.11912   0.92770   0.20529   0.00000  Uiso   1.00
H850   H     0.38088   0.57230   0.79471   0.00000  Uiso   1.00
H851   H     0.07523   0.62209   0.20134   0.00000  Uiso   1.00
H852   H     0.42477   0.87791   0.79865   0.00000  Uiso   1.00
H853   H     0.38088   0.57230   0.20529   0.00000  Uiso   1.00
H854   H     0.11912   0.92770   0.79471   0.00000  Uiso   1.00
H855   H     0.42477   0.87791   0.20135   0.00000  Uiso   1.00
H856   H     0.07523   0.62209   0.79866   0.00000  Uiso   1.00
H857   H     0.12209   0.57523   0.79866   0.00000  Uiso   1.00
H858   H     0.37791   0.92477   0.20135   0.00000  Uiso   1.00
H859   H     0.07230   0.88088   0.79471   0.00000  Uiso   1.00
H860   H     0.42770   0.61912   0.20529   0.00000  Uiso   1.00
H861   H     0.37791   0.92477   0.79865   0.00000  Uiso   1.00
H862   H     0.12209   0.57523   0.20134   0.00000  Uiso   1.00
H863   H     0.42770   0.61912   0.79471   0.00000  Uiso   1.00
H864   H     0.07230   0.88088   0.20529   0.00000  Uiso   1.00
H865   H     0.36912   0.67770   0.70529   0.00000  Uiso   1.00
H866   H     0.13088   0.82230   0.29471   0.00000  Uiso   1.00
H867   H     0.32523   0.87209   0.70135   0.00000  Uiso   1.00
H868   H     0.17477   0.62791   0.29865   0.00000  Uiso   1.00
H869   H     0.13088   0.82230   0.70529   0.00000  Uiso   1.00
H870   H     0.36912   0.67770   0.29471   0.00000  Uiso   1.00
H871   H     0.17477   0.62791   0.70135   0.00000  Uiso   1.00
H872   H     0.32523   0.87209   0.29865   0.00000  Uiso   1.00
H873   H     0.37209   0.82523   0.29865   0.00000  Uiso   1.00
H874   H     0.12791   0.67477   0.70134   0.00000  Uiso   1.00
H875   H     0.32230   0.63088   0.29471   0.00000  Uiso   1.00
H876   H     0.17770   0.86912   0.70529   0.00000  Uiso   1.00
H877   H     0.12791   0.67477   0.29865   0.00000  Uiso   1.00
H878   H     0.37209   0.82523   0.70135   0.00000  Uiso   1.00
H879   H     0.17770   0.86912   0.29471   0.00000  Uiso   1.00
H880   H     0.32230   0.63088   0.70529   0.00000  Uiso   1.00
O881   O     0.25000   0.50000   0.25000   0.00000  Uiso   1.00
O882   O     0.25000   0.50000   0.75000   0.00000  Uiso   1.00
O883   O     0.00000   0.75000   0.25000   0.00000  Uiso   1.00
O884   O     0.00000   0.75000   0.75000   0.00000  Uiso   1.00
O885   O     0.25000   0.96964   0.33755   0.00000  Uiso   1.00
O886   O     0.25000   0.53036   0.66245   0.00000  Uiso   1.00
O887   O     0.03037   0.75000   0.33755   0.00000  Uiso   1.00
O888   O     0.46964   0.75000   0.66245   0.00000  Uiso   1.00
O889   O     0.25000   0.53036   0.33755   0.00000  Uiso   1.00
O890   O     0.25000   0.96964   0.66245   0.00000  Uiso   1.00
O891   O     0.46964   0.75000   0.33755   0.00000  Uiso   1.00
O892   O     0.03037   0.75000   0.66245   0.00000  Uiso   1.00
O893   O     0.00000   0.71963   0.83755   0.00000  Uiso   1.00
O894   O     0.00000   0.78037   0.16245   0.00000  Uiso   1.00
O895   O     0.28037   0.50000   0.83755   0.00000  Uiso   1.00
O896   O     0.21964   0.50000   0.16245   0.00000  Uiso   1.00
O897   O     0.00000   0.78037   0.83755   0.00000  Uiso   1.00
O898   O     0.00000   0.71963   0.16245   0.00000  Uiso   1.00
O899   O     0.21964   0.50000   0.83755   0.00000  Uiso   1.00
O900   O     0.28037   0.50000   0.16245   0.00000  Uiso   1.00
O901   O     0.20725   0.57307   0.27302   0.00000  Uiso   1.00
O902   O     0.29276   0.92692   0.72698   0.00000  Uiso   1.00
O903   O     0.42693   0.70724   0.27302   0.00000  Uiso   1.00
O904   O     0.07308   0.79276   0.72698   0.00000  Uiso   1.00
O905   O     0.29276   0.92692   0.27302   0.00000  Uiso   1.00
O906   O     0.20725   0.57307   0.72698   0.00000  Uiso   1.00
O907   O     0.07308   0.79276   0.27302   0.00000  Uiso   1.00
O908   O     0.42693   0.70724   0.72698   0.00000  Uiso   1.00
O909   O     0.20725   0.92693   0.72698   0.00000  Uiso   1.00
O910   O     0.29276   0.57307   0.27302   0.00000  Uiso   1.00
O911   O     0.42693   0.79275   0.72698   0.00000  Uiso   1.00
O912   O     0.07308   0.70725   0.27302   0.00000  Uiso   1.00
O913   O     0.29276   0.57307   0.72698   0.00000  Uiso   1.00
O914   O     0.20725   0.92693   0.27302   0.00000  Uiso   1.00
O915   O     0.07308   0.70725   0.72698   0.00000  Uiso   1.00
O916   O     0.42693   0.79275   0.27302   0.00000  Uiso   1.00
O917   O     0.45725   0.82307   0.77302   0.00000  Uiso   1.00
O918   O     0.04276   0.67693   0.22698   0.00000  Uiso   1.00
O919   O     0.17693   0.95725   0.77302   0.00000  Uiso   1.00
O920   O     0.32308   0.54275   0.22698   0.00000  Uiso   1.00
O921   O     0.04276   0.67693   0.77302   0.00000  Uiso   1.00
O922   O     0.45725   0.82307   0.22698   0.00000  Uiso   1.00
O923   O     0.32308   0.54275   0.77302   0.00000  Uiso   1.00
O924   O     0.17693   0.95725   0.22698   0.00000  Uiso   1.00
O925   O     0.45725   0.67692   0.22698   0.00000  Uiso   1.00
O926   O     0.04276   0.82308   0.77302   0.00000  Uiso   1.00
O927   O     0.17693   0.54275   0.22698   0.00000  Uiso   1.00
O928   O     0.32308   0.95724   0.77302   0.00000  Uiso   1.00
O929   O     0.04276   0.82308   0.22698   0.00000  Uiso   1.00
O930   O     0.45725   0.67692   0.77302   0.00000  Uiso   1.00
O931   O     0.32308   0.95724   0.22698   0.00000  Uiso   1.00
O932   O     0.17693   0.54275   0.77302   0.00000  Uiso   1.00
Zn933  Zn    0.20660   0.50000   0.21735   0.00000  Uiso   1.00
Zn934  Zn    0.29341   0.50000   0.78265   0.00000  Uiso   1.00
Zn935  Zn    0.00000   0.70660   0.21735   0.00000  Uiso   1.00
Zn936  Zn    0.00000   0.79340   0.78265   0.00000  Uiso   1.00
Zn937  Zn    0.29341   0.50000   0.21735   0.00000  Uiso   1.00
Zn938  Zn    0.20660   0.50000   0.78265   0.00000  Uiso   1.00
Zn939  Zn    0.00000   0.79340   0.21735   0.00000  Uiso   1.00
Zn940  Zn    0.00000   0.70660   0.78265   0.00000  Uiso   1.00
Zn941  Zn    0.45660   0.75000   0.71735   0.00000  Uiso   1.00
Zn942  Zn    0.04341   0.75000   0.28265   0.00000  Uiso   1.00
Zn943  Zn    0.25000   0.95660   0.71735   0.00000  Uiso   1.00
Zn944  Zn    0.25000   0.54340   0.28265   0.00000  Uiso   1.00
Zn945  Zn    0.04341   0.75000   0.71735   0.00000  Uiso   1.00
Zn946  Zn    0.45660   0.75000   0.28265   0.00000  Uiso   1.00
Zn947  Zn    0.25000   0.54340   0.71735   0.00000  Uiso   1.00
Zn948  Zn    0.25000   0.95660   0.28265   0.00000  Uiso   1.00
N949   N     0.45065   0.79496   0.39673   0.00000  Uiso   1.00
H950   H     0.42404   0.79506   0.40638   0.00000  Uiso   1.00
C951   C     0.46457   0.83066   0.38672   0.00000  Uiso   1.00
H952   H     0.46901   0.84718   0.41329   0.00000  Uiso   1.00
H953   H     0.44459   0.84493   0.36786   0.00000  Uiso   1.00
H954   H     0.49069   0.82814   0.37060   0.00000  Uiso   1.00
N955   N     0.04936   0.70504   0.60327   0.00000  Uiso   1.00
H956   H     0.07596   0.70494   0.59362   0.00000  Uiso   1.00
C957   C     0.03544   0.66935   0.61328   0.00000  Uiso   1.00
H958   H     0.03099   0.65282   0.58671   0.00000  Uiso   1.00
H959   H     0.00932   0.67186   0.62941   0.00000  Uiso   1.00
H960   H     0.05542   0.65507   0.63214   0.00000  Uiso   1.00
N961   N     0.20482   0.54916   0.39672   0.00000  Uiso   1.00
H962   H     0.20459   0.57576   0.40639   0.00000  Uiso   1.00
C963   C     0.16921   0.53507   0.38667   0.00000  Uiso   1.00
H964   H     0.15270   0.53047   0.41322   0.00000  Uiso   1.00
H965   H     0.17188   0.50900   0.37047   0.00000  Uiso   1.00
H966   H     0.15482   0.55501   0.36785   0.00000  Uiso   1.00
N967   N     0.29517   0.95084   0.60328   0.00000  Uiso   1.00
H968   H     0.29540   0.92423   0.59362   0.00000  Uiso   1.00
C969   C     0.33079   0.96493   0.61331   0.00000  Uiso   1.00
H970   H     0.34731   0.96944   0.58675   0.00000  Uiso   1.00
H971   H     0.34516   0.94502   0.63218   0.00000  Uiso   1.00
H972   H     0.32815   0.99103   0.62943   0.00000  Uiso   1.00
N973   N     0.04935   0.70504   0.39673   0.00000  Uiso   1.00
H974   H     0.07596   0.70494   0.40638   0.00000  Uiso   1.00
C975   C     0.03543   0.66934   0.38672   0.00000  Uiso   1.00
H976   H     0.03099   0.65282   0.41329   0.00000  Uiso   1.00
H977   H     0.05541   0.65506   0.36786   0.00000  Uiso   1.00
H978   H     0.00931   0.67186   0.37060   0.00000  Uiso   1.00
N979   N     0.45064   0.79496   0.60327   0.00000  Uiso   1.00
H980   H     0.42404   0.79506   0.59362   0.00000  Uiso   1.00
C981   C     0.46456   0.83065   0.61328   0.00000  Uiso   1.00
H982   H     0.46901   0.84718   0.58671   0.00000  Uiso   1.00
H983   H     0.49068   0.82814   0.62941   0.00000  Uiso   1.00
H984   H     0.44458   0.84493   0.63214   0.00000  Uiso   1.00
N985   N     0.29517   0.95083   0.39672   0.00000  Uiso   1.00
H986   H     0.29539   0.92423   0.40638   0.00000  Uiso   1.00
C987   C     0.33079   0.96491   0.38669   0.00000  Uiso   1.00
H988   H     0.34731   0.96945   0.41325   0.00000  Uiso   1.00
H989   H     0.32815   0.99101   0.37055   0.00000  Uiso   1.00
H990   H     0.34516   0.94499   0.36784   0.00000  Uiso   1.00
N991   N     0.20484   0.54918   0.60328   0.00000  Uiso   1.00
H992   H     0.20462   0.57578   0.59361   0.00000  Uiso   1.00
C993   C     0.16921   0.53511   0.61332   0.00000  Uiso   1.00
H994   H     0.15268   0.53059   0.58676   0.00000  Uiso   1.00
H995   H     0.15486   0.55504   0.63218   0.00000  Uiso   1.00
H996   H     0.17184   0.50901   0.62945   0.00000  Uiso   1.00
N997   N     0.20065   0.54496   0.89673   0.00000  Uiso   1.00
H998   H     0.17404   0.54506   0.90638   0.00000  Uiso   1.00
C999   C     0.21457   0.58066   0.88672   0.00000  Uiso   1.00
H1000  H     0.21901   0.59718   0.91329   0.00000  Uiso   1.00
H1001  H     0.19459   0.59494   0.86786   0.00000  Uiso   1.00
H1002  H     0.24069   0.57814   0.87059   0.00000  Uiso   1.00
N1003  N     0.29935   0.95504   0.10327   0.00000  Uiso   1.00
H1004  H     0.32596   0.95494   0.09362   0.00000  Uiso   1.00
C1005  C     0.28543   0.91934   0.11328   0.00000  Uiso   1.00
H1006  H     0.28099   0.90282   0.08671   0.00000  Uiso   1.00
H1007  H     0.25931   0.92186   0.12941   0.00000  Uiso   1.00
H1008  H     0.30541   0.90506   0.13214   0.00000  Uiso   1.00
N1009  N     0.45504   0.79936   0.89673   0.00000  Uiso   1.00
H1010  H     0.45495   0.82597   0.90638   0.00000  Uiso   1.00
C1011  C     0.41935   0.78544   0.88672   0.00000  Uiso   1.00
H1012  H     0.40282   0.78100   0.91329   0.00000  Uiso   1.00
H1013  H     0.42186   0.75933   0.87059   0.00000  Uiso   1.00
H1014  H     0.40507   0.80543   0.86786   0.00000  Uiso   1.00
N1015  N     0.04496   0.70064   0.10327   0.00000  Uiso   1.00
H1016  H     0.04505   0.67403   0.09362   0.00000  Uiso   1.00
C1017  C     0.08065   0.71456   0.11328   0.00000  Uiso   1.00
H1018  H     0.09718   0.71900   0.08671   0.00000  Uiso   1.00
H1019  H     0.09493   0.69458   0.13214   0.00000  Uiso   1.00
H1020  H     0.07814   0.74067   0.12941   0.00000  Uiso   1.00
N1021  N     0.29935   0.95504   0.89673   0.00000  Uiso   1.00
H1022  H     0.32596   0.95494   0.90638   0.00000  Uiso   1.00
C1023  C     0.28543   0.91934   0.88672   0.00000  Uiso   1.00
H1024  H     0.28099   0.90282   0.91329   0.00000  Uiso   1.00
H1025  H     0.30541   0.90507   0.86786   0.00000  Uiso   1.00
H1026  H     0.25931   0.92186   0.87059   0.00000  Uiso   1.00
N1027  N     0.20065   0.54496   0.10327   0.00000  Uiso   1.00
H1028  H     0.17404   0.54506   0.09362   0.00000  Uiso   1.00
C1029  C     0.21457   0.58066   0.11328   0.00000  Uiso   1.00
H1030  H     0.21901   0.59718   0.08671   0.00000  Uiso   1.00
H1031  H     0.24068   0.57814   0.12941   0.00000  Uiso   1.00
H1032  H     0.19459   0.59493   0.13214   0.00000  Uiso   1.00
N1033  N     0.04496   0.70064   0.89673   0.00000  Uiso   1.00
H1034  H     0.04505   0.67403   0.90638   0.00000  Uiso   1.00
C1035  C     0.08065   0.71456   0.88672   0.00000  Uiso   1.00
H1036  H     0.09718   0.71900   0.91329   0.00000  Uiso   1.00
H1037  H     0.07814   0.74067   0.87059   0.00000  Uiso   1.00
H1038  H     0.09493   0.69457   0.86786   0.00000  Uiso   1.00
N1039  N     0.45504   0.79936   0.10327   0.00000  Uiso   1.00
H1040  H     0.45495   0.82597   0.09362   0.00000  Uiso   1.00
C1041  C     0.41935   0.78544   0.11328   0.00000  Uiso   1.00
H1042  H     0.40282   0.78100   0.08671   0.00000  Uiso   1.00
H1043  H     0.40507   0.80543   0.13214   0.00000  Uiso   1.00
H1044  H     0.42186   0.75933   0.12941   0.00000  Uiso   1.00
C1045  C     0.97529   0.77257   0.41823   0.00000  Uiso   1.00
C1046  C     0.52471   0.72743   0.58177   0.00000  Uiso   1.00
C1047  C     0.72732   0.52461   0.41823   0.00000  Uiso   1.00
C1048  C     0.77268   0.97538   0.58177   0.00000  Uiso   1.00
C1049  C     0.52471   0.72743   0.41823   0.00000  Uiso   1.00
C1050  C     0.97529   0.77257   0.58177   0.00000  Uiso   1.00
C1051  C     0.77268   0.97538   0.41823   0.00000  Uiso   1.00
C1052  C     0.72732   0.52462   0.58177   0.00000  Uiso   1.00
C1053  C     0.72529   0.52257   0.91823   0.00000  Uiso   1.00
C1054  C     0.77471   0.97743   0.08177   0.00000  Uiso   1.00
C1055  C     0.97743   0.77472   0.91823   0.00000  Uiso   1.00
C1056  C     0.52257   0.72528   0.08177   0.00000  Uiso   1.00
C1057  C     0.77471   0.97743   0.91823   0.00000  Uiso   1.00
C1058  C     0.72529   0.52257   0.08177   0.00000  Uiso   1.00
C1059  C     0.52257   0.72528   0.91823   0.00000  Uiso   1.00
C1060  C     0.97743   0.77472   0.08177   0.00000  Uiso   1.00
C1061  C     0.50000   0.75000   0.39820   0.00000  Uiso   1.00
C1062  C     0.50000   0.75000   0.60180   0.00000  Uiso   1.00
C1063  C     0.75000   0.50000   0.39819   0.00000  Uiso   1.00
C1064  C     0.75000   0.50000   0.60181   0.00000  Uiso   1.00
C1065  C     0.75000   0.50000   0.89820   0.00000  Uiso   1.00
C1066  C     0.75000   0.50000   0.10180   0.00000  Uiso   1.00
C1067  C     0.50000   0.75000   0.89820   0.00000  Uiso   1.00
C1068  C     0.50000   0.75000   0.10180   0.00000  Uiso   1.00
C1069  C     0.54789   0.70398   0.47993   0.00000  Uiso   1.00
C1070  C     0.95211   0.79602   0.52007   0.00000  Uiso   1.00
C1071  C     0.79624   0.95232   0.47993   0.00000  Uiso   1.00
C1072  C     0.70375   0.54768   0.52007   0.00000  Uiso   1.00
C1073  C     0.95211   0.79602   0.47993   0.00000  Uiso   1.00
C1074  C     0.54789   0.70398   0.52007   0.00000  Uiso   1.00
C1075  C     0.70375   0.54767   0.47993   0.00000  Uiso   1.00
C1076  C     0.79624   0.95232   0.52007   0.00000  Uiso   1.00
C1077  C     0.79789   0.95398   0.97993   0.00000  Uiso   1.00
C1078  C     0.70211   0.54602   0.02007   0.00000  Uiso   1.00
C1079  C     0.54602   0.70210   0.97993   0.00000  Uiso   1.00
C1080  C     0.95398   0.79790   0.02007   0.00000  Uiso   1.00
C1081  C     0.70211   0.54602   0.97993   0.00000  Uiso   1.00
C1082  C     0.79789   0.95398   0.02007   0.00000  Uiso   1.00
C1083  C     0.95398   0.79790   0.97993   0.00000  Uiso   1.00
C1084  C     0.54602   0.70210   0.02007   0.00000  Uiso   1.00
C1085  C     0.75000   0.50000   0.35582   0.00000  Uiso   1.00
C1086  C     0.75000   0.50000   0.64418   0.00000  Uiso   1.00
C1087  C     0.50000   0.75000   0.35582   0.00000  Uiso   1.00
C1088  C     0.50000   0.75000   0.64418   0.00000  Uiso   1.00
C1089  C     0.50000   0.75000   0.85582   0.00000  Uiso   1.00
C1090  C     0.50000   0.75000   0.14418   0.00000  Uiso   1.00
C1091  C     0.75000   0.50000   0.85582   0.00000  Uiso   1.00
C1092  C     0.75000   0.50000   0.14418   0.00000  Uiso   1.00
C1093  C     0.67995   0.57005   0.25000   0.00000  Uiso   1.00
C1094  C     0.82005   0.92995   0.75000   0.00000  Uiso   1.00
C1095  C     0.92994   0.67994   0.25000   0.00000  Uiso   1.00
C1096  C     0.57006   0.82006   0.75000   0.00000  Uiso   1.00
C1097  C     0.82005   0.92995   0.25000   0.00000  Uiso   1.00
C1098  C     0.67995   0.57005   0.75000   0.00000  Uiso   1.00
C1099  C     0.57006   0.82006   0.25000   0.00000  Uiso   1.00
C1100  C     0.92994   0.67994   0.75000   0.00000  Uiso   1.00
C1101  C     0.67994   0.92994   0.75000   0.00000  Uiso   1.00
C1102  C     0.82006   0.57006   0.25000   0.00000  Uiso   1.00
C1103  C     0.92995   0.82005   0.75000   0.00000  Uiso   1.00
C1104  C     0.57005   0.67995   0.25000   0.00000  Uiso   1.00
C1105  C     0.82006   0.57006   0.75000   0.00000  Uiso   1.00
C1106  C     0.67994   0.92994   0.25000   0.00000  Uiso   1.00
C1107  C     0.57005   0.67995   0.75000   0.00000  Uiso   1.00
C1108  C     0.92995   0.82005   0.25000   0.00000  Uiso   1.00
C1109  C     0.62193   0.90480   0.22491   0.00000  Uiso   1.00
C1110  C     0.87807   0.59520   0.77509   0.00000  Uiso   1.00
C1111  C     0.59681   0.62356   0.22274   0.00000  Uiso   1.00
C1112  C     0.90319   0.87644   0.77726   0.00000  Uiso   1.00
C1113  C     0.87807   0.59520   0.22491   0.00000  Uiso   1.00
C1114  C     0.62193   0.90480   0.77509   0.00000  Uiso   1.00
C1115  C     0.90319   0.87644   0.22274   0.00000  Uiso   1.00
C1116  C     0.59681   0.62356   0.77726   0.00000  Uiso   1.00
C1117  C     0.62356   0.59681   0.77726   0.00000  Uiso   1.00
C1118  C     0.87644   0.90319   0.22274   0.00000  Uiso   1.00
C1119  C     0.59520   0.87807   0.77509   0.00000  Uiso   1.00
C1120  C     0.90480   0.62193   0.22491   0.00000  Uiso   1.00
C1121  C     0.87644   0.90319   0.77726   0.00000  Uiso   1.00
C1122  C     0.62356   0.59681   0.22274   0.00000  Uiso   1.00
C1123  C     0.90480   0.62193   0.77509   0.00000  Uiso   1.00
C1124  C     0.59520   0.87807   0.22491   0.00000  Uiso   1.00
C1125  C     0.87193   0.65480   0.72491   0.00000  Uiso   1.00
C1126  C     0.62807   0.84520   0.27509   0.00000  Uiso   1.00
C1127  C     0.84681   0.87355   0.72274   0.00000  Uiso   1.00
C1128  C     0.65319   0.62645   0.27726   0.00000  Uiso   1.00
C1129  C     0.62807   0.84520   0.72491   0.00000  Uiso   1.00
C1130  C     0.87193   0.65480   0.27509   0.00000  Uiso   1.00
C1131  C     0.65319   0.62645   0.72274   0.00000  Uiso   1.00
C1132  C     0.84681   0.87355   0.27726   0.00000  Uiso   1.00
C1133  C     0.87355   0.84681   0.27726   0.00000  Uiso   1.00
C1134  C     0.62645   0.65319   0.72274   0.00000  Uiso   1.00
C1135  C     0.84520   0.62807   0.27509   0.00000  Uiso   1.00
C1136  C     0.65480   0.87193   0.72491   0.00000  Uiso   1.00
C1137  C     0.62645   0.65319   0.27726   0.00000  Uiso   1.00
C1138  C     0.87355   0.84681   0.72274   0.00000  Uiso   1.00
C1139  C     0.65480   0.87193   0.27509   0.00000  Uiso   1.00
C1140  C     0.84520   0.62807   0.72491   0.00000  Uiso   1.00
C1141  C     0.52454   0.72713   0.45905   0.00000  Uiso   1.00
C1142  C     0.97547   0.77287   0.54095   0.00000  Uiso   1.00
C1143  C     0.77298   0.97557   0.45905   0.00000  Uiso   1.00
C1144  C     0.72702   0.52443   0.54095   0.00000  Uiso   1.00
C1145  C     0.97547   0.77287   0.45905   0.00000  Uiso   1.00
C1146  C     0.52454   0.72713   0.54095   0.00000  Uiso   1.00
C1147  C     0.72701   0.52443   0.45905   0.00000  Uiso   1.00
C1148  C     0.77298   0.97557   0.54095   0.00000  Uiso   1.00
C1149  C     0.77453   0.97713   0.95905   0.00000  Uiso   1.00
C1150  C     0.72547   0.52287   0.04095   0.00000  Uiso   1.00
C1151  C     0.52287   0.72546   0.95905   0.00000  Uiso   1.00
C1152  C     0.97713   0.77454   0.04095   0.00000  Uiso   1.00
C1153  C     0.72547   0.52287   0.95905   0.00000  Uiso   1.00
C1154  C     0.77453   0.97713   0.04095   0.00000  Uiso   1.00
C1155  C     0.97713   0.77454   0.95905   0.00000  Uiso   1.00
C1156  C     0.52287   0.72546   0.04095   0.00000  Uiso   1.00
C1157  C     0.59813   0.84813   0.25000   0.00000  Uiso   1.00
C1158  C     0.90187   0.65187   0.75000   0.00000  Uiso   1.00
C1159  C     0.65188   0.59813   0.25000   0.00000  Uiso   1.00
C1160  C     0.84813   0.90187   0.75000   0.00000  Uiso   1.00
C1161  C     0.90187   0.65187   0.25000   0.00000  Uiso   1.00
C1162  C     0.59813   0.84813   0.75000   0.00000  Uiso   1.00
C1163  C     0.84813   0.90187   0.25000   0.00000  Uiso   1.00
C1164  C     0.65187   0.59813   0.75000   0.00000  Uiso   1.00
C1165  C     0.59813   0.65187   0.75000   0.00000  Uiso   1.00
C1166  C     0.90187   0.84812   0.25000   0.00000  Uiso   1.00
C1167  C     0.65187   0.90187   0.75000   0.00000  Uiso   1.00
C1168  C     0.84813   0.59813   0.25000   0.00000  Uiso   1.00
C1169  C     0.90187   0.84812   0.75000   0.00000  Uiso   1.00
C1170  C     0.59813   0.65187   0.25000   0.00000  Uiso   1.00
C1171  C     0.84813   0.59813   0.75000   0.00000  Uiso   1.00
C1172  C     0.65187   0.90187   0.25000   0.00000  Uiso   1.00
C1173  C     0.50000   0.75000   0.47948   0.00000  Uiso   1.00
C1174  C     0.50000   0.75000   0.52052   0.00000  Uiso   1.00
C1175  C     0.75000   0.50000   0.47948   0.00000  Uiso   1.00
C1176  C     0.75000   0.50000   0.52052   0.00000  Uiso   1.00
C1177  C     0.75000   0.50000   0.97948   0.00000  Uiso   1.00
C1178  C     0.75000   0.50000   0.02052   0.00000  Uiso   1.00
C1179  C     0.50000   0.75000   0.97948   0.00000  Uiso   1.00
C1180  C     0.50000   0.75000   0.02052   0.00000  Uiso   1.00
H1181  H     0.56628   0.68522   0.46568   0.00000  Uiso   1.00
H1182  H     0.93373   0.81478   0.53432   0.00000  Uiso   1.00
H1183  H     0.81509   0.93402   0.46568   0.00000  Uiso   1.00
H1184  H     0.68490   0.56597   0.53432   0.00000  Uiso   1.00
H1185  H     0.93373   0.81478   0.46568   0.00000  Uiso   1.00
H1186  H     0.56628   0.68522   0.53432   0.00000  Uiso   1.00
H1187  H     0.68490   0.56596   0.46568   0.00000  Uiso   1.00
H1188  H     0.81509   0.93402   0.53432   0.00000  Uiso   1.00
H1189  H     0.81627   0.93522   0.96568   0.00000  Uiso   1.00
H1190  H     0.68373   0.56478   0.03432   0.00000  Uiso   1.00
H1191  H     0.56477   0.68372   0.96568   0.00000  Uiso   1.00
H1192  H     0.93523   0.81628   0.03432   0.00000  Uiso   1.00
H1193  H     0.68373   0.56478   0.96568   0.00000  Uiso   1.00
H1194  H     0.81627   0.93522   0.03432   0.00000  Uiso   1.00
H1195  H     0.93523   0.81628   0.96568   0.00000  Uiso   1.00
H1196  H     0.56477   0.68372   0.03432   0.00000  Uiso   1.00
H1197  H     0.61912   0.92770   0.20529   0.00000  Uiso   1.00
H1198  H     0.88088   0.57230   0.79471   0.00000  Uiso   1.00
H1199  H     0.57523   0.62209   0.20134   0.00000  Uiso   1.00
H1200  H     0.92477   0.87791   0.79865   0.00000  Uiso   1.00
H1201  H     0.88088   0.57230   0.20529   0.00000  Uiso   1.00
H1202  H     0.61912   0.92770   0.79471   0.00000  Uiso   1.00
H1203  H     0.92477   0.87791   0.20135   0.00000  Uiso   1.00
H1204  H     0.57523   0.62209   0.79866   0.00000  Uiso   1.00
H1205  H     0.62209   0.57523   0.79866   0.00000  Uiso   1.00
H1206  H     0.87791   0.92477   0.20135   0.00000  Uiso   1.00
H1207  H     0.57230   0.88088   0.79471   0.00000  Uiso   1.00
H1208  H     0.92770   0.61912   0.20529   0.00000  Uiso   1.00
H1209  H     0.87791   0.92477   0.79865   0.00000  Uiso   1.00
H1210  H     0.62209   0.57523   0.20134   0.00000  Uiso   1.00
H1211  H     0.92770   0.61912   0.79471   0.00000  Uiso   1.00
H1212  H     0.57230   0.88088   0.20529   0.00000  Uiso   1.00
H1213  H     0.86912   0.67770   0.70529   0.00000  Uiso   1.00
H1214  H     0.63088   0.82230   0.29471   0.00000  Uiso   1.00
H1215  H     0.82523   0.87209   0.70135   0.00000  Uiso   1.00
H1216  H     0.67477   0.62791   0.29865   0.00000  Uiso   1.00
H1217  H     0.63088   0.82230   0.70529   0.00000  Uiso   1.00
H1218  H     0.86912   0.67770   0.29471   0.00000  Uiso   1.00
H1219  H     0.67477   0.62791   0.70135   0.00000  Uiso   1.00
H1220  H     0.82523   0.87209   0.29865   0.00000  Uiso   1.00
H1221  H     0.87209   0.82523   0.29865   0.00000  Uiso   1.00
H1222  H     0.62791   0.67477   0.70134   0.00000  Uiso   1.00
H1223  H     0.82230   0.63088   0.29471   0.00000  Uiso   1.00
H1224  H     0.67770   0.86912   0.70529   0.00000  Uiso   1.00
H1225  H     0.62791   0.67477   0.29865   0.00000  Uiso   1.00
H1226  H     0.87209   0.82523   0.70135   0.00000  Uiso   1.00
H1227  H     0.67770   0.86912   0.29471   0.00000  Uiso   1.00
H1228  H     0.82230   0.63088   0.70529   0.00000  Uiso   1.00
O1229  O     0.75000   0.50000   0.25000   0.00000  Uiso   1.00
O1230  O     0.75000   0.50000   0.75000   0.00000  Uiso   1.00
O1231  O     0.50000   0.75000   0.25000   0.00000  Uiso   1.00
O1232  O     0.50000   0.75000   0.75000   0.00000  Uiso   1.00
O1233  O     0.75000   0.96964   0.33755   0.00000  Uiso   1.00
O1234  O     0.75000   0.53036   0.66245   0.00000  Uiso   1.00
O1235  O     0.53037   0.75000   0.33755   0.00000  Uiso   1.00
O1236  O     0.96964   0.75000   0.66245   0.00000  Uiso   1.00
O1237  O     0.75000   0.53036   0.33755   0.00000  Uiso   1.00
O1238  O     0.75000   0.96964   0.66245   0.00000  Uiso   1.00
O1239  O     0.96964   0.75000   0.33755   0.00000  Uiso   1.00
O1240  O     0.53037   0.75000   0.66245   0.00000  Uiso   1.00
O1241  O     0.50000   0.71963   0.83755   0.00000  Uiso   1.00
O1242  O     0.50000   0.78037   0.16245   0.00000  Uiso   1.00
O1243  O     0.78037   0.50000   0.83755   0.00000  Uiso   1.00
O1244  O     0.71964   0.50000   0.16245   0.00000  Uiso   1.00
O1245  O     0.50000   0.78037   0.83755   0.00000  Uiso   1.00
O1246  O     0.50000   0.71963   0.16245   0.00000  Uiso   1.00
O1247  O     0.71964   0.50000   0.83755   0.00000  Uiso   1.00
O1248  O     0.78037   0.50000   0.16245   0.00000  Uiso   1.00
O1249  O     0.70725   0.57307   0.27302   0.00000  Uiso   1.00
O1250  O     0.79276   0.92692   0.72698   0.00000  Uiso   1.00
O1251  O     0.92693   0.70724   0.27302   0.00000  Uiso   1.00
O1252  O     0.57308   0.79276   0.72698   0.00000  Uiso   1.00
O1253  O     0.79276   0.92692   0.27302   0.00000  Uiso   1.00
O1254  O     0.70725   0.57307   0.72698   0.00000  Uiso   1.00
O1255  O     0.57308   0.79276   0.27302   0.00000  Uiso   1.00
O1256  O     0.92693   0.70724   0.72698   0.00000  Uiso   1.00
O1257  O     0.70725   0.92693   0.72698   0.00000  Uiso   1.00
O1258  O     0.79276   0.57307   0.27302   0.00000  Uiso   1.00
O1259  O     0.92693   0.79275   0.72698   0.00000  Uiso   1.00
O1260  O     0.57308   0.70725   0.27302   0.00000  Uiso   1.00
O1261  O     0.79276   0.57307   0.72698   0.00000  Uiso   1.00
O1262  O     0.70725   0.92693   0.27302   0.00000  Uiso   1.00
O1263  O     0.57308   0.70725   0.72698   0.00000  Uiso   1.00
O1264  O     0.92693   0.79275   0.27302   0.00000  Uiso   1.00
O1265  O     0.95725   0.82307   0.77302   0.00000  Uiso   1.00
O1266  O     0.54276   0.67693   0.22698   0.00000  Uiso   1.00
O1267  O     0.67693   0.95725   0.77302   0.00000  Uiso   1.00
O1268  O     0.82308   0.54275   0.22698   0.00000  Uiso   1.00
O1269  O     0.54276   0.67693   0.77302   0.00000  Uiso   1.00
O1270  O     0.95725   0.82307   0.22698   0.00000  Uiso   1.00
O1271  O     0.82308   0.54275   0.77302   0.00000  Uiso   1.00
O1272  O     0.67693   0.95725   0.22698   0.00000  Uiso   1.00
O1273  O     0.95725   0.67692   0.22698   0.00000  Uiso   1.00
O1274  O     0.54276   0.82308   0.77302   0.00000  Uiso   1.00
O1275  O     0.67693   0.54275   0.22698   0.00000  Uiso   1.00
O1276  O     0.82308   0.95724   0.77302   0.00000  Uiso   1.00
O1277  O     0.54276   0.82308   0.22698   0.00000  Uiso   1.00
O1278  O     0.95725   0.67692   0.77302   0.00000  Uiso   1.00
O1279  O     0.82308   0.95724   0.22698   0.00000  Uiso   1.00
O1280  O     0.67693   0.54275   0.77302   0.00000  Uiso   1.00
Zn1281 Zn    0.70660   0.50000   0.21735   0.00000  Uiso   1.00
Zn1282 Zn    0.79341   0.50000   0.78265   0.00000  Uiso   1.00
Zn1283 Zn    0.50000   0.70660   0.21735   0.00000  Uiso   1.00
Zn1284 Zn    0.50000   0.79340   0.78265   0.00000  Uiso   1.00
Zn1285 Zn    0.79341   0.50000   0.21735   0.00000  Uiso   1.00
Zn1286 Zn    0.70660   0.50000   0.78265   0.00000  Uiso   1.00
Zn1287 Zn    0.50000   0.79340   0.21735   0.00000  Uiso   1.00
Zn1288 Zn    0.50000   0.70660   0.78265   0.00000  Uiso   1.00
Zn1289 Zn    0.95660   0.75000   0.71735   0.00000  Uiso   1.00
Zn1290 Zn    0.54341   0.75000   0.28265   0.00000  Uiso   1.00
Zn1291 Zn    0.75000   0.95660   0.71735   0.00000  Uiso   1.00
Zn1292 Zn    0.75000   0.54340   0.28265   0.00000  Uiso   1.00
Zn1293 Zn    0.54341   0.75000   0.71735   0.00000  Uiso   1.00
Zn1294 Zn    0.95660   0.75000   0.28265   0.00000  Uiso   1.00
Zn1295 Zn    0.75000   0.54340   0.71735   0.00000  Uiso   1.00
Zn1296 Zn    0.75000   0.95660   0.28265   0.00000  Uiso   1.00
N1297  N     0.95065   0.79496   0.39673   0.00000  Uiso   1.00
H1298  H     0.92404   0.79506   0.40638   0.00000  Uiso   1.00
C1299  C     0.96457   0.83066   0.38672   0.00000  Uiso   1.00
H1300  H     0.96901   0.84718   0.41329   0.00000  Uiso   1.00
H1301  H     0.94459   0.84493   0.36786   0.00000  Uiso   1.00
H1302  H     0.99069   0.82814   0.37060   0.00000  Uiso   1.00
N1303  N     0.54936   0.70504   0.60327   0.00000  Uiso   1.00
H1304  H     0.57596   0.70494   0.59362   0.00000  Uiso   1.00
C1305  C     0.53544   0.66935   0.61328   0.00000  Uiso   1.00
H1306  H     0.53099   0.65282   0.58671   0.00000  Uiso   1.00
H1307  H     0.50932   0.67186   0.62941   0.00000  Uiso   1.00
H1308  H     0.55542   0.65507   0.63214   0.00000  Uiso   1.00
N1309  N     0.70482   0.54916   0.39672   0.00000  Uiso   1.00
H1310  H     0.70459   0.57576   0.40639   0.00000  Uiso   1.00
C1311  C     0.66921   0.53507   0.38667   0.00000  Uiso   1.00
H1312  H     0.65270   0.53047   0.41322   0.00000  Uiso   1.00
H1313  H     0.67188   0.50900   0.37047   0.00000  Uiso   1.00
H1314  H     0.65482   0.55501   0.36785   0.00000  Uiso   1.00
N1315  N     0.79517   0.95084   0.60328   0.00000  Uiso   1.00
H1316  H     0.79540   0.92423   0.59362   0.00000  Uiso   1.00
C1317  C     0.83079   0.96493   0.61331   0.00000  Uiso   1.00
H1318  H     0.84731   0.96944   0.58675   0.00000  Uiso   1.00
H1319  H     0.84516   0.94502   0.63218   0.00000  Uiso   1.00
H1320  H     0.82815   0.99103   0.62943   0.00000  Uiso   1.00
N1321  N     0.54935   0.70504   0.39673   0.00000  Uiso   1.00
H1322  H     0.57596   0.70494   0.40638   0.00000  Uiso   1.00
C1323  C     0.53543   0.66934   0.38672   0.00000  Uiso   1.00
H1324  H     0.53099   0.65282   0.41329   0.00000  Uiso   1.00
H1325  H     0.55541   0.65506   0.36786   0.00000  Uiso   1.00
H1326  H     0.50931   0.67186   0.37060   0.00000  Uiso   1.00
N1327  N     0.95064   0.79496   0.60327   0.00000  Uiso   1.00
H1328  H     0.92404   0.79506   0.59362   0.00000  Uiso   1.00
C1329  C     0.96456   0.83065   0.61328   0.00000  Uiso   1.00
H1330  H     0.96901   0.84718   0.58671   0.00000  Uiso   1.00
H1331  H     0.99068   0.82814   0.62941   0.00000  Uiso   1.00
H1332  H     0.94458   0.84493   0.63214   0.00000  Uiso   1.00
N1333  N     0.79517   0.95083   0.39672   0.00000  Uiso   1.00
H1334  H     0.79539   0.92423   0.40638   0.00000  Uiso   1.00
C1335  C     0.83079   0.96491   0.38669   0.00000  Uiso   1.00
H1336  H     0.84731   0.96945   0.41325   0.00000  Uiso   1.00
H1337  H     0.82815   0.99101   0.37055   0.00000  Uiso   1.00
H1338  H     0.84516   0.94499   0.36784   0.00000  Uiso   1.00
N1339  N     0.70484   0.54918   0.60328   0.00000  Uiso   1.00
H1340  H     0.70462   0.57578   0.59361   0.00000  Uiso   1.00
C1341  C     0.66921   0.53511   0.61332   0.00000  Uiso   1.00
H1342  H     0.65268   0.53059   0.58676   0.00000  Uiso   1.00
H1343  H     0.65486   0.55504   0.63218   0.00000  Uiso   1.00
H1344  H     0.67184   0.50901   0.62945   0.00000  Uiso   1.00
N1345  N     0.70065   0.54496   0.89673   0.00000  Uiso   1.00
H1346  H     0.67404   0.54506   0.90638   0.00000  Uiso   1.00
C1347  C     0.71457   0.58066   0.88672   0.00000  Uiso   1.00
H1348  H     0.71901   0.59718   0.91329   0.00000  Uiso   1.00
H1349  H     0.69459   0.59494   0.86786   0.00000  Uiso   1.00
H1350  H     0.74069   0.57814   0.87059   0.00000  Uiso   1.00
N1351  N     0.79935   0.95504   0.10327   0.00000  Uiso   1.00
H1352  H     0.82596   0.95494   0.09362   0.00000  Uiso   1.00
C1353  C     0.78543   0.91934   0.11328   0.00000  Uiso   1.00
H1354  H     0.78099   0.90282   0.08671   0.00000  Uiso   1.00
H1355  H     0.75931   0.92186   0.12941   0.00000  Uiso   1.00
H1356  H     0.80541   0.90506   0.13214   0.00000  Uiso   1.00
N1357  N     0.95504   0.79936   0.89673   0.00000  Uiso   1.00
H1358  H     0.95495   0.82597   0.90638   0.00000  Uiso   1.00
C1359  C     0.91935   0.78544   0.88672   0.00000  Uiso   1.00
H1360  H     0.90282   0.78100   0.91329   0.00000  Uiso   1.00
H1361  H     0.92186   0.75933   0.87059   0.00000  Uiso   1.00
H1362  H     0.90507   0.80543   0.86786   0.00000  Uiso   1.00
N1363  N     0.54496   0.70064   0.10327   0.00000  Uiso   1.00
H1364  H     0.54505   0.67403   0.09362   0.00000  Uiso   1.00
C1365  C     0.58065   0.71456   0.11328   0.00000  Uiso   1.00
H1366  H     0.59718   0.71900   0.08671   0.00000  Uiso   1.00
H1367  H     0.59493   0.69458   0.13214   0.00000  Uiso   1.00
H1368  H     0.57814   0.74067   0.12941   0.00000  Uiso   1.00
N1369  N     0.79935   0.95504   0.89673   0.00000  Uiso   1.00
H1370  H     0.82596   0.95494   0.90638   0.00000  Uiso   1.00
C1371  C     0.78543   0.91934   0.88672   0.00000  Uiso   1.00
H1372  H     0.78099   0.90282   0.91329   0.00000  Uiso   1.00
H1373  H     0.80541   0.90507   0.86786   0.00000  Uiso   1.00
H1374  H     0.75931   0.92186   0.87059   0.00000  Uiso   1.00
N1375  N     0.70065   0.54496   0.10327   0.00000  Uiso   1.00
H1376  H     0.67404   0.54506   0.09362   0.00000  Uiso   1.00
C1377  C     0.71457   0.58066   0.11328   0.00000  Uiso   1.00
H1378  H     0.71901   0.59718   0.08671   0.00000  Uiso   1.00
H1379  H     0.74068   0.57814   0.12941   0.00000  Uiso   1.00
H1380  H     0.69459   0.59493   0.13214   0.00000  Uiso   1.00
N1381  N     0.54496   0.70064   0.89673   0.00000  Uiso   1.00
H1382  H     0.54505   0.67403   0.90638   0.00000  Uiso   1.00
C1383  C     0.58065   0.71456   0.88672   0.00000  Uiso   1.00
H1384  H     0.59718   0.71900   0.91329   0.00000  Uiso   1.00
H1385  H     0.57814   0.74067   0.87059   0.00000  Uiso   1.00
H1386  H     0.59493   0.69457   0.86786   0.00000  Uiso   1.00
N1387  N     0.95504   0.79936   0.10327   0.00000  Uiso   1.00
H1388  H     0.95495   0.82597   0.09362   0.00000  Uiso   1.00
C1389  C     0.91935   0.78544   0.11328   0.00000  Uiso   1.00
H1390  H     0.90282   0.78100   0.08671   0.00000  Uiso   1.00
H1391  H     0.90507   0.80543   0.13214   0.00000  Uiso   1.00
H1392  H     0.92186   0.75933   0.12941   0.00000  Uiso   1.00
loop_
_geom_bond_atom_site_label_1
_geom_bond_atom_site_label_2
_geom_bond_distance
_geom_bond_site_symmetry_2
_ccdc_geom_bond_type
C1     C101    1.408   .     A
C1     N253    1.428   .     S
C1     C365    1.408   .     S
C2     C102    1.408   .     A
C2     N259    1.428   .     S
C2     C18     1.408   .     A
C3     C103    1.409   .     A
C3     N265    1.428   .     S
C3     C19     1.408   .     S
C4     C104    1.409   .     A
C4     N271    1.428   .     S
C4     C716    1.408   .     S
C5     C97     1.408   .     A
C5     C17     1.408   .     A
C5     N277    1.428   .     S
C6     N283    1.428   .     S
C6     C98     1.408   .     A
C6     C366    1.408   .     S
C7     C99     1.409   .     A
C7     C715    1.408   .     A
C7     N289    1.428   .     S
C8     N295    1.428   .     S
C8     C100    1.409   .     A
C8     C20     1.408   .     A
C9     C21     1.408   .     A
C9     C109    1.408   .     A
C9     N301    1.428   .     S
C10    N307    1.428   .     S
C10    C110    1.408   .     A
C10    C718    1.408   .     S
C11    N313    1.428   .     S
C11    C371    1.408   .     A
C11    C111    1.408   .     A
C12    C112    1.408   .     A
C12    N319    1.428   .     S
C12    C24     1.408   .     S
C13    N325    1.428   .     S
C13    C105    1.408   .     A
C13    C717    1.408   .     S
C14    N331    1.428   .     S
C14    C106    1.408   .     A
C14    C22     1.408   .     A
C15    N337    1.428   .     S
C15    C107    1.408   .     A
C15    C23     1.408   .     S
C16    N343    1.428   .     S
C16    C372    1.408   .     A
C16    C108    1.408   .     A
C17    C349    1.408   1_455 S
C17    C43     1.462   .     S
C18    C354    1.408   1_455 S
C18    C44     1.462   .     S
C19    C703    1.408   1_545 A
C19    C41     1.462   .     S
C20    C42     1.462   .     S
C20    C700    1.408   1_545 S
C21    C47     1.462   .     S
C21    C709    1.408   1_545 S
C22    C48     1.462   .     S
C22    C706    1.408   1_545 S
C23    C359    1.408   1_455 A
C23    C45     1.462   .     S
C24    C46     1.462   .     S
C24    C364    1.408   1_455 A
C25    H137    1.081   .     S
C25    C97     1.404   .     A
C25    C30     1.385   .     A
C26    H138    1.081   .     S
C26    C98     1.404   .     A
C26    C29     1.385   .     A
C27    C99     1.404   .     A
C27    H139    1.081   .     S
C27    C32     1.385   .     A
C28    C31     1.385   .     A
C28    H140    1.081   .     S
C28    C100    1.404   .     A
C29    H141    1.081   .     S
C29    C101    1.404   .     A
C30    C102    1.404   .     A
C30    H142    1.081   .     S
C31    H143    1.081   .     S
C31    C103    1.404   .     A
C32    C104    1.404   .     A
C32    H144    1.081   .     S
C33    C105    1.404   .     A
C33    H145    1.081   .     S
C33    C38     1.385   1_556 S
C34    C106    1.404   .     A
C34    H146    1.081   .     S
C34    C37     1.385   1_554 S
C35    C107    1.404   .     A
C35    H147    1.081   .     S
C35    C40     1.385   1_556 S
C36    C108    1.404   .     A
C36    H148    1.081   .     S
C36    C39     1.385   1_554 S
C37    C109    1.404   .     A
C37    H149    1.081   .     S
C37    C34     1.385   1_556 S
C38    C110    1.404   .     A
C38    H150    1.081   .     S
C38    C33     1.385   1_554 S
C39    C111    1.404   .     A
C39    H151    1.081   .     S
C39    C36     1.385   1_556 S
C40    H152    1.081   .     S
C40    C112    1.404   .     A
C40    C35     1.385   1_554 S
C41    O885    1.279   1_545 A
C41    O193    1.279   .     S
C42    O190    1.279   .     A
C42    O890    1.279   1_545 S
C43    O543    1.279   1_455 A
C43    O191    1.279   .     S
C44    O540    1.279   1_455 A
C44    O196    1.279   .     S
C45    O201    1.279   .     A
C45    O197    1.279   .     S
C46    O202    1.279   .     A
C46    O198    1.279   .     S
C47    O199    1.279   .     A
C47    O203    1.279   .     A
C48    O204    1.279   .     A
C48    O200    1.279   .     A
C49    C115    1.455   .     S
C49    O205    1.282   .     A
C49    O231    1.282   .     A
C50    O232    1.282   .     A
C50    O206    1.282   .     A
C50    C116    1.455   .     S
C51    O207    1.282   .     A
C51    C117    1.456   .     S
C51    O229    1.282   .     A
C52    O230    1.282   .     A
C52    C118    1.456   .     S
C52    O208    1.282   .     A
C53    O209    1.282   .     A
C53    O235    1.282   .     A
C53    C119    1.455   .     S
C54    O236    1.282   .     A
C54    C120    1.455   .     S
C54    O210    1.282   .     A
C55    O233    1.282   .     A
C55    C113    1.456   .     S
C55    O211    1.282   .     A
C56    O234    1.282   .     A
C56    O212    1.282   .     A
C56    C114    1.456   .     S
C57    O223    1.282   .     A
C57    O213    1.282   .     A
C57    C123    1.456   .     S
C58    O214    1.282   .     A
C58    O224    1.282   .     A
C58    C124    1.456   .     S
C59    O215    1.282   .     A
C59    C125    1.455   .     S
C59    O221    1.282   .     A
C60    O216    1.282   .     A
C60    O222    1.282   .     A
C60    C126    1.455   .     S
C61    O227    1.282   .     A
C61    O217    1.282   .     A
C61    C127    1.456   .     S
C62    O228    1.282   .     A
C62    O218    1.282   .     A
C62    C128    1.456   .     S
C63    O219    1.282   .     A
C63    O225    1.282   .     A
C63    C121    1.455   .     S
C64    O226    1.282   .     A
C64    O220    1.282   .     A
C64    C122    1.455   .     S
C65    H153    1.083   .     S
C65    C128    1.402   .     A
C65    C80     1.386   .     A
C66    C79     1.386   .     A
C66    H154    1.083   .     S
C66    C127    1.402   .     A
C67    H155    1.083   .     S
C67    C126    1.402   .     A
C67    C78     1.386   .     A
C68    C77     1.386   .     A
C68    C125    1.402   .     A
C68    H156    1.083   .     S
C69    C76     1.386   .     A
C69    H157    1.083   .     S
C69    C124    1.402   .     A
C70    C75     1.386   .     A
C70    H158    1.083   .     S
C70    C123    1.402   .     A
C71    C122    1.402   .     A
C71    C74     1.386   .     A
C71    H159    1.083   .     S
C72    C73     1.386   .     A
C72    C121    1.402   .     A
C72    H160    1.083   .     S
C73    C120    1.402   .     A
C73    H161    1.083   .     S
C74    H162    1.083   .     S
C74    C119    1.402   .     A
C75    C118    1.402   .     A
C75    H163    1.083   .     S
C76    C117    1.402   .     A
C76    H164    1.083   .     S
C77    H165    1.083   .     S
C77    C116    1.402   .     A
C78    C115    1.402   .     A
C78    H166    1.083   .     S
C79    H167    1.083   .     S
C79    C114    1.402   .     A
C80    H168    1.083   .     S
C80    C113    1.402   .     A
C81    H169    1.083   .     S
C81    C114    1.402   .     A
C81    C96     1.386   .     A
C82    C95     1.386   .     A
C82    C113    1.402   .     A
C82    H170    1.083   .     S
C83    H171    1.083   .     S
C83    C94     1.386   .     A
C83    C116    1.402   .     A
C84    C93     1.386   .     A
C84    H172    1.083   .     S
C84    C115    1.402   .     A
C85    C118    1.402   .     A
C85    C92     1.386   .     A
C85    H173    1.083   .     S
C86    H174    1.083   .     S
C86    C117    1.402   .     A
C86    C91     1.386   .     A
C87    H175    1.083   .     S
C87    C90     1.386   .     A
C87    C120    1.402   .     A
C88    C119    1.402   .     A
C88    C89     1.386   .     A
C88    H176    1.083   .     S
C89    C122    1.402   .     A
C89    H177    1.083   .     S
C90    C121    1.402   .     A
C90    H178    1.083   .     S
C91    H179    1.083   .     S
C91    C124    1.402   .     A
C92    H180    1.083   .     S
C92    C123    1.402   .     A
C93    H181    1.083   .     S
C93    C126    1.402   .     A
C94    C125    1.402   .     A
C94    H182    1.083   .     S
C95    H183    1.083   .     S
C95    C128    1.402   .     A
C96    C127    1.402   .     A
C96    H184    1.083   .     S
C97    C129    1.417   .     A
C98    C478    1.417   .     S
C99    C827    1.417   .     A
C100   C132    1.417   .     S
C101   C477    1.417   .     S
C102   C130    1.417   .     A
C103   C131    1.417   .     S
C104   C828    1.417   .     A
C105   C829    1.417   .     S
C106   C134    1.417   .     A
C107   C135    1.417   .     S
C108   C484    1.417   .     A
C109   C133    1.417   .     A
C110   C830    1.417   .     S
C111   C483    1.417   .     A
C112   C136    1.417   .     S
C129   C130    1.416   .     A
C129   C449    1.417   1_455 S
C130   C446    1.417   1_455 S
C131   C132    1.416   .     A
C131   C795    1.417   1_545 A
C132   C800    1.417   1_545 A
C133   C801    1.417   1_545 S
C133   C134    1.416   1_556 S
C134   C806    1.417   1_545 S
C134   C133    1.416   1_554 S
C135   C459    1.417   1_455 A
C135   C136    1.416   1_556 S
C136   C456    1.417   1_455 A
C136   C135    1.416   1_554 S
O185   Zn237   1.949   .     S
O185   Zn241   1.949   .     S
O185   Zn248   1.949   .     S
O185   Zn948   1.949   1_545 S
O186   Zn242   1.949   .     S
O186   Zn251   1.949   .     S
O186   Zn238   1.949   .     S
O186   Zn943   1.949   1_545 S
O187   Zn246   1.949   .     S
O187   Zn239   1.949   .     S
O187   Zn243   1.949   .     S
O187   Zn598   1.949   1_455 S
O188   Zn240   1.949   .     S
O188   Zn593   1.949   1_455 S
O188   Zn244   1.949   .     S
O188   Zn249   1.949   .     S
O189   C737    1.279   .     A
O189   Zn252   1.954   .     S
O190   Zn251   1.954   .     S
O191   Zn246   1.954   .     S
O192   C392    1.279   .     A
O192   Zn245   1.954   .     S
O193   Zn248   1.954   .     S
O194   Zn247   1.954   .     S
O194   C738    1.279   .     S
O195   C391    1.279   .     A
O195   Zn250   1.954   .     S
O196   Zn249   1.954   .     S
O197   Zn244   1.954   .     S
O198   Zn243   1.954   .     S
O199   Zn238   1.954   .     S
O200   Zn237   1.954   .     S
O201   Zn240   1.954   .     S
O202   Zn239   1.954   .     S
O203   Zn242   1.954   .     S
O204   Zn241   1.954   .     S
O205   Zn248   1.936   .     S
O206   Zn247   1.936   .     S
O207   Zn250   1.937   .     S
O208   Zn249   1.937   .     S
O209   Zn252   1.936   .     S
O210   Zn251   1.936   .     S
O211   Zn246   1.937   .     S
O212   Zn245   1.937   .     S
O213   Zn247   1.937   .     S
O214   Zn248   1.937   .     S
O215   Zn245   1.936   .     S
O216   Zn246   1.936   .     S
O217   Zn251   1.937   .     S
O218   Zn252   1.937   .     S
O219   Zn249   1.936   .     S
O220   Zn250   1.936   .     S
O221   Zn588   1.936   .     S
O222   Zn239   1.936   .     S
O223   Zn938   1.937   .     S
O224   Zn241   1.937   .     S
O225   Zn244   1.936   .     S
O226   Zn591   1.936   .     S
O227   Zn238   1.937   .     S
O228   Zn933   1.937   .     S
O229   Zn587   1.937   .     S
O230   Zn240   1.937   .     S
O231   Zn237   1.936   .     S
O232   Zn934   1.936   .     S
O233   Zn243   1.937   .     S
O234   Zn592   1.937   .     S
O235   Zn937   1.936   .     S
O236   Zn242   1.936   .     S
Zn237  O924    1.937   1_545 S
Zn238  O928    1.936   1_545 S
Zn239  O577    1.937   1_455 S
Zn240  O569    1.936   1_455 S
Zn241  O931    1.936   1_545 S
Zn242  O919    1.937   1_545 S
Zn243  O574    1.936   1_455 S
Zn244  O582    1.937   1_455 S
Zn245  O536    1.949   .     S
Zn247  O882    1.949   .     S
Zn250  O535    1.949   .     S
Zn252  O881    1.949   .     S
N253   H254    1.031   .     S
N253   C255    1.446   .     S
C255   H257    1.110   .     S
C255   H258    1.111   .     S
C255   H256    1.111   .     S
N259   C261    1.446   .     S
N259   H260    1.031   .     S
C261   H262    1.111   .     S
C261   H263    1.111   .     S
C261   H264    1.110   .     S
N265   C267    1.446   .     S
N265   H266    1.031   .     S
C267   H269    1.111   .     S
C267   H270    1.110   .     S
C267   H268    1.111   .     S
N271   H272    1.031   .     S
N271   C273    1.446   .     S
C273   H276    1.111   .     S
C273   H275    1.110   .     S
C273   H274    1.111   .     S
N277   H278    1.031   .     S
N277   C279    1.446   .     S
C279   H281    1.110   .     S
C279   H280    1.111   .     S
C279   H282    1.111   .     S
N283   H284    1.031   .     S
N283   C285    1.446   .     S
C285   H287    1.111   .     S
C285   H286    1.111   .     S
C285   H288    1.110   .     S
N289   H290    1.031   .     S
N289   C291    1.446   .     S
C291   H292    1.111   .     S
C291   H293    1.111   .     S
C291   H294    1.110   .     S
N295   C297    1.446   .     S
N295   H296    1.031   .     S
C297   H299    1.110   .     S
C297   H298    1.111   .     S
C297   H300    1.111   .     S
N301   C303    1.446   .     S
N301   H302    1.031   .     S
C303   H305    1.110   .     S
C303   H304    1.111   .     S
C303   H306    1.111   .     S
N307   H308    1.031   .     S
N307   C309    1.446   .     S
C309   H311    1.111   .     S
C309   H310    1.111   .     S
C309   H312    1.110   .     S
N313   C315    1.446   .     S
N313   H314    1.031   .     S
C315   H318    1.110   .     S
C315   H316    1.111   .     S
C315   H317    1.111   .     S
N319   C321    1.446   .     S
N319   H320    1.031   .     S
C321   H322    1.111   .     S
C321   H324    1.111   .     S
C321   H323    1.110   .     S
N325   C327    1.446   .     S
N325   H326    1.031   .     S
C327   H329    1.110   .     S
C327   H328    1.111   .     S
C327   H330    1.111   .     S
N331   H332    1.031   .     S
N331   C333    1.446   .     S
C333   H334    1.111   .     S
C333   H336    1.110   .     S
C333   H335    1.111   .     S
N337   H338    1.031   .     S
N337   C339    1.446   .     S
C339   H342    1.110   .     S
C339   H340    1.111   .     S
C339   H341    1.111   .     S
N343   C345    1.446   .     S
N343   H344    1.031   .     S
C345   H348    1.111   .     S
C345   H347    1.110   .     S
C345   H346    1.111   .     S
C349   C449    1.408   .     A
C349   N601    1.428   .     S
C349   C17     1.408   1_655 S
C350   C450    1.408   .     A
C350   N607    1.428   .     S
C350   C366    1.408   .     A
C351   C451    1.409   .     A
C351   N613    1.428   .     S
C351   C367    1.408   .     S
C352   C452    1.409   .     A
C352   N619    1.428   .     S
C352   C1064   1.408   .     S
C353   C445    1.408   .     A
C353   C365    1.408   .     A
C353   N625    1.428   .     S
C354   N631    1.428   .     S
C354   C446    1.408   .     A
C354   C18     1.408   1_655 S
C355   C447    1.409   .     A
C355   C1063   1.408   .     A
C355   N637    1.428   .     S
C356   N643    1.428   .     S
C356   C448    1.409   .     A
C356   C368    1.408   .     A
C357   C369    1.408   .     A
C357   C457    1.408   .     A
C357   N649    1.428   .     S
C358   N655    1.428   .     S
C358   C458    1.408   .     A
C358   C1066   1.408   .     S
C359   N661    1.428   .     S
C359   C23     1.408   1_655 A
C359   C459    1.408   .     A
C360   C460    1.408   .     A
C360   N667    1.428   .     S
C360   C372    1.408   .     S
C361   N673    1.428   .     S
C361   C453    1.408   .     A
C361   C1065   1.408   .     S
C362   N679    1.428   .     S
C362   C454    1.408   .     A
C362   C370    1.408   .     A
C363   N685    1.428   .     S
C363   C455    1.408   .     A
C363   C371    1.408   .     S
C364   N691    1.428   .     S
C364   C24     1.408   1_655 A
C364   C456    1.408   .     A
C365   C391    1.462   .     S
C366   C392    1.462   .     S
C367   C1051   1.408   1_545 A
C367   C389    1.462   .     S
C368   C390    1.462   .     S
C368   C1048   1.408   1_545 S
C369   C395    1.462   .     S
C369   C1057   1.408   1_545 S
C370   C396    1.462   .     S
C370   C1054   1.408   1_545 S
C371   C393    1.462   .     S
C372   C394    1.462   .     S
C373   H485    1.081   .     S
C373   C445    1.404   .     A
C373   C378    1.385   .     A
C374   H486    1.081   .     S
C374   C446    1.404   .     A
C374   C377    1.385   .     A
C375   C447    1.404   .     A
C375   H487    1.081   .     S
C375   C380    1.385   .     A
C376   C379    1.385   .     A
C376   H488    1.081   .     S
C376   C448    1.404   .     A
C377   H489    1.081   .     S
C377   C449    1.404   .     A
C378   C450    1.404   .     A
C378   H490    1.081   .     S
C379   H491    1.081   .     S
C379   C451    1.404   .     A
C380   C452    1.404   .     A
C380   H492    1.081   .     S
C381   C453    1.404   .     A
C381   H493    1.081   .     S
C381   C386    1.385   1_556 S
C382   C454    1.404   .     A
C382   H494    1.081   .     S
C382   C385    1.385   1_554 S
C383   C455    1.404   .     A
C383   H495    1.081   .     S
C383   C388    1.385   1_556 S
C384   C456    1.404   .     A
C384   H496    1.081   .     S
C384   C387    1.385   1_554 S
C385   C457    1.404   .     A
C385   H497    1.081   .     S
C385   C382    1.385   1_556 S
C386   C458    1.404   .     A
C386   H498    1.081   .     S
C386   C381    1.385   1_554 S
C387   C459    1.404   .     A
C387   H499    1.081   .     S
C387   C384    1.385   1_556 S
C388   H500    1.081   .     S
C388   C460    1.404   .     A
C388   C383    1.385   1_554 S
C389   O1233   1.279   1_545 A
C389   O541    1.279   .     S
C390   O538    1.279   .     A
C390   O1238   1.279   1_545 S
C391   O539    1.279   .     S
C392   O544    1.279   .     S
C393   O549    1.279   .     A
C393   O545    1.279   .     S
C394   O550    1.279   .     A
C394   O546    1.279   .     S
C395   O547    1.279   .     A
C395   O551    1.279   .     A
C396   O552    1.279   .     A
C396   O548    1.279   .     A
C397   C463    1.455   .     S
C397   O553    1.282   .     A
C397   O579    1.282   .     A
C398   O580    1.282   .     A
C398   O554    1.282   .     A
C398   C464    1.455   .     S
C399   O555    1.282   .     A
C399   C465    1.456   .     S
C399   O577    1.282   .     A
C400   O578    1.282   .     A
C400   C466    1.456   .     S
C400   O556    1.282   .     A
C401   O557    1.282   .     A
C401   O583    1.282   .     A
C401   C467    1.455   .     S
C402   O584    1.282   .     A
C402   C468    1.455   .     S
C402   O558    1.282   .     A
C403   O581    1.282   .     A
C403   C461    1.456   .     S
C403   O559    1.282   .     A
C404   O582    1.282   .     A
C404   O560    1.282   .     A
C404   C462    1.456   .     S
C405   O571    1.282   .     A
C405   O561    1.282   .     A
C405   C471    1.456   .     S
C406   O562    1.282   .     A
C406   O572    1.282   .     A
C406   C472    1.456   .     S
C407   O563    1.282   .     A
C407   C473    1.455   .     S
C407   O569    1.282   .     A
C408   O564    1.282   .     A
C408   O570    1.282   .     A
C408   C474    1.455   .     S
C409   O575    1.282   .     A
C409   O565    1.282   .     A
C409   C475    1.456   .     S
C410   O576    1.282   .     A
C410   O566    1.282   .     A
C410   C476    1.456   .     S
C411   O567    1.282   .     A
C411   O573    1.282   .     A
C411   C469    1.455   .     S
C412   O574    1.282   .     A
C412   O568    1.282   .     A
C412   C470    1.455   .     S
C413   H501    1.083   .     S
C413   C476    1.402   .     A
C413   C428    1.386   .     A
C414   C427    1.386   .     A
C414   H502    1.083   .     S
C414   C475    1.402   .     A
C415   H503    1.083   .     S
C415   C474    1.402   .     A
C415   C426    1.386   .     A
C416   C425    1.386   .     A
C416   C473    1.402   .     A
C416   H504    1.083   .     S
C417   C424    1.386   .     A
C417   H505    1.083   .     S
C417   C472    1.402   .     A
C418   C423    1.386   .     A
C418   H506    1.083   .     S
C418   C471    1.402   .     A
C419   C470    1.402   .     A
C419   C422    1.386   .     A
C419   H507    1.083   .     S
C420   C421    1.386   .     A
C420   C469    1.402   .     A
C420   H508    1.083   .     S
C421   C468    1.402   .     A
C421   H509    1.083   .     S
C422   H510    1.083   .     S
C422   C467    1.402   .     A
C423   C466    1.402   .     A
C423   H511    1.083   .     S
C424   C465    1.402   .     A
C424   H512    1.083   .     S
C425   H513    1.083   .     S
C425   C464    1.402   .     A
C426   C463    1.402   .     A
C426   H514    1.083   .     S
C427   H515    1.083   .     S
C427   C462    1.402   .     A
C428   H516    1.083   .     S
C428   C461    1.402   .     A
C429   H517    1.083   .     S
C429   C462    1.402   .     A
C429   C444    1.386   .     A
C430   C443    1.386   .     A
C430   C461    1.402   .     A
C430   H518    1.083   .     S
C431   H519    1.083   .     S
C431   C442    1.386   .     A
C431   C464    1.402   .     A
C432   C441    1.386   .     A
C432   H520    1.083   .     S
C432   C463    1.402   .     A
C433   C466    1.402   .     A
C433   C440    1.386   .     A
C433   H521    1.083   .     S
C434   H522    1.083   .     S
C434   C465    1.402   .     A
C434   C439    1.386   .     A
C435   H523    1.083   .     S
C435   C438    1.386   .     A
C435   C468    1.402   .     A
C436   C467    1.402   .     A
C436   C437    1.386   .     A
C436   H524    1.083   .     S
C437   C470    1.402   .     A
C437   H525    1.083   .     S
C438   C469    1.402   .     A
C438   H526    1.083   .     S
C439   H527    1.083   .     S
C439   C472    1.402   .     A
C440   H528    1.083   .     S
C440   C471    1.402   .     A
C441   H529    1.083   .     S
C441   C474    1.402   .     A
C442   C473    1.402   .     A
C442   H530    1.083   .     S
C443   H531    1.083   .     S
C443   C476    1.402   .     A
C444   C475    1.402   .     A
C444   H532    1.083   .     S
C445   C477    1.417   .     A
C446   C130    1.417   1_655 S
C447   C1175   1.417   .     A
C448   C480    1.417   .     S
C449   C129    1.417   1_655 S
C450   C478    1.417   .     A
C451   C479    1.417   .     S
C452   C1176   1.417   .     A
C453   C1177   1.417   .     S
C454   C482    1.417   .     A
C455   C483    1.417   .     S
C456   C136    1.417   1_655 A
C457   C481    1.417   .     A
C458   C1178   1.417   .     S
C459   C135    1.417   1_655 A
C460   C484    1.417   .     S
C477   C478    1.416   .     A
C479   C480    1.416   .     A
C479   C1143   1.417   1_545 A
C480   C1148   1.417   1_545 A
C481   C1149   1.417   1_545 S
C481   C482    1.416   1_556 S
C482   C1154   1.417   1_545 S
C482   C481    1.416   1_554 S
C483   C484    1.416   1_556 S
C484   C483    1.416   1_554 S
O533   Zn585   1.949   .     S
O533   Zn589   1.949   .     S
O533   Zn596   1.949   .     S
O533   Zn1296  1.949   1_545 S
O534   Zn590   1.949   .     S
O534   Zn599   1.949   .     S
O534   Zn586   1.949   .     S
O534   Zn1291  1.949   1_545 S
O535   Zn594   1.949   .     S
O535   Zn587   1.949   .     S
O535   Zn591   1.949   .     S
O536   Zn588   1.949   .     S
O536   Zn592   1.949   .     S
O536   Zn597   1.949   .     S
O537   C1085   1.279   .     A
O537   Zn600   1.954   .     S
O538   Zn599   1.954   .     S
O539   Zn594   1.954   .     S
O540   C44     1.279   1_655 A
O540   Zn593   1.954   .     S
O541   Zn596   1.954   .     S
O542   Zn595   1.954   .     S
O542   C1086   1.279   .     S
O543   C43     1.279   1_655 A
O543   Zn598   1.954   .     S
O544   Zn597   1.954   .     S
O545   Zn592   1.954   .     S
O546   Zn591   1.954   .     S
O547   Zn586   1.954   .     S
O548   Zn585   1.954   .     S
O549   Zn588   1.954   .     S
O550   Zn587   1.954   .     S
O551   Zn590   1.954   .     S
O552   Zn589   1.954   .     S
O553   Zn596   1.936   .     S
O554   Zn595   1.936   .     S
O555   Zn598   1.937   .     S
O556   Zn597   1.937   .     S
O557   Zn600   1.936   .     S
O558   Zn599   1.936   .     S
O559   Zn594   1.937   .     S
O560   Zn593   1.937   .     S
O561   Zn595   1.937   .     S
O562   Zn596   1.937   .     S
O563   Zn593   1.936   .     S
O564   Zn594   1.936   .     S
O565   Zn599   1.937   .     S
O566   Zn600   1.937   .     S
O567   Zn597   1.936   .     S
O568   Zn598   1.936   .     S
O569   Zn240   1.936   1_655 S
O570   Zn587   1.936   .     S
O571   Zn1286  1.937   .     S
O572   Zn589   1.937   .     S
O573   Zn592   1.936   .     S
O574   Zn243   1.936   1_655 S
O575   Zn586   1.937   .     S
O576   Zn1281  1.937   .     S
O577   Zn239   1.937   1_655 S
O578   Zn588   1.937   .     S
O579   Zn585   1.936   .     S
O580   Zn1282  1.936   .     S
O581   Zn591   1.937   .     S
O582   Zn244   1.937   1_655 S
O583   Zn1285  1.936   .     S
O584   Zn590   1.936   .     S
Zn585  O1272   1.937   1_545 S
Zn586  O1276   1.936   1_545 S
Zn589  O1279   1.936   1_545 S
Zn590  O1267   1.937   1_545 S
Zn593  O188    1.949   1_655 S
Zn595  O1230   1.949   .     S
Zn598  O187    1.949   1_655 S
Zn600  O1229   1.949   .     S
N601   H602    1.031   .     S
N601   C603    1.446   .     S
C603   H605    1.110   .     S
C603   H606    1.111   .     S
C603   H604    1.111   .     S
N607   C609    1.446   .     S
N607   H608    1.031   .     S
C609   H610    1.111   .     S
C609   H611    1.111   .     S
C609   H612    1.110   .     S
N613   C615    1.446   .     S
N613   H614    1.031   .     S
C615   H617    1.111   .     S
C615   H618    1.110   .     S
C615   H616    1.111   .     S
N619   H620    1.031   .     S
N619   C621    1.446   .     S
C621   H624    1.111   .     S
C621   H623    1.110   .     S
C621   H622    1.111   .     S
N625   H626    1.031   .     S
N625   C627    1.446   .     S
C627   H629    1.110   .     S
C627   H628    1.111   .     S
C627   H630    1.111   .     S
N631   H632    1.031   .     S
N631   C633    1.446   .     S
C633   H635    1.111   .     S
C633   H634    1.111   .     S
C633   H636    1.110   .     S
N637   H638    1.031   .     S
N637   C639    1.446   .     S
C639   H640    1.111   .     S
C639   H641    1.111   .     S
C639   H642    1.110   .     S
N643   C645    1.446   .     S
N643   H644    1.031   .     S
C645   H647    1.110   .     S
C645   H646    1.111   .     S
C645   H648    1.111   .     S
N649   C651    1.446   .     S
N649   H650    1.031   .     S
C651   H653    1.110   .     S
C651   H652    1.111   .     S
C651   H654    1.111   .     S
N655   H656    1.031   .     S
N655   C657    1.446   .     S
C657   H659    1.111   .     S
C657   H658    1.111   .     S
C657   H660    1.110   .     S
N661   C663    1.446   .     S
N661   H662    1.031   .     S
C663   H666    1.110   .     S
C663   H664    1.111   .     S
C663   H665    1.111   .     S
N667   C669    1.446   .     S
N667   H668    1.031   .     S
C669   H670    1.111   .     S
C669   H672    1.111   .     S
C669   H671    1.110   .     S
N673   C675    1.446   .     S
N673   H674    1.031   .     S
C675   H677    1.110   .     S
C675   H676    1.111   .     S
C675   H678    1.111   .     S
N679   H680    1.031   .     S
N679   C681    1.446   .     S
C681   H682    1.111   .     S
C681   H684    1.110   .     S
C681   H683    1.111   .     S
N685   H686    1.031   .     S
N685   C687    1.446   .     S
C687   H690    1.110   .     S
C687   H688    1.111   .     S
C687   H689    1.111   .     S
N691   C693    1.446   .     S
N691   H692    1.031   .     S
C693   H696    1.111   .     S
C693   H695    1.110   .     S
C693   H694    1.111   .     S
C697   C797    1.408   .     A
C697   N949    1.428   .     S
C697   C1061   1.408   .     S
C698   C798    1.408   .     A
C698   N955    1.428   .     S
C698   C714    1.408   .     A
C699   C799    1.409   .     A
C699   N961    1.428   .     S
C699   C715    1.408   .     S
C700   C800    1.409   .     A
C700   N967    1.428   .     S
C700   C20     1.408   1_565 S
C701   C793    1.408   .     A
C701   C713    1.408   .     A
C701   N973    1.428   .     S
C702   N979    1.428   .     S
C702   C794    1.408   .     A
C702   C1062   1.408   .     S
C703   C795    1.409   .     A
C703   C19     1.408   1_565 A
C703   N985    1.428   .     S
C704   N991    1.428   .     S
C704   C796    1.409   .     A
C704   C716    1.408   .     A
C705   C717    1.408   .     A
C705   C805    1.408   .     A
C705   N997    1.428   .     S
C706   N1003   1.428   .     S
C706   C806    1.408   .     A
C706   C22     1.408   1_565 S
C707   N1009   1.428   .     S
C707   C1067   1.408   .     A
C707   C807    1.408   .     A
C708   C808    1.408   .     A
C708   N1015   1.428   .     S
C708   C720    1.408   .     S
C709   N1021   1.428   .     S
C709   C801    1.408   .     A
C709   C21     1.408   1_565 S
C710   N1027   1.428   .     S
C710   C802    1.408   .     A
C710   C718    1.408   .     A
C711   N1033   1.428   .     S
C711   C803    1.408   .     A
C711   C719    1.408   .     S
C712   N1039   1.428   .     S
C712   C1068   1.408   .     A
C712   C804    1.408   .     A
C713   C1045   1.408   1_455 S
C713   C739    1.462   .     S
C714   C1050   1.408   1_455 S
C714   C740    1.462   .     S
C715   C737    1.462   .     S
C716   C738    1.462   .     S
C717   C743    1.462   .     S
C718   C744    1.462   .     S
C719   C1055   1.408   1_455 A
C719   C741    1.462   .     S
C720   C742    1.462   .     S
C720   C1060   1.408   1_455 A
C721   H833    1.081   .     S
C721   C793    1.404   .     A
C721   C726    1.385   .     A
C722   H834    1.081   .     S
C722   C794    1.404   .     A
C722   C725    1.385   .     A
C723   C795    1.404   .     A
C723   H835    1.081   .     S
C723   C728    1.385   .     A
C724   C727    1.385   .     A
C724   H836    1.081   .     S
C724   C796    1.404   .     A
C725   H837    1.081   .     S
C725   C797    1.404   .     A
C726   C798    1.404   .     A
C726   H838    1.081   .     S
C727   H839    1.081   .     S
C727   C799    1.404   .     A
C728   C800    1.404   .     A
C728   H840    1.081   .     S
C729   C801    1.404   .     A
C729   H841    1.081   .     S
C729   C734    1.385   1_556 S
C730   C802    1.404   .     A
C730   H842    1.081   .     S
C730   C733    1.385   1_554 S
C731   C803    1.404   .     A
C731   H843    1.081   .     S
C731   C736    1.385   1_556 S
C732   C804    1.404   .     A
C732   H844    1.081   .     S
C732   C735    1.385   1_554 S
C733   C805    1.404   .     A
C733   H845    1.081   .     S
C733   C730    1.385   1_556 S
C734   C806    1.404   .     A
C734   H846    1.081   .     S
C734   C729    1.385   1_554 S
C735   C807    1.404   .     A
C735   H847    1.081   .     S
C735   C732    1.385   1_556 S
C736   H848    1.081   .     S
C736   C808    1.404   .     A
C736   C731    1.385   1_554 S
C737   O889    1.279   .     S
C738   O886    1.279   .     A
C739   O1239   1.279   1_455 A
C739   O887    1.279   .     S
C740   O1236   1.279   1_455 A
C740   O892    1.279   .     S
C741   O897    1.279   .     A
C741   O893    1.279   .     S
C742   O898    1.279   .     A
C742   O894    1.279   .     S
C743   O895    1.279   .     A
C743   O899    1.279   .     A
C744   O900    1.279   .     A
C744   O896    1.279   .     A
C745   C811    1.455   .     S
C745   O901    1.282   .     A
C745   O927    1.282   .     A
C746   O928    1.282   .     A
C746   O902    1.282   .     A
C746   C812    1.455   .     S
C747   O903    1.282   .     A
C747   C813    1.456   .     S
C747   O925    1.282   .     A
C748   O926    1.282   .     A
C748   C814    1.456   .     S
C748   O904    1.282   .     A
C749   O905    1.282   .     A
C749   O931    1.282   .     A
C749   C815    1.455   .     S
C750   O932    1.282   .     A
C750   C816    1.455   .     S
C750   O906    1.282   .     A
C751   O929    1.282   .     A
C751   C809    1.456   .     S
C751   O907    1.282   .     A
C752   O930    1.282   .     A
C752   O908    1.282   .     A
C752   C810    1.456   .     S
C753   O919    1.282   .     A
C753   O909    1.282   .     A
C753   C819    1.456   .     S
C754   O910    1.282   .     A
C754   O920    1.282   .     A
C754   C820    1.456   .     S
C755   O911    1.282   .     A
C755   C821    1.455   .     S
C755   O917    1.282   .     A
C756   O912    1.282   .     A
C756   O918    1.282   .     A
C756   C822    1.455   .     S
C757   O923    1.282   .     A
C757   O913    1.282   .     A
C757   C823    1.456   .     S
C758   O924    1.282   .     A
C758   O914    1.282   .     A
C758   C824    1.456   .     S
C759   O915    1.282   .     A
C759   O921    1.282   .     A
C759   C817    1.455   .     S
C760   O922    1.282   .     A
C760   O916    1.282   .     A
C760   C818    1.455   .     S
C761   H849    1.083   .     S
C761   C824    1.402   .     A
C761   C776    1.386   .     A
C762   C775    1.386   .     A
C762   H850    1.083   .     S
C762   C823    1.402   .     A
C763   H851    1.083   .     S
C763   C822    1.402   .     A
C763   C774    1.386   .     A
C764   C773    1.386   .     A
C764   C821    1.402   .     A
C764   H852    1.083   .     S
C765   C772    1.386   .     A
C765   H853    1.083   .     S
C765   C820    1.402   .     A
C766   C771    1.386   .     A
C766   H854    1.083   .     S
C766   C819    1.402   .     A
C767   C818    1.402   .     A
C767   C770    1.386   .     A
C767   H855    1.083   .     S
C768   C769    1.386   .     A
C768   C817    1.402   .     A
C768   H856    1.083   .     S
C769   C816    1.402   .     A
C769   H857    1.083   .     S
C770   H858    1.083   .     S
C770   C815    1.402   .     A
C771   C814    1.402   .     A
C771   H859    1.083   .     S
C772   C813    1.402   .     A
C772   H860    1.083   .     S
C773   H861    1.083   .     S
C773   C812    1.402   .     A
C774   C811    1.402   .     A
C774   H862    1.083   .     S
C775   H863    1.083   .     S
C775   C810    1.402   .     A
C776   H864    1.083   .     S
C776   C809    1.402   .     A
C777   H865    1.083   .     S
C777   C810    1.402   .     A
C777   C792    1.386   .     A
C778   C791    1.386   .     A
C778   C809    1.402   .     A
C778   H866    1.083   .     S
C779   H867    1.083   .     S
C779   C790    1.386   .     A
C779   C812    1.402   .     A
C780   C789    1.386   .     A
C780   H868    1.083   .     S
C780   C811    1.402   .     A
C781   C814    1.402   .     A
C781   C788    1.386   .     A
C781   H869    1.083   .     S
C782   H870    1.083   .     S
C782   C813    1.402   .     A
C782   C787    1.386   .     A
C783   H871    1.083   .     S
C783   C786    1.386   .     A
C783   C816    1.402   .     A
C784   C815    1.402   .     A
C784   C785    1.386   .     A
C784   H872    1.083   .     S
C785   C818    1.402   .     A
C785   H873    1.083   .     S
C786   C817    1.402   .     A
C786   H874    1.083   .     S
C787   H875    1.083   .     S
C787   C820    1.402   .     A
C788   H876    1.083   .     S
C788   C819    1.402   .     A
C789   H877    1.083   .     S
C789   C822    1.402   .     A
C790   C821    1.402   .     A
C790   H878    1.083   .     S
C791   H879    1.083   .     S
C791   C824    1.402   .     A
C792   C823    1.402   .     A
C792   H880    1.083   .     S
C793   C825    1.417   .     A
C794   C1174   1.417   .     S
C795   C131    1.417   1_565 A
C796   C828    1.417   .     S
C797   C1173   1.417   .     S
C798   C826    1.417   .     A
C799   C827    1.417   .     S
C800   C132    1.417   1_565 A
C801   C133    1.417   1_565 S
C802   C830    1.417   .     A
C803   C831    1.417   .     S
C804   C1180   1.417   .     A
C805   C829    1.417   .     A
C806   C134    1.417   1_565 S
C807   C1179   1.417   .     A
C808   C832    1.417   .     S
C825   C826    1.416   .     A
C825   C1145   1.417   1_455 S
C826   C1142   1.417   1_455 S
C827   C828    1.416   .     A
C829   C830    1.416   1_556 S
C830   C829    1.416   1_554 S
C831   C1155   1.417   1_455 A
C831   C832    1.416   1_556 S
C832   C1152   1.417   1_455 A
C832   C831    1.416   1_554 S
O881   Zn933   1.949   .     S
O881   Zn937   1.949   .     S
O881   Zn944   1.949   .     S
O882   Zn938   1.949   .     S
O882   Zn947   1.949   .     S
O882   Zn934   1.949   .     S
O883   Zn942   1.949   .     S
O883   Zn935   1.949   .     S
O883   Zn939   1.949   .     S
O883   Zn1294  1.949   1_455 S
O884   Zn936   1.949   .     S
O884   Zn1289  1.949   1_455 S
O884   Zn940   1.949   .     S
O884   Zn945   1.949   .     S
O885   C41     1.279   1_565 A
O885   Zn948   1.954   .     S
O886   Zn947   1.954   .     S
O887   Zn942   1.954   .     S
O888   C1088   1.279   .     A
O888   Zn941   1.954   .     S
O889   Zn944   1.954   .     S
O890   Zn943   1.954   .     S
O890   C42     1.279   1_565 S
O891   C1087   1.279   .     A
O891   Zn946   1.954   .     S
O892   Zn945   1.954   .     S
O893   Zn940   1.954   .     S
O894   Zn939   1.954   .     S
O895   Zn934   1.954   .     S
O896   Zn933   1.954   .     S
O897   Zn936   1.954   .     S
O898   Zn935   1.954   .     S
O899   Zn938   1.954   .     S
O900   Zn937   1.954   .     S
O901   Zn944   1.936   .     S
O902   Zn943   1.936   .     S
O903   Zn946   1.937   .     S
O904   Zn945   1.937   .     S
O905   Zn948   1.936   .     S
O906   Zn947   1.936   .     S
O907   Zn942   1.937   .     S
O908   Zn941   1.937   .     S
O909   Zn943   1.937   .     S
O910   Zn944   1.937   .     S
O911   Zn941   1.936   .     S
O912   Zn942   1.936   .     S
O913   Zn947   1.937   .     S
O914   Zn948   1.937   .     S
O915   Zn945   1.936   .     S
O916   Zn946   1.936   .     S
O917   Zn1284  1.936   .     S
O918   Zn935   1.936   .     S
O919   Zn242   1.937   1_565 S
O920   Zn937   1.937   .     S
O921   Zn940   1.936   .     S
O922   Zn1287  1.936   .     S
O923   Zn934   1.937   .     S
O924   Zn237   1.937   1_565 S
O925   Zn1283  1.937   .     S
O926   Zn936   1.937   .     S
O927   Zn933   1.936   .     S
O928   Zn238   1.936   1_565 S
O929   Zn939   1.937   .     S
O930   Zn1288  1.937   .     S
O931   Zn241   1.936   1_565 S
O932   Zn938   1.936   .     S
Zn935  O1273   1.937   1_455 S
Zn936  O1265   1.936   1_455 S
Zn939  O1270   1.936   1_455 S
Zn940  O1278   1.937   1_455 S
Zn941  O1232   1.949   .     S
Zn943  O186    1.949   1_565 S
Zn946  O1231   1.949   .     S
Zn948  O185    1.949   1_565 S
N949   H950    1.031   .     S
N949   C951    1.446   .     S
C951   H953    1.110   .     S
C951   H954    1.111   .     S
C951   H952    1.111   .     S
N955   C957    1.446   .     S
N955   H956    1.031   .     S
C957   H958    1.111   .     S
C957   H959    1.111   .     S
C957   H960    1.110   .     S
N961   C963    1.446   .     S
N961   H962    1.031   .     S
C963   H965    1.111   .     S
C963   H966    1.110   .     S
C963   H964    1.111   .     S
N967   H968    1.031   .     S
N967   C969    1.446   .     S
C969   H972    1.111   .     S
C969   H971    1.110   .     S
C969   H970    1.111   .     S
N973   H974    1.031   .     S
N973   C975    1.446   .     S
C975   H977    1.110   .     S
C975   H976    1.111   .     S
C975   H978    1.111   .     S
N979   H980    1.031   .     S
N979   C981    1.446   .     S
C981   H983    1.111   .     S
C981   H982    1.111   .     S
C981   H984    1.110   .     S
N985   H986    1.031   .     S
N985   C987    1.446   .     S
C987   H988    1.111   .     S
C987   H989    1.111   .     S
C987   H990    1.110   .     S
N991   C993    1.446   .     S
N991   H992    1.031   .     S
C993   H995    1.110   .     S
C993   H994    1.111   .     S
C993   H996    1.111   .     S
N997   C999    1.446   .     S
N997   H998    1.031   .     S
C999   H1001   1.110   .     S
C999   H1000   1.111   .     S
C999   H1002   1.111   .     S
N1003  H1004   1.031   .     S
N1003  C1005   1.446   .     S
C1005  H1007   1.111   .     S
C1005  H1006   1.111   .     S
C1005  H1008   1.110   .     S
N1009  C1011   1.446   .     S
N1009  H1010   1.031   .     S
C1011  H1014   1.110   .     S
C1011  H1012   1.111   .     S
C1011  H1013   1.111   .     S
N1015  C1017   1.446   .     S
N1015  H1016   1.031   .     S
C1017  H1018   1.111   .     S
C1017  H1020   1.111   .     S
C1017  H1019   1.110   .     S
N1021  C1023   1.446   .     S
N1021  H1022   1.031   .     S
C1023  H1025   1.110   .     S
C1023  H1024   1.111   .     S
C1023  H1026   1.111   .     S
N1027  H1028   1.031   .     S
N1027  C1029   1.446   .     S
C1029  H1030   1.111   .     S
C1029  H1032   1.110   .     S
C1029  H1031   1.111   .     S
N1033  H1034   1.031   .     S
N1033  C1035   1.446   .     S
C1035  H1038   1.110   .     S
C1035  H1036   1.111   .     S
C1035  H1037   1.111   .     S
N1039  C1041   1.446   .     S
N1039  H1040   1.031   .     S
C1041  H1044   1.111   .     S
C1041  H1043   1.110   .     S
C1041  H1042   1.111   .     S
C1045  C1145   1.408   .     A
C1045  N1297   1.428   .     S
C1045  C713    1.408   1_655 S
C1046  C1146   1.408   .     A
C1046  N1303   1.428   .     S
C1046  C1062   1.408   .     A
C1047  C1147   1.409   .     A
C1047  N1309   1.428   .     S
C1047  C1063   1.408   .     S
C1048  C1148   1.409   .     A
C1048  N1315   1.428   .     S
C1048  C368    1.408   1_565 S
C1049  C1141   1.408   .     A
C1049  C1061   1.408   .     A
C1049  N1321   1.428   .     S
C1050  N1327   1.428   .     S
C1050  C1142   1.408   .     A
C1050  C714    1.408   1_655 S
C1051  C1143   1.409   .     A
C1051  C367    1.408   1_565 A
C1051  N1333   1.428   .     S
C1052  N1339   1.428   .     S
C1052  C1144   1.409   .     A
C1052  C1064   1.408   .     A
C1053  C1065   1.408   .     A
C1053  C1153   1.408   .     A
C1053  N1345   1.428   .     S
C1054  N1351   1.428   .     S
C1054  C1154   1.408   .     A
C1054  C370    1.408   1_565 S
C1055  N1357   1.428   .     S
C1055  C719    1.408   1_655 A
C1055  C1155   1.408   .     A
C1056  C1156   1.408   .     A
C1056  N1363   1.428   .     S
C1056  C1068   1.408   .     S
C1057  N1369   1.428   .     S
C1057  C1149   1.408   .     A
C1057  C369    1.408   1_565 S
C1058  N1375   1.428   .     S
C1058  C1150   1.408   .     A
C1058  C1066   1.408   .     A
C1059  N1381   1.428   .     S
C1059  C1151   1.408   .     A
C1059  C1067   1.408   .     S
C1060  N1387   1.428   .     S
C1060  C720    1.408   1_655 A
C1060  C1152   1.408   .     A
C1061  C1087   1.462   .     S
C1062  C1088   1.462   .     S
C1063  C1085   1.462   .     S
C1064  C1086   1.462   .     S
C1065  C1091   1.462   .     S
C1066  C1092   1.462   .     S
C1067  C1089   1.462   .     S
C1068  C1090   1.462   .     S
C1069  H1181   1.081   .     S
C1069  C1141   1.404   .     A
C1069  C1074   1.385   .     A
C1070  H1182   1.081   .     S
C1070  C1142   1.404   .     A
C1070  C1073   1.385   .     A
C1071  C1143   1.404   .     A
C1071  H1183   1.081   .     S
C1071  C1076   1.385   .     A
C1072  C1075   1.385   .     A
C1072  H1184   1.081   .     S
C1072  C1144   1.404   .     A
C1073  H1185   1.081   .     S
C1073  C1145   1.404   .     A
C1074  C1146   1.404   .     A
C1074  H1186   1.081   .     S
C1075  H1187   1.081   .     S
C1075  C1147   1.404   .     A
C1076  C1148   1.404   .     A
C1076  H1188   1.081   .     S
C1077  C1149   1.404   .     A
C1077  H1189   1.081   .     S
C1077  C1082   1.385   1_556 S
C1078  C1150   1.404   .     A
C1078  H1190   1.081   .     S
C1078  C1081   1.385   1_554 S
C1079  C1151   1.404   .     A
C1079  H1191   1.081   .     S
C1079  C1084   1.385   1_556 S
C1080  C1152   1.404   .     A
C1080  H1192   1.081   .     S
C1080  C1083   1.385   1_554 S
C1081  C1153   1.404   .     A
C1081  H1193   1.081   .     S
C1081  C1078   1.385   1_556 S
C1082  C1154   1.404   .     A
C1082  H1194   1.081   .     S
C1082  C1077   1.385   1_554 S
C1083  C1155   1.404   .     A
C1083  H1195   1.081   .     S
C1083  C1080   1.385   1_556 S
C1084  H1196   1.081   .     S
C1084  C1156   1.404   .     A
C1084  C1079   1.385   1_554 S
C1085  O1237   1.279   .     S
C1086  O1234   1.279   .     A
C1087  O1235   1.279   .     S
C1088  O1240   1.279   .     S
C1089  O1245   1.279   .     A
C1089  O1241   1.279   .     S
C1090  O1246   1.279   .     A
C1090  O1242   1.279   .     S
C1091  O1243   1.279   .     A
C1091  O1247   1.279   .     A
C1092  O1248   1.279   .     A
C1092  O1244   1.279   .     A
C1093  C1159   1.455   .     S
C1093  O1249   1.282   .     A
C1093  O1275   1.282   .     A
C1094  O1276   1.282   .     A
C1094  O1250   1.282   .     A
C1094  C1160   1.455   .     S
C1095  O1251   1.282   .     A
C1095  C1161   1.456   .     S
C1095  O1273   1.282   .     A
C1096  O1274   1.282   .     A
C1096  C1162   1.456   .     S
C1096  O1252   1.282   .     A
C1097  O1253   1.282   .     A
C1097  O1279   1.282   .     A
C1097  C1163   1.455   .     S
C1098  O1280   1.282   .     A
C1098  C1164   1.455   .     S
C1098  O1254   1.282   .     A
C1099  O1277   1.282   .     A
C1099  C1157   1.456   .     S
C1099  O1255   1.282   .     A
C1100  O1278   1.282   .     A
C1100  O1256   1.282   .     A
C1100  C1158   1.456   .     S
C1101  O1267   1.282   .     A
C1101  O1257   1.282   .     A
C1101  C1167   1.456   .     S
C1102  O1258   1.282   .     A
C1102  O1268   1.282   .     A
C1102  C1168   1.456   .     S
C1103  O1259   1.282   .     A
C1103  C1169   1.455   .     S
C1103  O1265   1.282   .     A
C1104  O1260   1.282   .     A
C1104  O1266   1.282   .     A
C1104  C1170   1.455   .     S
C1105  O1271   1.282   .     A
C1105  O1261   1.282   .     A
C1105  C1171   1.456   .     S
C1106  O1272   1.282   .     A
C1106  O1262   1.282   .     A
C1106  C1172   1.456   .     S
C1107  O1263   1.282   .     A
C1107  O1269   1.282   .     A
C1107  C1165   1.455   .     S
C1108  O1270   1.282   .     A
C1108  O1264   1.282   .     A
C1108  C1166   1.455   .     S
C1109  H1197   1.083   .     S
C1109  C1172   1.402   .     A
C1109  C1124   1.386   .     A
C1110  C1123   1.386   .     A
C1110  H1198   1.083   .     S
C1110  C1171   1.402   .     A
C1111  H1199   1.083   .     S
C1111  C1170   1.402   .     A
C1111  C1122   1.386   .     A
C1112  C1121   1.386   .     A
C1112  C1169   1.402   .     A
C1112  H1200   1.083   .     S
C1113  C1120   1.386   .     A
C1113  H1201   1.083   .     S
C1113  C1168   1.402   .     A
C1114  C1119   1.386   .     A
C1114  H1202   1.083   .     S
C1114  C1167   1.402   .     A
C1115  C1166   1.402   .     A
C1115  C1118   1.386   .     A
C1115  H1203   1.083   .     S
C1116  C1117   1.386   .     A
C1116  C1165   1.402   .     A
C1116  H1204   1.083   .     S
C1117  C1164   1.402   .     A
C1117  H1205   1.083   .     S
C1118  H1206   1.083   .     S
C1118  C1163   1.402   .     A
C1119  C1162   1.402   .     A
C1119  H1207   1.083   .     S
C1120  C1161   1.402   .     A
C1120  H1208   1.083   .     S
C1121  H1209   1.083   .     S
C1121  C1160   1.402   .     A
C1122  C1159   1.402   .     A
C1122  H1210   1.083   .     S
C1123  H1211   1.083   .     S
C1123  C1158   1.402   .     A
C1124  H1212   1.083   .     S
C1124  C1157   1.402   .     A
C1125  H1213   1.083   .     S
C1125  C1158   1.402   .     A
C1125  C1140   1.386   .     A
C1126  C1139   1.386   .     A
C1126  C1157   1.402   .     A
C1126  H1214   1.083   .     S
C1127  H1215   1.083   .     S
C1127  C1138   1.386   .     A
C1127  C1160   1.402   .     A
C1128  C1137   1.386   .     A
C1128  H1216   1.083   .     S
C1128  C1159   1.402   .     A
C1129  C1162   1.402   .     A
C1129  C1136   1.386   .     A
C1129  H1217   1.083   .     S
C1130  H1218   1.083   .     S
C1130  C1161   1.402   .     A
C1130  C1135   1.386   .     A
C1131  H1219   1.083   .     S
C1131  C1134   1.386   .     A
C1131  C1164   1.402   .     A
C1132  C1163   1.402   .     A
C1132  C1133   1.386   .     A
C1132  H1220   1.083   .     S
C1133  C1166   1.402   .     A
C1133  H1221   1.083   .     S
C1134  C1165   1.402   .     A
C1134  H1222   1.083   .     S
C1135  H1223   1.083   .     S
C1135  C1168   1.402   .     A
C1136  H1224   1.083   .     S
C1136  C1167   1.402   .     A
C1137  H1225   1.083   .     S
C1137  C1170   1.402   .     A
C1138  C1169   1.402   .     A
C1138  H1226   1.083   .     S
C1139  H1227   1.083   .     S
C1139  C1172   1.402   .     A
C1140  C1171   1.402   .     A
C1140  H1228   1.083   .     S
C1141  C1173   1.417   .     A
C1142  C826    1.417   1_655 S
C1143  C479    1.417   1_565 A
C1144  C1176   1.417   .     S
C1145  C825    1.417   1_655 S
C1146  C1174   1.417   .     A
C1147  C1175   1.417   .     S
C1148  C480    1.417   1_565 A
C1149  C481    1.417   1_565 S
C1150  C1178   1.417   .     A
C1151  C1179   1.417   .     S
C1152  C832    1.417   1_655 A
C1153  C1177   1.417   .     A
C1154  C482    1.417   1_565 S
C1155  C831    1.417   1_655 A
C1156  C1180   1.417   .     S
C1173  C1174   1.416   .     A
C1175  C1176   1.416   .     A
C1177  C1178   1.416   1_556 S
C1178  C1177   1.416   1_554 S
C1179  C1180   1.416   1_556 S
C1180  C1179   1.416   1_554 S
O1229  Zn1281  1.949   .     S
O1229  Zn1285  1.949   .     S
O1229  Zn1292  1.949   .     S
O1230  Zn1286  1.949   .     S
O1230  Zn1295  1.949   .     S
O1230  Zn1282  1.949   .     S
O1231  Zn1290  1.949   .     S
O1231  Zn1283  1.949   .     S
O1231  Zn1287  1.949   .     S
O1232  Zn1284  1.949   .     S
O1232  Zn1288  1.949   .     S
O1232  Zn1293  1.949   .     S
O1233  C389    1.279   1_565 A
O1233  Zn1296  1.954   .     S
O1234  Zn1295  1.954   .     S
O1235  Zn1290  1.954   .     S
O1236  C740    1.279   1_655 A
O1236  Zn1289  1.954   .     S
O1237  Zn1292  1.954   .     S
O1238  Zn1291  1.954   .     S
O1238  C390    1.279   1_565 S
O1239  C739    1.279   1_655 A
O1239  Zn1294  1.954   .     S
O1240  Zn1293  1.954   .     S
O1241  Zn1288  1.954   .     S
O1242  Zn1287  1.954   .     S
O1243  Zn1282  1.954   .     S
O1244  Zn1281  1.954   .     S
O1245  Zn1284  1.954   .     S
O1246  Zn1283  1.954   .     S
O1247  Zn1286  1.954   .     S
O1248  Zn1285  1.954   .     S
O1249  Zn1292  1.936   .     S
O1250  Zn1291  1.936   .     S
O1251  Zn1294  1.937   .     S
O1252  Zn1293  1.937   .     S
O1253  Zn1296  1.936   .     S
O1254  Zn1295  1.936   .     S
O1255  Zn1290  1.937   .     S
O1256  Zn1289  1.937   .     S
O1257  Zn1291  1.937   .     S
O1258  Zn1292  1.937   .     S
O1259  Zn1289  1.936   .     S
O1260  Zn1290  1.936   .     S
O1261  Zn1295  1.937   .     S
O1262  Zn1296  1.937   .     S
O1263  Zn1293  1.936   .     S
O1264  Zn1294  1.936   .     S
O1265  Zn936   1.936   1_655 S
O1266  Zn1283  1.936   .     S
O1267  Zn590   1.937   1_565 S
O1268  Zn1285  1.937   .     S
O1269  Zn1288  1.936   .     S
O1270  Zn939   1.936   1_655 S
O1271  Zn1282  1.937   .     S
O1272  Zn585   1.937   1_565 S
O1273  Zn935   1.937   1_655 S
O1274  Zn1284  1.937   .     S
O1275  Zn1281  1.936   .     S
O1276  Zn586   1.936   1_565 S
O1277  Zn1287  1.937   .     S
O1278  Zn940   1.937   1_655 S
O1279  Zn589   1.936   1_565 S
O1280  Zn1286  1.936   .     S
Zn1289 O884    1.949   1_655 S
Zn1291 O534    1.949   1_565 S
Zn1294 O883    1.949   1_655 S
Zn1296 O533    1.949   1_565 S
N1297  H1298   1.031   .     S
N1297  C1299   1.446   .     S
C1299  H1301   1.110   .     S
C1299  H1302   1.111   .     S
C1299  H1300   1.111   .     S
N1303  C1305   1.446   .     S
N1303  H1304   1.031   .     S
C1305  H1306   1.111   .     S
C1305  H1307   1.111   .     S
C1305  H1308   1.110   .     S
N1309  C1311   1.446   .     S
N1309  H1310   1.031   .     S
C1311  H1313   1.111   .     S
C1311  H1314   1.110   .     S
C1311  H1312   1.111   .     S
N1315  H1316   1.031   .     S
N1315  C1317   1.446   .     S
C1317  H1320   1.111   .     S
C1317  H1319   1.110   .     S
C1317  H1318   1.111   .     S
N1321  H1322   1.031   .     S
N1321  C1323   1.446   .     S
C1323  H1325   1.110   .     S
C1323  H1324   1.111   .     S
C1323  H1326   1.111   .     S
N1327  H1328   1.031   .     S
N1327  C1329   1.446   .     S
C1329  H1331   1.111   .     S
C1329  H1330   1.111   .     S
C1329  H1332   1.110   .     S
N1333  H1334   1.031   .     S
N1333  C1335   1.446   .     S
C1335  H1336   1.111   .     S
C1335  H1337   1.111   .     S
C1335  H1338   1.110   .     S
N1339  C1341   1.446   .     S
N1339  H1340   1.031   .     S
C1341  H1343   1.110   .     S
C1341  H1342   1.111   .     S
C1341  H1344   1.111   .     S
N1345  C1347   1.446   .     S
N1345  H1346   1.031   .     S
C1347  H1349   1.110   .     S
C1347  H1348   1.111   .     S
C1347  H1350   1.111   .     S
N1351  H1352   1.031   .     S
N1351  C1353   1.446   .     S
C1353  H1355   1.111   .     S
C1353  H1354   1.111   .     S
C1353  H1356   1.110   .     S
N1357  C1359   1.446   .     S
N1357  H1358   1.031   .     S
C1359  H1362   1.110   .     S
C1359  H1360   1.111   .     S
C1359  H1361   1.111   .     S
N1363  C1365   1.446   .     S
N1363  H1364   1.031   .     S
C1365  H1366   1.111   .     S
C1365  H1368   1.111   .     S
C1365  H1367   1.110   .     S
N1369  C1371   1.446   .     S
N1369  H1370   1.031   .     S
C1371  H1373   1.110   .     S
C1371  H1372   1.111   .     S
C1371  H1374   1.111   .     S
N1375  H1376   1.031   .     S
N1375  C1377   1.446   .     S
C1377  H1378   1.111   .     S
C1377  H1380   1.110   .     S
C1377  H1379   1.111   .     S
N1381  H1382   1.031   .     S
N1381  C1383   1.446   .     S
C1383  H1386   1.110   .     S
C1383  H1384   1.111   .     S
C1383  H1385   1.111   .     S
N1387  C1389   1.446   .     S
N1387  H1388   1.031   .     S
C1389  H1392   1.111   .     S
C1389  H1391   1.110   .     S
C1389  H1390   1.111   .     S
