data_str_m2_o10_o18_pcu_sym.6
_audit_creation_date              2020-01-03
_audit_creation_method            'Materials Studio'
_symmetry_space_group_name_H-M    'P1'
_symmetry_Int_Tables_number       1
_symmetry_cell_setting            triclinic
loop_
_symmetry_equiv_pos_as_xyz
  x,y,z
_cell_length_a                    22.4863
_cell_length_b                    26.0125
_cell_length_c                    31.0502
_cell_angle_alpha                 94.0289
_cell_angle_beta                  75.5277
_cell_angle_gamma                 103.2040
loop_
_atom_site_label
_atom_site_type_symbol
_atom_site_fract_x
_atom_site_fract_y
_atom_site_fract_z
_atom_site_U_iso_or_equiv
_atom_site_adp_type
_atom_site_occupancy
C1     C     0.18170   0.26666   0.25126   0.00000  Uiso   1.00
C2     C     0.20510   0.17081   0.16644   0.00000  Uiso   1.00
C3     C     0.10486   0.14006   0.37896   0.00000  Uiso   1.00
C4     C     0.22825   0.17229   0.11751   0.00000  Uiso   1.00
C5     C     0.04654   0.06882   0.42994   0.00000  Uiso   1.00
C6     C     0.31223   0.19044   0.05036   0.00000  Uiso   1.00
C7     C     0.06324   0.09071   0.38750   0.00000  Uiso   1.00
C8     C     0.29252   0.18814   0.09672   0.00000  Uiso   1.00
C9     C     0.13579   0.16334   0.41155   0.00000  Uiso   1.00
C10    C     0.18481   0.15706   0.09106   0.00000  Uiso   1.00
C11    C     0.12983   0.13537   0.45008   0.00000  Uiso   1.00
C12    C     0.15166   0.06668   0.24869   0.00000  Uiso   1.00
C13    C     0.20457   0.15212   0.04478   0.00000  Uiso   1.00
C14    C     0.07915   0.09185   0.46222   0.00000  Uiso   1.00
C15    C     0.26833   0.17358   0.02398   0.00000  Uiso   1.00
C16    C     0.17744   0.14545   0.47366   0.00000  Uiso   1.00
C17    C     0.16166   0.12935   0.01844   0.00000  Uiso   1.00
C18    C     0.10210   0.05018   0.07096   0.00000  Uiso   1.00
C19    C     0.15709   0.02187   0.06232   0.00000  Uiso   1.00
C20    C     0.14918   0.31713   0.09963   0.00000  Uiso   1.00
C21    C     0.26630   0.14772   0.40221   0.00000  Uiso   1.00
C22    C     0.24469   0.08830   0.39186   0.00000  Uiso   1.00
C23    C     0.10845   0.08631   0.03239   0.00000  Uiso   1.00
C24    C     0.25692   0.07616   0.34210   0.00000  Uiso   1.00
C25    C     0.24252   0.16031   0.45162   0.00000  Uiso   1.00
C26    C     0.06779   0.06841   0.00368   0.00000  Uiso   1.00
C27    C     0.28704   0.17611   0.47740   0.00000  Uiso   1.00
C28    C     0.19015   0.32271   0.25170   0.00000  Uiso   1.00
C29    C     0.14323   0.01064   0.24816   0.00000  Uiso   1.00
C30    C     0.12815   0.15967   0.33313   0.00000  Uiso   1.00
Cu31   Cu    0.10737   0.16108   0.24517   0.00000  Uiso   1.00
Cu32   Cu    0.22596   0.17225   0.25484   0.00000  Uiso   1.00
F33    F     0.01859   0.02644   0.01533   0.00000  Uiso   1.00
F34    F     0.01516   0.19432   0.45691   0.00000  Uiso   1.00
F35    F     0.00280   0.20352   0.12107   0.00000  Uiso   1.00
F36    F     0.04275   0.06177   0.35392   0.00000  Uiso   1.00
F37    F     0.00457   0.02175   0.43721   0.00000  Uiso   1.00
F38    F     0.04103   0.20865   0.03162   0.00000  Uiso   1.00
H39    H     0.13517   0.15113   0.10650   0.00000  Uiso   1.00
H40    H     0.15949   0.33258   0.03041   0.00000  Uiso   1.00
H41    H     0.20244   0.05088   0.05966   0.00000  Uiso   1.00
H42    H     0.09675   0.07070   0.10349   0.00000  Uiso   1.00
H43    H     0.05809   0.01914   0.07556   0.00000  Uiso   1.00
H44    H     0.30272   0.09975   0.32379   0.00000  Uiso   1.00
H45    H     0.25660   0.03352   0.33608   0.00000  Uiso   1.00
H46    H     0.21880   0.08490   0.32925   0.00000  Uiso   1.00
H47    H     0.26885   0.06527   0.40763   0.00000  Uiso   1.00
H48    H     0.19397   0.07291   0.40602   0.00000  Uiso   1.00
H49    H     0.25291   0.17249   0.38043   0.00000  Uiso   1.00
H50    H     0.16859   0.20113   0.40518   0.00000  Uiso   1.00
H51    H     0.31830   0.15795   0.39214   0.00000  Uiso   1.00
H52    H     0.23539   0.01323   0.25488   0.00000  Uiso   1.00
H53    H     0.09804   0.32012   0.24488   0.00000  Uiso   1.00
H54    H     0.00108   0.20539   0.28478   0.00000  Uiso   1.00
H55    H     0.33218   0.12781   0.21533   0.00000  Uiso   1.00
H56    H     0.14774   0.00557   0.13184   0.00000  Uiso   1.00
H57    H     0.10512   0.28642   0.10237   0.00000  Uiso   1.00
H58    H     0.18951   0.29733   0.09233   0.00000  Uiso   1.00
N59    N     0.31506   0.18068   0.26212   0.00000  Uiso   1.00
N60    N     0.01827   0.15265   0.23788   0.00000  Uiso   1.00
O61    O     0.12815   0.23809   0.24686   0.00000  Uiso   1.00
O62    O     0.20518   0.09524   0.25314   0.00000  Uiso   1.00
O63    O     0.22829   0.24753   0.25503   0.00000  Uiso   1.00
O64    O     0.10504   0.08580   0.24498   0.00000  Uiso   1.00
O65    O     0.08851   0.15930   0.30855   0.00000  Uiso   1.00
O66    O     0.24482   0.17403   0.19146   0.00000  Uiso   1.00
O67    O     0.18866   0.16874   0.31671   0.00000  Uiso   1.00
O68    O     0.14468   0.16460   0.18329   0.00000  Uiso   1.00
C69    C     0.51503   0.26666   0.25126   0.00000  Uiso   1.00
C70    C     0.53843   0.17081   0.16644   0.00000  Uiso   1.00
C71    C     0.43820   0.14006   0.37896   0.00000  Uiso   1.00
C72    C     0.56158   0.17229   0.11751   0.00000  Uiso   1.00
C73    C     0.37987   0.06882   0.42994   0.00000  Uiso   1.00
C74    C     0.64556   0.19044   0.05036   0.00000  Uiso   1.00
C75    C     0.39657   0.09071   0.38750   0.00000  Uiso   1.00
C76    C     0.62585   0.18814   0.09672   0.00000  Uiso   1.00
C77    C     0.46912   0.16334   0.41155   0.00000  Uiso   1.00
C78    C     0.51814   0.15706   0.09106   0.00000  Uiso   1.00
C79    C     0.46316   0.13537   0.45008   0.00000  Uiso   1.00
C80    C     0.48499   0.06668   0.24869   0.00000  Uiso   1.00
C81    C     0.53790   0.15212   0.04478   0.00000  Uiso   1.00
C82    C     0.41248   0.09185   0.46222   0.00000  Uiso   1.00
C83    C     0.60166   0.17358   0.02398   0.00000  Uiso   1.00
C84    C     0.51078   0.14545   0.47366   0.00000  Uiso   1.00
C85    C     0.49499   0.12935   0.01844   0.00000  Uiso   1.00
C86    C     0.43543   0.05018   0.07096   0.00000  Uiso   1.00
C87    C     0.49042   0.02187   0.06232   0.00000  Uiso   1.00
C88    C     0.48251   0.31713   0.09963   0.00000  Uiso   1.00
C89    C     0.59963   0.14772   0.40221   0.00000  Uiso   1.00
C90    C     0.57803   0.08830   0.39186   0.00000  Uiso   1.00
C91    C     0.44178   0.08631   0.03239   0.00000  Uiso   1.00
C92    C     0.59025   0.07616   0.34210   0.00000  Uiso   1.00
C93    C     0.57585   0.16031   0.45162   0.00000  Uiso   1.00
C94    C     0.40113   0.06841   0.00368   0.00000  Uiso   1.00
C95    C     0.62037   0.17611   0.47740   0.00000  Uiso   1.00
C96    C     0.52349   0.32271   0.25170   0.00000  Uiso   1.00
C97    C     0.47657   0.01064   0.24816   0.00000  Uiso   1.00
C98    C     0.46149   0.15967   0.33313   0.00000  Uiso   1.00
Cu99   Cu    0.44071   0.16108   0.24517   0.00000  Uiso   1.00
Cu100  Cu    0.55929   0.17225   0.25484   0.00000  Uiso   1.00
F101   F     0.35193   0.02644   0.01533   0.00000  Uiso   1.00
F102   F     0.34849   0.19432   0.45691   0.00000  Uiso   1.00
F103   F     0.33613   0.20352   0.12107   0.00000  Uiso   1.00
F104   F     0.37608   0.06177   0.35392   0.00000  Uiso   1.00
F105   F     0.33790   0.02175   0.43721   0.00000  Uiso   1.00
F106   F     0.37437   0.20865   0.03162   0.00000  Uiso   1.00
H107   H     0.46850   0.15113   0.10650   0.00000  Uiso   1.00
H108   H     0.49283   0.33258   0.03041   0.00000  Uiso   1.00
H109   H     0.53577   0.05088   0.05966   0.00000  Uiso   1.00
H110   H     0.43008   0.07070   0.10349   0.00000  Uiso   1.00
H111   H     0.39142   0.01914   0.07556   0.00000  Uiso   1.00
H112   H     0.63605   0.09975   0.32379   0.00000  Uiso   1.00
H113   H     0.58993   0.03352   0.33608   0.00000  Uiso   1.00
H114   H     0.55213   0.08490   0.32925   0.00000  Uiso   1.00
H115   H     0.60219   0.06527   0.40763   0.00000  Uiso   1.00
H116   H     0.52731   0.07291   0.40602   0.00000  Uiso   1.00
H117   H     0.58625   0.17249   0.38043   0.00000  Uiso   1.00
H118   H     0.50192   0.20113   0.40518   0.00000  Uiso   1.00
H119   H     0.65163   0.15795   0.39214   0.00000  Uiso   1.00
H120   H     0.56872   0.01323   0.25488   0.00000  Uiso   1.00
H121   H     0.43137   0.32012   0.24488   0.00000  Uiso   1.00
H122   H     0.33441   0.20539   0.28478   0.00000  Uiso   1.00
H123   H     0.66551   0.12781   0.21533   0.00000  Uiso   1.00
H124   H     0.48107   0.00557   0.13184   0.00000  Uiso   1.00
H125   H     0.43845   0.28642   0.10237   0.00000  Uiso   1.00
H126   H     0.52285   0.29733   0.09233   0.00000  Uiso   1.00
N127   N     0.64839   0.18068   0.26212   0.00000  Uiso   1.00
N128   N     0.35161   0.15265   0.23788   0.00000  Uiso   1.00
O129   O     0.46148   0.23809   0.24686   0.00000  Uiso   1.00
O130   O     0.53852   0.09524   0.25314   0.00000  Uiso   1.00
O131   O     0.56163   0.24753   0.25503   0.00000  Uiso   1.00
O132   O     0.43837   0.08580   0.24498   0.00000  Uiso   1.00
O133   O     0.42185   0.15930   0.30855   0.00000  Uiso   1.00
O134   O     0.57815   0.17403   0.19146   0.00000  Uiso   1.00
O135   O     0.52199   0.16874   0.31671   0.00000  Uiso   1.00
O136   O     0.47801   0.16460   0.18329   0.00000  Uiso   1.00
C137   C     0.84836   0.26666   0.25126   0.00000  Uiso   1.00
C138   C     0.87177   0.17081   0.16644   0.00000  Uiso   1.00
C139   C     0.77153   0.14006   0.37896   0.00000  Uiso   1.00
C140   C     0.89491   0.17229   0.11751   0.00000  Uiso   1.00
C141   C     0.71320   0.06882   0.42994   0.00000  Uiso   1.00
C142   C     0.97890   0.19044   0.05036   0.00000  Uiso   1.00
C143   C     0.72990   0.09071   0.38750   0.00000  Uiso   1.00
C144   C     0.95918   0.18814   0.09672   0.00000  Uiso   1.00
C145   C     0.80245   0.16334   0.41155   0.00000  Uiso   1.00
C146   C     0.85148   0.15706   0.09106   0.00000  Uiso   1.00
C147   C     0.79649   0.13537   0.45008   0.00000  Uiso   1.00
C148   C     0.81833   0.06668   0.24869   0.00000  Uiso   1.00
C149   C     0.87123   0.15212   0.04478   0.00000  Uiso   1.00
C150   C     0.74581   0.09185   0.46222   0.00000  Uiso   1.00
C151   C     0.93499   0.17358   0.02398   0.00000  Uiso   1.00
C152   C     0.84411   0.14545   0.47366   0.00000  Uiso   1.00
C153   C     0.82832   0.12935   0.01844   0.00000  Uiso   1.00
C154   C     0.76877   0.05018   0.07096   0.00000  Uiso   1.00
C155   C     0.82375   0.02187   0.06232   0.00000  Uiso   1.00
C156   C     0.81584   0.31713   0.09963   0.00000  Uiso   1.00
C157   C     0.93297   0.14772   0.40221   0.00000  Uiso   1.00
C158   C     0.91136   0.08830   0.39186   0.00000  Uiso   1.00
C159   C     0.77511   0.08631   0.03239   0.00000  Uiso   1.00
C160   C     0.92358   0.07616   0.34210   0.00000  Uiso   1.00
C161   C     0.90919   0.16031   0.45162   0.00000  Uiso   1.00
C162   C     0.73446   0.06841   0.00368   0.00000  Uiso   1.00
C163   C     0.95370   0.17611   0.47740   0.00000  Uiso   1.00
C164   C     0.85682   0.32271   0.25170   0.00000  Uiso   1.00
C165   C     0.80990   0.01064   0.24816   0.00000  Uiso   1.00
C166   C     0.79482   0.15967   0.33313   0.00000  Uiso   1.00
Cu167  Cu    0.77404   0.16108   0.24517   0.00000  Uiso   1.00
Cu168  Cu    0.89263   0.17225   0.25484   0.00000  Uiso   1.00
F169   F     0.68526   0.02644   0.01533   0.00000  Uiso   1.00
F170   F     0.68182   0.19432   0.45691   0.00000  Uiso   1.00
F171   F     0.66947   0.20352   0.12107   0.00000  Uiso   1.00
F172   F     0.70941   0.06177   0.35392   0.00000  Uiso   1.00
F173   F     0.67124   0.02175   0.43721   0.00000  Uiso   1.00
F174   F     0.70770   0.20865   0.03162   0.00000  Uiso   1.00
H175   H     0.80184   0.15113   0.10650   0.00000  Uiso   1.00
H176   H     0.82616   0.33258   0.03041   0.00000  Uiso   1.00
H177   H     0.86910   0.05088   0.05966   0.00000  Uiso   1.00
H178   H     0.76341   0.07070   0.10349   0.00000  Uiso   1.00
H179   H     0.72475   0.01914   0.07556   0.00000  Uiso   1.00
H180   H     0.96938   0.09975   0.32379   0.00000  Uiso   1.00
H181   H     0.92326   0.03352   0.33608   0.00000  Uiso   1.00
H182   H     0.88546   0.08490   0.32925   0.00000  Uiso   1.00
H183   H     0.93552   0.06527   0.40763   0.00000  Uiso   1.00
H184   H     0.86064   0.07291   0.40602   0.00000  Uiso   1.00
H185   H     0.91958   0.17249   0.38043   0.00000  Uiso   1.00
H186   H     0.83526   0.20113   0.40518   0.00000  Uiso   1.00
H187   H     0.98497   0.15795   0.39214   0.00000  Uiso   1.00
H188   H     0.90205   0.01323   0.25488   0.00000  Uiso   1.00
H189   H     0.76470   0.32012   0.24488   0.00000  Uiso   1.00
H190   H     0.66774   0.20539   0.28478   0.00000  Uiso   1.00
H191   H     0.99884   0.12781   0.21533   0.00000  Uiso   1.00
H192   H     0.81441   0.00557   0.13184   0.00000  Uiso   1.00
H193   H     0.77179   0.28642   0.10237   0.00000  Uiso   1.00
H194   H     0.85618   0.29733   0.09233   0.00000  Uiso   1.00
N195   N     0.98173   0.18068   0.26212   0.00000  Uiso   1.00
N196   N     0.68494   0.15265   0.23788   0.00000  Uiso   1.00
O197   O     0.79482   0.23809   0.24686   0.00000  Uiso   1.00
O198   O     0.87185   0.09524   0.25314   0.00000  Uiso   1.00
O199   O     0.89496   0.24753   0.25503   0.00000  Uiso   1.00
O200   O     0.77171   0.08580   0.24498   0.00000  Uiso   1.00
O201   O     0.75518   0.15930   0.30855   0.00000  Uiso   1.00
O202   O     0.91149   0.17403   0.19146   0.00000  Uiso   1.00
O203   O     0.85532   0.16874   0.31671   0.00000  Uiso   1.00
O204   O     0.81134   0.16460   0.18329   0.00000  Uiso   1.00
C205   C     0.18170   0.59999   0.25126   0.00000  Uiso   1.00
C206   C     0.20510   0.50415   0.16644   0.00000  Uiso   1.00
C207   C     0.10486   0.47339   0.37896   0.00000  Uiso   1.00
C208   C     0.22825   0.50563   0.11751   0.00000  Uiso   1.00
C209   C     0.04654   0.40215   0.42994   0.00000  Uiso   1.00
C210   C     0.31223   0.52377   0.05036   0.00000  Uiso   1.00
C211   C     0.06324   0.42405   0.38750   0.00000  Uiso   1.00
C212   C     0.29252   0.52147   0.09672   0.00000  Uiso   1.00
C213   C     0.13579   0.49667   0.41155   0.00000  Uiso   1.00
C214   C     0.18481   0.49039   0.09106   0.00000  Uiso   1.00
C215   C     0.12983   0.46870   0.45008   0.00000  Uiso   1.00
C216   C     0.15166   0.40001   0.24869   0.00000  Uiso   1.00
C217   C     0.20457   0.48545   0.04478   0.00000  Uiso   1.00
C218   C     0.07915   0.42518   0.46222   0.00000  Uiso   1.00
C219   C     0.26833   0.50691   0.02398   0.00000  Uiso   1.00
C220   C     0.17744   0.47879   0.47366   0.00000  Uiso   1.00
C221   C     0.16166   0.46268   0.01844   0.00000  Uiso   1.00
C222   C     0.10210   0.38351   0.07096   0.00000  Uiso   1.00
C223   C     0.15709   0.35520   0.06232   0.00000  Uiso   1.00
C224   C     0.14918   0.65047   0.09963   0.00000  Uiso   1.00
C225   C     0.26630   0.48106   0.40221   0.00000  Uiso   1.00
C226   C     0.24469   0.42163   0.39186   0.00000  Uiso   1.00
C227   C     0.10845   0.41965   0.03239   0.00000  Uiso   1.00
C228   C     0.25692   0.40950   0.34210   0.00000  Uiso   1.00
C229   C     0.24252   0.49364   0.45162   0.00000  Uiso   1.00
C230   C     0.06779   0.40174   0.00368   0.00000  Uiso   1.00
C231   C     0.28704   0.50944   0.47740   0.00000  Uiso   1.00
C232   C     0.19015   0.65604   0.25170   0.00000  Uiso   1.00
C233   C     0.14323   0.34397   0.24816   0.00000  Uiso   1.00
C234   C     0.12815   0.49301   0.33313   0.00000  Uiso   1.00
Cu235  Cu    0.10737   0.49441   0.24517   0.00000  Uiso   1.00
Cu236  Cu    0.22596   0.50559   0.25484   0.00000  Uiso   1.00
F237   F     0.01859   0.35978   0.01533   0.00000  Uiso   1.00
F238   F     0.01516   0.52765   0.45691   0.00000  Uiso   1.00
F239   F     0.00280   0.53685   0.12107   0.00000  Uiso   1.00
F240   F     0.04275   0.39510   0.35392   0.00000  Uiso   1.00
F241   F     0.00457   0.35509   0.43721   0.00000  Uiso   1.00
F242   F     0.04103   0.54199   0.03162   0.00000  Uiso   1.00
H243   H     0.13517   0.48446   0.10650   0.00000  Uiso   1.00
H244   H     0.15949   0.66592   0.03041   0.00000  Uiso   1.00
H245   H     0.20244   0.38421   0.05966   0.00000  Uiso   1.00
H246   H     0.09675   0.40404   0.10349   0.00000  Uiso   1.00
H247   H     0.05809   0.35247   0.07556   0.00000  Uiso   1.00
H248   H     0.30272   0.43308   0.32379   0.00000  Uiso   1.00
H249   H     0.25660   0.36686   0.33608   0.00000  Uiso   1.00
H250   H     0.21880   0.41824   0.32925   0.00000  Uiso   1.00
H251   H     0.26885   0.39860   0.40763   0.00000  Uiso   1.00
H252   H     0.19397   0.40625   0.40602   0.00000  Uiso   1.00
H253   H     0.25291   0.50582   0.38043   0.00000  Uiso   1.00
H254   H     0.16859   0.53446   0.40518   0.00000  Uiso   1.00
H255   H     0.31830   0.49128   0.39214   0.00000  Uiso   1.00
H256   H     0.23539   0.34657   0.25488   0.00000  Uiso   1.00
H257   H     0.09804   0.65345   0.24488   0.00000  Uiso   1.00
H258   H     0.00108   0.53873   0.28478   0.00000  Uiso   1.00
H259   H     0.33218   0.46114   0.21533   0.00000  Uiso   1.00
H260   H     0.14774   0.33890   0.13184   0.00000  Uiso   1.00
H261   H     0.10512   0.61975   0.10237   0.00000  Uiso   1.00
H262   H     0.18951   0.63066   0.09233   0.00000  Uiso   1.00
N263   N     0.31506   0.51401   0.26212   0.00000  Uiso   1.00
N264   N     0.01827   0.48599   0.23788   0.00000  Uiso   1.00
O265   O     0.12815   0.57142   0.24686   0.00000  Uiso   1.00
O266   O     0.20518   0.42858   0.25314   0.00000  Uiso   1.00
O267   O     0.22829   0.58086   0.25503   0.00000  Uiso   1.00
O268   O     0.10504   0.41914   0.24498   0.00000  Uiso   1.00
O269   O     0.08851   0.49263   0.30855   0.00000  Uiso   1.00
O270   O     0.24482   0.50737   0.19146   0.00000  Uiso   1.00
O271   O     0.18866   0.50207   0.31671   0.00000  Uiso   1.00
O272   O     0.14468   0.49793   0.18329   0.00000  Uiso   1.00
C273   C     0.51503   0.59999   0.25126   0.00000  Uiso   1.00
C274   C     0.53843   0.50415   0.16644   0.00000  Uiso   1.00
C275   C     0.43820   0.47339   0.37896   0.00000  Uiso   1.00
C276   C     0.56158   0.50563   0.11751   0.00000  Uiso   1.00
C277   C     0.37987   0.40215   0.42994   0.00000  Uiso   1.00
C278   C     0.64556   0.52377   0.05036   0.00000  Uiso   1.00
C279   C     0.39657   0.42405   0.38750   0.00000  Uiso   1.00
C280   C     0.62585   0.52147   0.09672   0.00000  Uiso   1.00
C281   C     0.46912   0.49667   0.41155   0.00000  Uiso   1.00
C282   C     0.51814   0.49039   0.09106   0.00000  Uiso   1.00
C283   C     0.46316   0.46870   0.45008   0.00000  Uiso   1.00
C284   C     0.48499   0.40001   0.24869   0.00000  Uiso   1.00
C285   C     0.53790   0.48545   0.04478   0.00000  Uiso   1.00
C286   C     0.41248   0.42518   0.46222   0.00000  Uiso   1.00
C287   C     0.60166   0.50691   0.02398   0.00000  Uiso   1.00
C288   C     0.51078   0.47879   0.47366   0.00000  Uiso   1.00
C289   C     0.49499   0.46268   0.01844   0.00000  Uiso   1.00
C290   C     0.43543   0.38351   0.07096   0.00000  Uiso   1.00
C291   C     0.49042   0.35520   0.06232   0.00000  Uiso   1.00
C292   C     0.48251   0.65047   0.09963   0.00000  Uiso   1.00
C293   C     0.59963   0.48106   0.40221   0.00000  Uiso   1.00
C294   C     0.57803   0.42163   0.39186   0.00000  Uiso   1.00
C295   C     0.44178   0.41965   0.03239   0.00000  Uiso   1.00
C296   C     0.59025   0.40950   0.34210   0.00000  Uiso   1.00
C297   C     0.57585   0.49364   0.45162   0.00000  Uiso   1.00
C298   C     0.40113   0.40174   0.00368   0.00000  Uiso   1.00
C299   C     0.62037   0.50944   0.47740   0.00000  Uiso   1.00
C300   C     0.52349   0.65604   0.25170   0.00000  Uiso   1.00
C301   C     0.47657   0.34397   0.24816   0.00000  Uiso   1.00
C302   C     0.46149   0.49301   0.33313   0.00000  Uiso   1.00
Cu303  Cu    0.44071   0.49441   0.24517   0.00000  Uiso   1.00
Cu304  Cu    0.55929   0.50559   0.25484   0.00000  Uiso   1.00
F305   F     0.35193   0.35978   0.01533   0.00000  Uiso   1.00
F306   F     0.34849   0.52765   0.45691   0.00000  Uiso   1.00
F307   F     0.33613   0.53685   0.12107   0.00000  Uiso   1.00
F308   F     0.37608   0.39510   0.35392   0.00000  Uiso   1.00
F309   F     0.33790   0.35509   0.43721   0.00000  Uiso   1.00
F310   F     0.37437   0.54199   0.03162   0.00000  Uiso   1.00
H311   H     0.46850   0.48446   0.10650   0.00000  Uiso   1.00
H312   H     0.49283   0.66592   0.03041   0.00000  Uiso   1.00
H313   H     0.53577   0.38421   0.05966   0.00000  Uiso   1.00
H314   H     0.43008   0.40404   0.10349   0.00000  Uiso   1.00
H315   H     0.39142   0.35247   0.07556   0.00000  Uiso   1.00
H316   H     0.63605   0.43308   0.32379   0.00000  Uiso   1.00
H317   H     0.58993   0.36686   0.33608   0.00000  Uiso   1.00
H318   H     0.55213   0.41824   0.32925   0.00000  Uiso   1.00
H319   H     0.60219   0.39860   0.40763   0.00000  Uiso   1.00
H320   H     0.52731   0.40625   0.40602   0.00000  Uiso   1.00
H321   H     0.58625   0.50582   0.38043   0.00000  Uiso   1.00
H322   H     0.50192   0.53446   0.40518   0.00000  Uiso   1.00
H323   H     0.65163   0.49128   0.39214   0.00000  Uiso   1.00
H324   H     0.56872   0.34657   0.25488   0.00000  Uiso   1.00
H325   H     0.43137   0.65345   0.24488   0.00000  Uiso   1.00
H326   H     0.33441   0.53873   0.28478   0.00000  Uiso   1.00
H327   H     0.66551   0.46114   0.21533   0.00000  Uiso   1.00
H328   H     0.48107   0.33890   0.13184   0.00000  Uiso   1.00
H329   H     0.43845   0.61975   0.10237   0.00000  Uiso   1.00
H330   H     0.52285   0.63066   0.09233   0.00000  Uiso   1.00
N331   N     0.64839   0.51401   0.26212   0.00000  Uiso   1.00
N332   N     0.35161   0.48599   0.23788   0.00000  Uiso   1.00
O333   O     0.46148   0.57142   0.24686   0.00000  Uiso   1.00
O334   O     0.53852   0.42858   0.25314   0.00000  Uiso   1.00
O335   O     0.56163   0.58086   0.25503   0.00000  Uiso   1.00
O336   O     0.43837   0.41914   0.24498   0.00000  Uiso   1.00
O337   O     0.42185   0.49263   0.30855   0.00000  Uiso   1.00
O338   O     0.57815   0.50737   0.19146   0.00000  Uiso   1.00
O339   O     0.52199   0.50207   0.31671   0.00000  Uiso   1.00
O340   O     0.47801   0.49793   0.18329   0.00000  Uiso   1.00
C341   C     0.84836   0.59999   0.25126   0.00000  Uiso   1.00
C342   C     0.87177   0.50415   0.16644   0.00000  Uiso   1.00
C343   C     0.77153   0.47339   0.37896   0.00000  Uiso   1.00
C344   C     0.89491   0.50563   0.11751   0.00000  Uiso   1.00
C345   C     0.71320   0.40215   0.42994   0.00000  Uiso   1.00
C346   C     0.97890   0.52377   0.05036   0.00000  Uiso   1.00
C347   C     0.72990   0.42405   0.38750   0.00000  Uiso   1.00
C348   C     0.95918   0.52147   0.09672   0.00000  Uiso   1.00
C349   C     0.80245   0.49667   0.41155   0.00000  Uiso   1.00
C350   C     0.85148   0.49039   0.09106   0.00000  Uiso   1.00
C351   C     0.79649   0.46870   0.45008   0.00000  Uiso   1.00
C352   C     0.81833   0.40001   0.24869   0.00000  Uiso   1.00
C353   C     0.87123   0.48545   0.04478   0.00000  Uiso   1.00
C354   C     0.74581   0.42518   0.46222   0.00000  Uiso   1.00
C355   C     0.93499   0.50691   0.02398   0.00000  Uiso   1.00
C356   C     0.84411   0.47879   0.47366   0.00000  Uiso   1.00
C357   C     0.82832   0.46268   0.01844   0.00000  Uiso   1.00
C358   C     0.76877   0.38351   0.07096   0.00000  Uiso   1.00
C359   C     0.82375   0.35520   0.06232   0.00000  Uiso   1.00
C360   C     0.81584   0.65047   0.09963   0.00000  Uiso   1.00
C361   C     0.93297   0.48106   0.40221   0.00000  Uiso   1.00
C362   C     0.91136   0.42163   0.39186   0.00000  Uiso   1.00
C363   C     0.77511   0.41965   0.03239   0.00000  Uiso   1.00
C364   C     0.92358   0.40950   0.34210   0.00000  Uiso   1.00
C365   C     0.90919   0.49364   0.45162   0.00000  Uiso   1.00
C366   C     0.73446   0.40174   0.00368   0.00000  Uiso   1.00
C367   C     0.95370   0.50944   0.47740   0.00000  Uiso   1.00
C368   C     0.85682   0.65604   0.25170   0.00000  Uiso   1.00
C369   C     0.80990   0.34397   0.24816   0.00000  Uiso   1.00
C370   C     0.79482   0.49301   0.33313   0.00000  Uiso   1.00
Cu371  Cu    0.77404   0.49441   0.24517   0.00000  Uiso   1.00
Cu372  Cu    0.89263   0.50559   0.25484   0.00000  Uiso   1.00
F373   F     0.68526   0.35978   0.01533   0.00000  Uiso   1.00
F374   F     0.68182   0.52765   0.45691   0.00000  Uiso   1.00
F375   F     0.66947   0.53685   0.12107   0.00000  Uiso   1.00
F376   F     0.70941   0.39510   0.35392   0.00000  Uiso   1.00
F377   F     0.67124   0.35509   0.43721   0.00000  Uiso   1.00
F378   F     0.70770   0.54199   0.03162   0.00000  Uiso   1.00
H379   H     0.80184   0.48446   0.10650   0.00000  Uiso   1.00
H380   H     0.82616   0.66592   0.03041   0.00000  Uiso   1.00
H381   H     0.86910   0.38421   0.05966   0.00000  Uiso   1.00
H382   H     0.76341   0.40404   0.10349   0.00000  Uiso   1.00
H383   H     0.72475   0.35247   0.07556   0.00000  Uiso   1.00
H384   H     0.96938   0.43308   0.32379   0.00000  Uiso   1.00
H385   H     0.92326   0.36686   0.33608   0.00000  Uiso   1.00
H386   H     0.88546   0.41824   0.32925   0.00000  Uiso   1.00
H387   H     0.93552   0.39860   0.40763   0.00000  Uiso   1.00
H388   H     0.86064   0.40625   0.40602   0.00000  Uiso   1.00
H389   H     0.91958   0.50582   0.38043   0.00000  Uiso   1.00
H390   H     0.83526   0.53446   0.40518   0.00000  Uiso   1.00
H391   H     0.98497   0.49128   0.39214   0.00000  Uiso   1.00
H392   H     0.90205   0.34657   0.25488   0.00000  Uiso   1.00
H393   H     0.76470   0.65345   0.24488   0.00000  Uiso   1.00
H394   H     0.66774   0.53873   0.28478   0.00000  Uiso   1.00
H395   H     0.99884   0.46114   0.21533   0.00000  Uiso   1.00
H396   H     0.81441   0.33890   0.13184   0.00000  Uiso   1.00
H397   H     0.77179   0.61975   0.10237   0.00000  Uiso   1.00
H398   H     0.85618   0.63066   0.09233   0.00000  Uiso   1.00
N399   N     0.98173   0.51401   0.26212   0.00000  Uiso   1.00
N400   N     0.68494   0.48599   0.23788   0.00000  Uiso   1.00
O401   O     0.79482   0.57142   0.24686   0.00000  Uiso   1.00
O402   O     0.87185   0.42858   0.25314   0.00000  Uiso   1.00
O403   O     0.89496   0.58086   0.25503   0.00000  Uiso   1.00
O404   O     0.77171   0.41914   0.24498   0.00000  Uiso   1.00
O405   O     0.75518   0.49263   0.30855   0.00000  Uiso   1.00
O406   O     0.91149   0.50737   0.19146   0.00000  Uiso   1.00
O407   O     0.85532   0.50207   0.31671   0.00000  Uiso   1.00
O408   O     0.81134   0.49793   0.18329   0.00000  Uiso   1.00
C409   C     0.18170   0.93333   0.25126   0.00000  Uiso   1.00
C410   C     0.20510   0.83748   0.16644   0.00000  Uiso   1.00
C411   C     0.10486   0.80672   0.37896   0.00000  Uiso   1.00
C412   C     0.22825   0.83896   0.11751   0.00000  Uiso   1.00
C413   C     0.04654   0.73549   0.42994   0.00000  Uiso   1.00
C414   C     0.31223   0.85710   0.05036   0.00000  Uiso   1.00
C415   C     0.06324   0.75738   0.38750   0.00000  Uiso   1.00
C416   C     0.29252   0.85481   0.09672   0.00000  Uiso   1.00
C417   C     0.13579   0.83001   0.41155   0.00000  Uiso   1.00
C418   C     0.18481   0.82372   0.09106   0.00000  Uiso   1.00
C419   C     0.12983   0.80203   0.45008   0.00000  Uiso   1.00
C420   C     0.15166   0.73334   0.24869   0.00000  Uiso   1.00
C421   C     0.20457   0.81878   0.04478   0.00000  Uiso   1.00
C422   C     0.07915   0.75852   0.46222   0.00000  Uiso   1.00
C423   C     0.26833   0.84025   0.02398   0.00000  Uiso   1.00
C424   C     0.17744   0.81212   0.47366   0.00000  Uiso   1.00
C425   C     0.16166   0.79602   0.01844   0.00000  Uiso   1.00
C426   C     0.10210   0.71685   0.07096   0.00000  Uiso   1.00
C427   C     0.15709   0.68853   0.06232   0.00000  Uiso   1.00
C428   C     0.14918   0.98380   0.09963   0.00000  Uiso   1.00
C429   C     0.26630   0.81439   0.40221   0.00000  Uiso   1.00
C430   C     0.24469   0.75497   0.39186   0.00000  Uiso   1.00
C431   C     0.10845   0.75298   0.03239   0.00000  Uiso   1.00
C432   C     0.25692   0.74283   0.34210   0.00000  Uiso   1.00
C433   C     0.24252   0.82698   0.45162   0.00000  Uiso   1.00
C434   C     0.06779   0.73507   0.00368   0.00000  Uiso   1.00
C435   C     0.28704   0.84277   0.47740   0.00000  Uiso   1.00
C436   C     0.19015   0.98938   0.25170   0.00000  Uiso   1.00
C437   C     0.14323   0.67730   0.24816   0.00000  Uiso   1.00
C438   C     0.12815   0.82634   0.33313   0.00000  Uiso   1.00
Cu439  Cu    0.10737   0.82775   0.24517   0.00000  Uiso   1.00
Cu440  Cu    0.22596   0.83892   0.25484   0.00000  Uiso   1.00
F441   F     0.01859   0.69311   0.01533   0.00000  Uiso   1.00
F442   F     0.01516   0.86098   0.45691   0.00000  Uiso   1.00
F443   F     0.00280   0.87018   0.12107   0.00000  Uiso   1.00
F444   F     0.04275   0.72843   0.35392   0.00000  Uiso   1.00
F445   F     0.00457   0.68842   0.43721   0.00000  Uiso   1.00
F446   F     0.04103   0.87532   0.03162   0.00000  Uiso   1.00
H447   H     0.13517   0.81780   0.10650   0.00000  Uiso   1.00
H448   H     0.15949   0.99925   0.03041   0.00000  Uiso   1.00
H449   H     0.20244   0.71755   0.05966   0.00000  Uiso   1.00
H450   H     0.09675   0.73737   0.10349   0.00000  Uiso   1.00
H451   H     0.05809   0.68580   0.07556   0.00000  Uiso   1.00
H452   H     0.30272   0.76641   0.32379   0.00000  Uiso   1.00
H453   H     0.25660   0.70019   0.33608   0.00000  Uiso   1.00
H454   H     0.21880   0.75157   0.32925   0.00000  Uiso   1.00
H455   H     0.26885   0.73194   0.40763   0.00000  Uiso   1.00
H456   H     0.19397   0.73958   0.40602   0.00000  Uiso   1.00
H457   H     0.25291   0.83915   0.38043   0.00000  Uiso   1.00
H458   H     0.16859   0.86780   0.40518   0.00000  Uiso   1.00
H459   H     0.31830   0.82461   0.39214   0.00000  Uiso   1.00
H460   H     0.23539   0.67990   0.25488   0.00000  Uiso   1.00
H461   H     0.09804   0.98678   0.24488   0.00000  Uiso   1.00
H462   H     0.00108   0.87206   0.28478   0.00000  Uiso   1.00
H463   H     0.33218   0.79447   0.21533   0.00000  Uiso   1.00
H464   H     0.14774   0.67224   0.13184   0.00000  Uiso   1.00
H465   H     0.10512   0.95308   0.10237   0.00000  Uiso   1.00
H466   H     0.18951   0.96399   0.09233   0.00000  Uiso   1.00
N467   N     0.31506   0.84735   0.26212   0.00000  Uiso   1.00
N468   N     0.01827   0.81932   0.23788   0.00000  Uiso   1.00
O469   O     0.12815   0.90476   0.24686   0.00000  Uiso   1.00
O470   O     0.20518   0.76191   0.25314   0.00000  Uiso   1.00
O471   O     0.22829   0.91420   0.25503   0.00000  Uiso   1.00
O472   O     0.10504   0.75247   0.24498   0.00000  Uiso   1.00
O473   O     0.08851   0.82597   0.30855   0.00000  Uiso   1.00
O474   O     0.24482   0.84070   0.19146   0.00000  Uiso   1.00
O475   O     0.18866   0.83540   0.31671   0.00000  Uiso   1.00
O476   O     0.14468   0.83126   0.18329   0.00000  Uiso   1.00
C477   C     0.51503   0.93333   0.25126   0.00000  Uiso   1.00
C478   C     0.53843   0.83748   0.16644   0.00000  Uiso   1.00
C479   C     0.43820   0.80672   0.37896   0.00000  Uiso   1.00
C480   C     0.56158   0.83896   0.11751   0.00000  Uiso   1.00
C481   C     0.37987   0.73549   0.42994   0.00000  Uiso   1.00
C482   C     0.64556   0.85710   0.05036   0.00000  Uiso   1.00
C483   C     0.39657   0.75738   0.38750   0.00000  Uiso   1.00
C484   C     0.62585   0.85481   0.09672   0.00000  Uiso   1.00
C485   C     0.46912   0.83001   0.41155   0.00000  Uiso   1.00
C486   C     0.51814   0.82372   0.09106   0.00000  Uiso   1.00
C487   C     0.46316   0.80203   0.45008   0.00000  Uiso   1.00
C488   C     0.48499   0.73334   0.24869   0.00000  Uiso   1.00
C489   C     0.53790   0.81878   0.04478   0.00000  Uiso   1.00
C490   C     0.41248   0.75852   0.46222   0.00000  Uiso   1.00
C491   C     0.60166   0.84025   0.02398   0.00000  Uiso   1.00
C492   C     0.51078   0.81212   0.47366   0.00000  Uiso   1.00
C493   C     0.49499   0.79602   0.01844   0.00000  Uiso   1.00
C494   C     0.43543   0.71685   0.07096   0.00000  Uiso   1.00
C495   C     0.49042   0.68853   0.06232   0.00000  Uiso   1.00
C496   C     0.48251   0.98380   0.09963   0.00000  Uiso   1.00
C497   C     0.59963   0.81439   0.40221   0.00000  Uiso   1.00
C498   C     0.57803   0.75497   0.39186   0.00000  Uiso   1.00
C499   C     0.44178   0.75298   0.03239   0.00000  Uiso   1.00
C500   C     0.59025   0.74283   0.34210   0.00000  Uiso   1.00
C501   C     0.57585   0.82698   0.45162   0.00000  Uiso   1.00
C502   C     0.40113   0.73507   0.00368   0.00000  Uiso   1.00
C503   C     0.62037   0.84277   0.47740   0.00000  Uiso   1.00
C504   C     0.52349   0.98938   0.25170   0.00000  Uiso   1.00
C505   C     0.47657   0.67730   0.24816   0.00000  Uiso   1.00
C506   C     0.46149   0.82634   0.33313   0.00000  Uiso   1.00
Cu507  Cu    0.44071   0.82775   0.24517   0.00000  Uiso   1.00
Cu508  Cu    0.55929   0.83892   0.25484   0.00000  Uiso   1.00
F509   F     0.35193   0.69311   0.01533   0.00000  Uiso   1.00
F510   F     0.34849   0.86098   0.45691   0.00000  Uiso   1.00
F511   F     0.33613   0.87018   0.12107   0.00000  Uiso   1.00
F512   F     0.37608   0.72843   0.35392   0.00000  Uiso   1.00
F513   F     0.33790   0.68842   0.43721   0.00000  Uiso   1.00
F514   F     0.37437   0.87532   0.03162   0.00000  Uiso   1.00
H515   H     0.46850   0.81780   0.10650   0.00000  Uiso   1.00
H516   H     0.49283   0.99925   0.03041   0.00000  Uiso   1.00
H517   H     0.53577   0.71755   0.05966   0.00000  Uiso   1.00
H518   H     0.43008   0.73737   0.10349   0.00000  Uiso   1.00
H519   H     0.39142   0.68580   0.07556   0.00000  Uiso   1.00
H520   H     0.63605   0.76641   0.32379   0.00000  Uiso   1.00
H521   H     0.58993   0.70019   0.33608   0.00000  Uiso   1.00
H522   H     0.55213   0.75157   0.32925   0.00000  Uiso   1.00
H523   H     0.60219   0.73194   0.40763   0.00000  Uiso   1.00
H524   H     0.52731   0.73958   0.40602   0.00000  Uiso   1.00
H525   H     0.58625   0.83915   0.38043   0.00000  Uiso   1.00
H526   H     0.50192   0.86780   0.40518   0.00000  Uiso   1.00
H527   H     0.65163   0.82461   0.39214   0.00000  Uiso   1.00
H528   H     0.56872   0.67990   0.25488   0.00000  Uiso   1.00
H529   H     0.43137   0.98678   0.24488   0.00000  Uiso   1.00
H530   H     0.33441   0.87206   0.28478   0.00000  Uiso   1.00
H531   H     0.66551   0.79447   0.21533   0.00000  Uiso   1.00
H532   H     0.48107   0.67224   0.13184   0.00000  Uiso   1.00
H533   H     0.43845   0.95308   0.10237   0.00000  Uiso   1.00
H534   H     0.52285   0.96399   0.09233   0.00000  Uiso   1.00
N535   N     0.64839   0.84735   0.26212   0.00000  Uiso   1.00
N536   N     0.35161   0.81932   0.23788   0.00000  Uiso   1.00
O537   O     0.46148   0.90476   0.24686   0.00000  Uiso   1.00
O538   O     0.53852   0.76191   0.25314   0.00000  Uiso   1.00
O539   O     0.56163   0.91420   0.25503   0.00000  Uiso   1.00
O540   O     0.43837   0.75247   0.24498   0.00000  Uiso   1.00
O541   O     0.42185   0.82597   0.30855   0.00000  Uiso   1.00
O542   O     0.57815   0.84070   0.19146   0.00000  Uiso   1.00
O543   O     0.52199   0.83540   0.31671   0.00000  Uiso   1.00
O544   O     0.47801   0.83126   0.18329   0.00000  Uiso   1.00
C545   C     0.84836   0.93333   0.25126   0.00000  Uiso   1.00
C546   C     0.87177   0.83748   0.16644   0.00000  Uiso   1.00
C547   C     0.77153   0.80672   0.37896   0.00000  Uiso   1.00
C548   C     0.89491   0.83896   0.11751   0.00000  Uiso   1.00
C549   C     0.71320   0.73549   0.42994   0.00000  Uiso   1.00
C550   C     0.97890   0.85710   0.05036   0.00000  Uiso   1.00
C551   C     0.72990   0.75738   0.38750   0.00000  Uiso   1.00
C552   C     0.95918   0.85481   0.09672   0.00000  Uiso   1.00
C553   C     0.80245   0.83001   0.41155   0.00000  Uiso   1.00
C554   C     0.85148   0.82372   0.09106   0.00000  Uiso   1.00
C555   C     0.79649   0.80203   0.45008   0.00000  Uiso   1.00
C556   C     0.81833   0.73334   0.24869   0.00000  Uiso   1.00
C557   C     0.87123   0.81878   0.04478   0.00000  Uiso   1.00
C558   C     0.74581   0.75852   0.46222   0.00000  Uiso   1.00
C559   C     0.93499   0.84025   0.02398   0.00000  Uiso   1.00
C560   C     0.84411   0.81212   0.47366   0.00000  Uiso   1.00
C561   C     0.82832   0.79602   0.01844   0.00000  Uiso   1.00
C562   C     0.76877   0.71685   0.07096   0.00000  Uiso   1.00
C563   C     0.82375   0.68853   0.06232   0.00000  Uiso   1.00
C564   C     0.81584   0.98380   0.09963   0.00000  Uiso   1.00
C565   C     0.93297   0.81439   0.40221   0.00000  Uiso   1.00
C566   C     0.91136   0.75497   0.39186   0.00000  Uiso   1.00
C567   C     0.77511   0.75298   0.03239   0.00000  Uiso   1.00
C568   C     0.92358   0.74283   0.34210   0.00000  Uiso   1.00
C569   C     0.90919   0.82698   0.45162   0.00000  Uiso   1.00
C570   C     0.73446   0.73507   0.00368   0.00000  Uiso   1.00
C571   C     0.95370   0.84277   0.47740   0.00000  Uiso   1.00
C572   C     0.85682   0.98938   0.25170   0.00000  Uiso   1.00
C573   C     0.80990   0.67730   0.24816   0.00000  Uiso   1.00
C574   C     0.79482   0.82634   0.33313   0.00000  Uiso   1.00
Cu575  Cu    0.77404   0.82775   0.24517   0.00000  Uiso   1.00
Cu576  Cu    0.89263   0.83892   0.25484   0.00000  Uiso   1.00
F577   F     0.68526   0.69311   0.01533   0.00000  Uiso   1.00
F578   F     0.68182   0.86098   0.45691   0.00000  Uiso   1.00
F579   F     0.66947   0.87018   0.12107   0.00000  Uiso   1.00
F580   F     0.70941   0.72843   0.35392   0.00000  Uiso   1.00
F581   F     0.67124   0.68842   0.43721   0.00000  Uiso   1.00
F582   F     0.70770   0.87532   0.03162   0.00000  Uiso   1.00
H583   H     0.80184   0.81780   0.10650   0.00000  Uiso   1.00
H584   H     0.82616   0.99925   0.03041   0.00000  Uiso   1.00
H585   H     0.86910   0.71755   0.05966   0.00000  Uiso   1.00
H586   H     0.76341   0.73737   0.10349   0.00000  Uiso   1.00
H587   H     0.72475   0.68580   0.07556   0.00000  Uiso   1.00
H588   H     0.96938   0.76641   0.32379   0.00000  Uiso   1.00
H589   H     0.92326   0.70019   0.33608   0.00000  Uiso   1.00
H590   H     0.88546   0.75157   0.32925   0.00000  Uiso   1.00
H591   H     0.93552   0.73194   0.40763   0.00000  Uiso   1.00
H592   H     0.86064   0.73958   0.40602   0.00000  Uiso   1.00
H593   H     0.91958   0.83915   0.38043   0.00000  Uiso   1.00
H594   H     0.83526   0.86780   0.40518   0.00000  Uiso   1.00
H595   H     0.98497   0.82461   0.39214   0.00000  Uiso   1.00
H596   H     0.90205   0.67990   0.25488   0.00000  Uiso   1.00
H597   H     0.76470   0.98678   0.24488   0.00000  Uiso   1.00
H598   H     0.66774   0.87206   0.28478   0.00000  Uiso   1.00
H599   H     0.99884   0.79447   0.21533   0.00000  Uiso   1.00
H600   H     0.81441   0.67224   0.13184   0.00000  Uiso   1.00
H601   H     0.77179   0.95308   0.10237   0.00000  Uiso   1.00
H602   H     0.85618   0.96399   0.09233   0.00000  Uiso   1.00
N603   N     0.98173   0.84735   0.26212   0.00000  Uiso   1.00
N604   N     0.68494   0.81932   0.23788   0.00000  Uiso   1.00
O605   O     0.79482   0.90476   0.24686   0.00000  Uiso   1.00
O606   O     0.87185   0.76191   0.25314   0.00000  Uiso   1.00
O607   O     0.89496   0.91420   0.25503   0.00000  Uiso   1.00
O608   O     0.77171   0.75247   0.24498   0.00000  Uiso   1.00
O609   O     0.75518   0.82597   0.30855   0.00000  Uiso   1.00
O610   O     0.91149   0.84070   0.19146   0.00000  Uiso   1.00
O611   O     0.85532   0.83540   0.31671   0.00000  Uiso   1.00
O612   O     0.81134   0.83126   0.18329   0.00000  Uiso   1.00
C613   C     0.18170   0.26666   0.75126   0.00000  Uiso   1.00
C614   C     0.20510   0.17081   0.66644   0.00000  Uiso   1.00
C615   C     0.10486   0.14006   0.87896   0.00000  Uiso   1.00
C616   C     0.22825   0.17229   0.61751   0.00000  Uiso   1.00
C617   C     0.04654   0.06882   0.92994   0.00000  Uiso   1.00
C618   C     0.31223   0.19044   0.55036   0.00000  Uiso   1.00
C619   C     0.06324   0.09071   0.88750   0.00000  Uiso   1.00
C620   C     0.29252   0.18814   0.59672   0.00000  Uiso   1.00
C621   C     0.13579   0.16334   0.91155   0.00000  Uiso   1.00
C622   C     0.18481   0.15706   0.59106   0.00000  Uiso   1.00
C623   C     0.12983   0.13537   0.95008   0.00000  Uiso   1.00
C624   C     0.15166   0.06668   0.74869   0.00000  Uiso   1.00
C625   C     0.20457   0.15212   0.54478   0.00000  Uiso   1.00
C626   C     0.07915   0.09185   0.96222   0.00000  Uiso   1.00
C627   C     0.26833   0.17358   0.52398   0.00000  Uiso   1.00
C628   C     0.17744   0.14545   0.97366   0.00000  Uiso   1.00
C629   C     0.16166   0.12935   0.51844   0.00000  Uiso   1.00
C630   C     0.10210   0.05018   0.57096   0.00000  Uiso   1.00
C631   C     0.15709   0.02187   0.56232   0.00000  Uiso   1.00
C632   C     0.14918   0.31713   0.59963   0.00000  Uiso   1.00
C633   C     0.26630   0.14772   0.90221   0.00000  Uiso   1.00
C634   C     0.24469   0.08830   0.89186   0.00000  Uiso   1.00
C635   C     0.10845   0.08631   0.53239   0.00000  Uiso   1.00
C636   C     0.25692   0.07616   0.84210   0.00000  Uiso   1.00
C637   C     0.24252   0.16031   0.95162   0.00000  Uiso   1.00
C638   C     0.06779   0.06841   0.50368   0.00000  Uiso   1.00
C639   C     0.28704   0.17611   0.97740   0.00000  Uiso   1.00
C640   C     0.19015   0.32271   0.75170   0.00000  Uiso   1.00
C641   C     0.14323   0.01064   0.74816   0.00000  Uiso   1.00
C642   C     0.12815   0.15967   0.83313   0.00000  Uiso   1.00
Cu643  Cu    0.10737   0.16108   0.74517   0.00000  Uiso   1.00
Cu644  Cu    0.22596   0.17225   0.75484   0.00000  Uiso   1.00
F645   F     0.01859   0.02644   0.51533   0.00000  Uiso   1.00
F646   F     0.01516   0.19432   0.95691   0.00000  Uiso   1.00
F647   F     0.00280   0.20352   0.62107   0.00000  Uiso   1.00
F648   F     0.04275   0.06177   0.85392   0.00000  Uiso   1.00
F649   F     0.00457   0.02175   0.93721   0.00000  Uiso   1.00
F650   F     0.04103   0.20865   0.53162   0.00000  Uiso   1.00
H651   H     0.13517   0.15113   0.60650   0.00000  Uiso   1.00
H652   H     0.15949   0.33258   0.53041   0.00000  Uiso   1.00
H653   H     0.20244   0.05088   0.55966   0.00000  Uiso   1.00
H654   H     0.09675   0.07070   0.60349   0.00000  Uiso   1.00
H655   H     0.05809   0.01914   0.57556   0.00000  Uiso   1.00
H656   H     0.30272   0.09975   0.82379   0.00000  Uiso   1.00
H657   H     0.25660   0.03352   0.83608   0.00000  Uiso   1.00
H658   H     0.21880   0.08490   0.82925   0.00000  Uiso   1.00
H659   H     0.26885   0.06527   0.90763   0.00000  Uiso   1.00
H660   H     0.19397   0.07291   0.90602   0.00000  Uiso   1.00
H661   H     0.25291   0.17249   0.88043   0.00000  Uiso   1.00
H662   H     0.16859   0.20113   0.90518   0.00000  Uiso   1.00
H663   H     0.31830   0.15795   0.89214   0.00000  Uiso   1.00
H664   H     0.23539   0.01323   0.75488   0.00000  Uiso   1.00
H665   H     0.09804   0.32012   0.74488   0.00000  Uiso   1.00
H666   H     0.00108   0.20539   0.78478   0.00000  Uiso   1.00
H667   H     0.33218   0.12781   0.71533   0.00000  Uiso   1.00
H668   H     0.14774   0.00557   0.63184   0.00000  Uiso   1.00
H669   H     0.10512   0.28642   0.60237   0.00000  Uiso   1.00
H670   H     0.18951   0.29733   0.59233   0.00000  Uiso   1.00
N671   N     0.31506   0.18068   0.76212   0.00000  Uiso   1.00
N672   N     0.01827   0.15265   0.73788   0.00000  Uiso   1.00
O673   O     0.12815   0.23809   0.74686   0.00000  Uiso   1.00
O674   O     0.20518   0.09524   0.75314   0.00000  Uiso   1.00
O675   O     0.22829   0.24753   0.75503   0.00000  Uiso   1.00
O676   O     0.10504   0.08580   0.74498   0.00000  Uiso   1.00
O677   O     0.08851   0.15930   0.80855   0.00000  Uiso   1.00
O678   O     0.24482   0.17403   0.69146   0.00000  Uiso   1.00
O679   O     0.18866   0.16874   0.81671   0.00000  Uiso   1.00
O680   O     0.14468   0.16460   0.68329   0.00000  Uiso   1.00
C681   C     0.51503   0.26666   0.75126   0.00000  Uiso   1.00
C682   C     0.53843   0.17081   0.66644   0.00000  Uiso   1.00
C683   C     0.43820   0.14006   0.87896   0.00000  Uiso   1.00
C684   C     0.56158   0.17229   0.61751   0.00000  Uiso   1.00
C685   C     0.37987   0.06882   0.92994   0.00000  Uiso   1.00
C686   C     0.64556   0.19044   0.55036   0.00000  Uiso   1.00
C687   C     0.39657   0.09071   0.88750   0.00000  Uiso   1.00
C688   C     0.62585   0.18814   0.59672   0.00000  Uiso   1.00
C689   C     0.46912   0.16334   0.91155   0.00000  Uiso   1.00
C690   C     0.51814   0.15706   0.59106   0.00000  Uiso   1.00
C691   C     0.46316   0.13537   0.95008   0.00000  Uiso   1.00
C692   C     0.48499   0.06668   0.74869   0.00000  Uiso   1.00
C693   C     0.53790   0.15212   0.54478   0.00000  Uiso   1.00
C694   C     0.41248   0.09185   0.96222   0.00000  Uiso   1.00
C695   C     0.60166   0.17358   0.52398   0.00000  Uiso   1.00
C696   C     0.51078   0.14545   0.97366   0.00000  Uiso   1.00
C697   C     0.49499   0.12935   0.51844   0.00000  Uiso   1.00
C698   C     0.43543   0.05018   0.57096   0.00000  Uiso   1.00
C699   C     0.49042   0.02187   0.56232   0.00000  Uiso   1.00
C700   C     0.48251   0.31713   0.59963   0.00000  Uiso   1.00
C701   C     0.59963   0.14772   0.90221   0.00000  Uiso   1.00
C702   C     0.57803   0.08830   0.89186   0.00000  Uiso   1.00
C703   C     0.44178   0.08631   0.53239   0.00000  Uiso   1.00
C704   C     0.59025   0.07616   0.84210   0.00000  Uiso   1.00
C705   C     0.57585   0.16031   0.95162   0.00000  Uiso   1.00
C706   C     0.40113   0.06841   0.50368   0.00000  Uiso   1.00
C707   C     0.62037   0.17611   0.97740   0.00000  Uiso   1.00
C708   C     0.52349   0.32271   0.75170   0.00000  Uiso   1.00
C709   C     0.47657   0.01064   0.74816   0.00000  Uiso   1.00
C710   C     0.46149   0.15967   0.83313   0.00000  Uiso   1.00
Cu711  Cu    0.44071   0.16108   0.74517   0.00000  Uiso   1.00
Cu712  Cu    0.55929   0.17225   0.75484   0.00000  Uiso   1.00
F713   F     0.35193   0.02644   0.51533   0.00000  Uiso   1.00
F714   F     0.34849   0.19432   0.95691   0.00000  Uiso   1.00
F715   F     0.33613   0.20352   0.62107   0.00000  Uiso   1.00
F716   F     0.37608   0.06177   0.85392   0.00000  Uiso   1.00
F717   F     0.33790   0.02175   0.93721   0.00000  Uiso   1.00
F718   F     0.37437   0.20865   0.53162   0.00000  Uiso   1.00
H719   H     0.46850   0.15113   0.60650   0.00000  Uiso   1.00
H720   H     0.49283   0.33258   0.53041   0.00000  Uiso   1.00
H721   H     0.53577   0.05088   0.55966   0.00000  Uiso   1.00
H722   H     0.43008   0.07070   0.60349   0.00000  Uiso   1.00
H723   H     0.39142   0.01914   0.57556   0.00000  Uiso   1.00
H724   H     0.63605   0.09975   0.82379   0.00000  Uiso   1.00
H725   H     0.58993   0.03352   0.83608   0.00000  Uiso   1.00
H726   H     0.55213   0.08490   0.82925   0.00000  Uiso   1.00
H727   H     0.60219   0.06527   0.90763   0.00000  Uiso   1.00
H728   H     0.52731   0.07291   0.90602   0.00000  Uiso   1.00
H729   H     0.58625   0.17249   0.88043   0.00000  Uiso   1.00
H730   H     0.50192   0.20113   0.90518   0.00000  Uiso   1.00
H731   H     0.65163   0.15795   0.89214   0.00000  Uiso   1.00
H732   H     0.56872   0.01323   0.75488   0.00000  Uiso   1.00
H733   H     0.43137   0.32012   0.74488   0.00000  Uiso   1.00
H734   H     0.33441   0.20539   0.78478   0.00000  Uiso   1.00
H735   H     0.66551   0.12781   0.71533   0.00000  Uiso   1.00
H736   H     0.48107   0.00557   0.63184   0.00000  Uiso   1.00
H737   H     0.43845   0.28642   0.60237   0.00000  Uiso   1.00
H738   H     0.52285   0.29733   0.59233   0.00000  Uiso   1.00
N739   N     0.64839   0.18068   0.76212   0.00000  Uiso   1.00
N740   N     0.35161   0.15265   0.73788   0.00000  Uiso   1.00
O741   O     0.46148   0.23809   0.74686   0.00000  Uiso   1.00
O742   O     0.53852   0.09524   0.75314   0.00000  Uiso   1.00
O743   O     0.56163   0.24753   0.75503   0.00000  Uiso   1.00
O744   O     0.43837   0.08580   0.74498   0.00000  Uiso   1.00
O745   O     0.42185   0.15930   0.80855   0.00000  Uiso   1.00
O746   O     0.57815   0.17403   0.69146   0.00000  Uiso   1.00
O747   O     0.52199   0.16874   0.81671   0.00000  Uiso   1.00
O748   O     0.47801   0.16460   0.68329   0.00000  Uiso   1.00
C749   C     0.84836   0.26666   0.75126   0.00000  Uiso   1.00
C750   C     0.87177   0.17081   0.66644   0.00000  Uiso   1.00
C751   C     0.77153   0.14006   0.87896   0.00000  Uiso   1.00
C752   C     0.89491   0.17229   0.61751   0.00000  Uiso   1.00
C753   C     0.71320   0.06882   0.92994   0.00000  Uiso   1.00
C754   C     0.97890   0.19044   0.55036   0.00000  Uiso   1.00
C755   C     0.72990   0.09071   0.88750   0.00000  Uiso   1.00
C756   C     0.95918   0.18814   0.59672   0.00000  Uiso   1.00
C757   C     0.80245   0.16334   0.91155   0.00000  Uiso   1.00
C758   C     0.85148   0.15706   0.59106   0.00000  Uiso   1.00
C759   C     0.79649   0.13537   0.95008   0.00000  Uiso   1.00
C760   C     0.81833   0.06668   0.74869   0.00000  Uiso   1.00
C761   C     0.87123   0.15212   0.54478   0.00000  Uiso   1.00
C762   C     0.74581   0.09185   0.96222   0.00000  Uiso   1.00
C763   C     0.93499   0.17358   0.52398   0.00000  Uiso   1.00
C764   C     0.84411   0.14545   0.97366   0.00000  Uiso   1.00
C765   C     0.82832   0.12935   0.51844   0.00000  Uiso   1.00
C766   C     0.76877   0.05018   0.57096   0.00000  Uiso   1.00
C767   C     0.82375   0.02187   0.56232   0.00000  Uiso   1.00
C768   C     0.81584   0.31713   0.59963   0.00000  Uiso   1.00
C769   C     0.93297   0.14772   0.90221   0.00000  Uiso   1.00
C770   C     0.91136   0.08830   0.89186   0.00000  Uiso   1.00
C771   C     0.77511   0.08631   0.53239   0.00000  Uiso   1.00
C772   C     0.92358   0.07616   0.84210   0.00000  Uiso   1.00
C773   C     0.90919   0.16031   0.95162   0.00000  Uiso   1.00
C774   C     0.73446   0.06841   0.50368   0.00000  Uiso   1.00
C775   C     0.95370   0.17611   0.97740   0.00000  Uiso   1.00
C776   C     0.85682   0.32271   0.75170   0.00000  Uiso   1.00
C777   C     0.80990   0.01064   0.74816   0.00000  Uiso   1.00
C778   C     0.79482   0.15967   0.83313   0.00000  Uiso   1.00
Cu779  Cu    0.77404   0.16108   0.74517   0.00000  Uiso   1.00
Cu780  Cu    0.89263   0.17225   0.75484   0.00000  Uiso   1.00
F781   F     0.68526   0.02644   0.51533   0.00000  Uiso   1.00
F782   F     0.68182   0.19432   0.95691   0.00000  Uiso   1.00
F783   F     0.66947   0.20352   0.62107   0.00000  Uiso   1.00
F784   F     0.70941   0.06177   0.85392   0.00000  Uiso   1.00
F785   F     0.67124   0.02175   0.93721   0.00000  Uiso   1.00
F786   F     0.70770   0.20865   0.53162   0.00000  Uiso   1.00
H787   H     0.80184   0.15113   0.60650   0.00000  Uiso   1.00
H788   H     0.82616   0.33258   0.53041   0.00000  Uiso   1.00
H789   H     0.86910   0.05088   0.55966   0.00000  Uiso   1.00
H790   H     0.76341   0.07070   0.60349   0.00000  Uiso   1.00
H791   H     0.72475   0.01914   0.57556   0.00000  Uiso   1.00
H792   H     0.96938   0.09975   0.82379   0.00000  Uiso   1.00
H793   H     0.92326   0.03352   0.83608   0.00000  Uiso   1.00
H794   H     0.88546   0.08490   0.82925   0.00000  Uiso   1.00
H795   H     0.93552   0.06527   0.90763   0.00000  Uiso   1.00
H796   H     0.86064   0.07291   0.90602   0.00000  Uiso   1.00
H797   H     0.91958   0.17249   0.88043   0.00000  Uiso   1.00
H798   H     0.83526   0.20113   0.90518   0.00000  Uiso   1.00
H799   H     0.98497   0.15795   0.89214   0.00000  Uiso   1.00
H800   H     0.90205   0.01323   0.75488   0.00000  Uiso   1.00
H801   H     0.76470   0.32012   0.74488   0.00000  Uiso   1.00
H802   H     0.66774   0.20539   0.78478   0.00000  Uiso   1.00
H803   H     0.99884   0.12781   0.71533   0.00000  Uiso   1.00
H804   H     0.81441   0.00557   0.63184   0.00000  Uiso   1.00
H805   H     0.77179   0.28642   0.60237   0.00000  Uiso   1.00
H806   H     0.85618   0.29733   0.59233   0.00000  Uiso   1.00
N807   N     0.98173   0.18068   0.76212   0.00000  Uiso   1.00
N808   N     0.68494   0.15265   0.73788   0.00000  Uiso   1.00
O809   O     0.79482   0.23809   0.74686   0.00000  Uiso   1.00
O810   O     0.87185   0.09524   0.75314   0.00000  Uiso   1.00
O811   O     0.89496   0.24753   0.75503   0.00000  Uiso   1.00
O812   O     0.77171   0.08580   0.74498   0.00000  Uiso   1.00
O813   O     0.75518   0.15930   0.80855   0.00000  Uiso   1.00
O814   O     0.91149   0.17403   0.69146   0.00000  Uiso   1.00
O815   O     0.85532   0.16874   0.81671   0.00000  Uiso   1.00
O816   O     0.81134   0.16460   0.68329   0.00000  Uiso   1.00
C817   C     0.18170   0.59999   0.75126   0.00000  Uiso   1.00
C818   C     0.20510   0.50415   0.66644   0.00000  Uiso   1.00
C819   C     0.10486   0.47339   0.87896   0.00000  Uiso   1.00
C820   C     0.22825   0.50563   0.61751   0.00000  Uiso   1.00
C821   C     0.04654   0.40215   0.92994   0.00000  Uiso   1.00
C822   C     0.31223   0.52377   0.55036   0.00000  Uiso   1.00
C823   C     0.06324   0.42405   0.88750   0.00000  Uiso   1.00
C824   C     0.29252   0.52147   0.59672   0.00000  Uiso   1.00
C825   C     0.13579   0.49667   0.91155   0.00000  Uiso   1.00
C826   C     0.18481   0.49039   0.59106   0.00000  Uiso   1.00
C827   C     0.12983   0.46870   0.95008   0.00000  Uiso   1.00
C828   C     0.15166   0.40001   0.74869   0.00000  Uiso   1.00
C829   C     0.20457   0.48545   0.54478   0.00000  Uiso   1.00
C830   C     0.07915   0.42518   0.96222   0.00000  Uiso   1.00
C831   C     0.26833   0.50691   0.52398   0.00000  Uiso   1.00
C832   C     0.17744   0.47879   0.97366   0.00000  Uiso   1.00
C833   C     0.16166   0.46268   0.51844   0.00000  Uiso   1.00
C834   C     0.10210   0.38351   0.57096   0.00000  Uiso   1.00
C835   C     0.15709   0.35520   0.56232   0.00000  Uiso   1.00
C836   C     0.14918   0.65047   0.59963   0.00000  Uiso   1.00
C837   C     0.26630   0.48106   0.90221   0.00000  Uiso   1.00
C838   C     0.24469   0.42163   0.89186   0.00000  Uiso   1.00
C839   C     0.10845   0.41965   0.53239   0.00000  Uiso   1.00
C840   C     0.25692   0.40950   0.84210   0.00000  Uiso   1.00
C841   C     0.24252   0.49364   0.95162   0.00000  Uiso   1.00
C842   C     0.06779   0.40174   0.50368   0.00000  Uiso   1.00
C843   C     0.28704   0.50944   0.97740   0.00000  Uiso   1.00
C844   C     0.19015   0.65604   0.75170   0.00000  Uiso   1.00
C845   C     0.14323   0.34397   0.74816   0.00000  Uiso   1.00
C846   C     0.12815   0.49301   0.83313   0.00000  Uiso   1.00
Cu847  Cu    0.10737   0.49441   0.74517   0.00000  Uiso   1.00
Cu848  Cu    0.22596   0.50559   0.75484   0.00000  Uiso   1.00
F849   F     0.01859   0.35978   0.51533   0.00000  Uiso   1.00
F850   F     0.01516   0.52765   0.95691   0.00000  Uiso   1.00
F851   F     0.00280   0.53685   0.62107   0.00000  Uiso   1.00
F852   F     0.04275   0.39510   0.85392   0.00000  Uiso   1.00
F853   F     0.00457   0.35509   0.93721   0.00000  Uiso   1.00
F854   F     0.04103   0.54199   0.53162   0.00000  Uiso   1.00
H855   H     0.13517   0.48446   0.60650   0.00000  Uiso   1.00
H856   H     0.15949   0.66592   0.53041   0.00000  Uiso   1.00
H857   H     0.20244   0.38421   0.55966   0.00000  Uiso   1.00
H858   H     0.09675   0.40404   0.60349   0.00000  Uiso   1.00
H859   H     0.05809   0.35247   0.57556   0.00000  Uiso   1.00
H860   H     0.30272   0.43308   0.82379   0.00000  Uiso   1.00
H861   H     0.25660   0.36686   0.83608   0.00000  Uiso   1.00
H862   H     0.21880   0.41824   0.82925   0.00000  Uiso   1.00
H863   H     0.26885   0.39860   0.90763   0.00000  Uiso   1.00
H864   H     0.19397   0.40625   0.90602   0.00000  Uiso   1.00
H865   H     0.25291   0.50582   0.88043   0.00000  Uiso   1.00
H866   H     0.16859   0.53446   0.90518   0.00000  Uiso   1.00
H867   H     0.31830   0.49128   0.89214   0.00000  Uiso   1.00
H868   H     0.23539   0.34657   0.75488   0.00000  Uiso   1.00
H869   H     0.09804   0.65345   0.74488   0.00000  Uiso   1.00
H870   H     0.00108   0.53873   0.78478   0.00000  Uiso   1.00
H871   H     0.33218   0.46114   0.71533   0.00000  Uiso   1.00
H872   H     0.14774   0.33890   0.63184   0.00000  Uiso   1.00
H873   H     0.10512   0.61975   0.60237   0.00000  Uiso   1.00
H874   H     0.18951   0.63066   0.59233   0.00000  Uiso   1.00
N875   N     0.31506   0.51401   0.76212   0.00000  Uiso   1.00
N876   N     0.01827   0.48599   0.73788   0.00000  Uiso   1.00
O877   O     0.12815   0.57142   0.74686   0.00000  Uiso   1.00
O878   O     0.20518   0.42858   0.75314   0.00000  Uiso   1.00
O879   O     0.22829   0.58086   0.75503   0.00000  Uiso   1.00
O880   O     0.10504   0.41914   0.74498   0.00000  Uiso   1.00
O881   O     0.08851   0.49263   0.80855   0.00000  Uiso   1.00
O882   O     0.24482   0.50737   0.69146   0.00000  Uiso   1.00
O883   O     0.18866   0.50207   0.81671   0.00000  Uiso   1.00
O884   O     0.14468   0.49793   0.68329   0.00000  Uiso   1.00
C885   C     0.51503   0.59999   0.75126   0.00000  Uiso   1.00
C886   C     0.53843   0.50415   0.66644   0.00000  Uiso   1.00
C887   C     0.43820   0.47339   0.87896   0.00000  Uiso   1.00
C888   C     0.56158   0.50563   0.61751   0.00000  Uiso   1.00
C889   C     0.37987   0.40215   0.92994   0.00000  Uiso   1.00
C890   C     0.64556   0.52377   0.55036   0.00000  Uiso   1.00
C891   C     0.39657   0.42405   0.88750   0.00000  Uiso   1.00
C892   C     0.62585   0.52147   0.59672   0.00000  Uiso   1.00
C893   C     0.46912   0.49667   0.91155   0.00000  Uiso   1.00
C894   C     0.51814   0.49039   0.59106   0.00000  Uiso   1.00
C895   C     0.46316   0.46870   0.95008   0.00000  Uiso   1.00
C896   C     0.48499   0.40001   0.74869   0.00000  Uiso   1.00
C897   C     0.53790   0.48545   0.54478   0.00000  Uiso   1.00
C898   C     0.41248   0.42518   0.96222   0.00000  Uiso   1.00
C899   C     0.60166   0.50691   0.52398   0.00000  Uiso   1.00
C900   C     0.51078   0.47879   0.97366   0.00000  Uiso   1.00
C901   C     0.49499   0.46268   0.51844   0.00000  Uiso   1.00
C902   C     0.43543   0.38351   0.57096   0.00000  Uiso   1.00
C903   C     0.49042   0.35520   0.56232   0.00000  Uiso   1.00
C904   C     0.48251   0.65047   0.59963   0.00000  Uiso   1.00
C905   C     0.59963   0.48106   0.90221   0.00000  Uiso   1.00
C906   C     0.57803   0.42163   0.89186   0.00000  Uiso   1.00
C907   C     0.44178   0.41965   0.53239   0.00000  Uiso   1.00
C908   C     0.59025   0.40950   0.84210   0.00000  Uiso   1.00
C909   C     0.57585   0.49364   0.95162   0.00000  Uiso   1.00
C910   C     0.40113   0.40174   0.50368   0.00000  Uiso   1.00
C911   C     0.62037   0.50944   0.97740   0.00000  Uiso   1.00
C912   C     0.52349   0.65604   0.75170   0.00000  Uiso   1.00
C913   C     0.47657   0.34397   0.74816   0.00000  Uiso   1.00
C914   C     0.46149   0.49301   0.83313   0.00000  Uiso   1.00
Cu915  Cu    0.44071   0.49441   0.74517   0.00000  Uiso   1.00
Cu916  Cu    0.55929   0.50559   0.75484   0.00000  Uiso   1.00
F917   F     0.35193   0.35978   0.51533   0.00000  Uiso   1.00
F918   F     0.34849   0.52765   0.95691   0.00000  Uiso   1.00
F919   F     0.33613   0.53685   0.62107   0.00000  Uiso   1.00
F920   F     0.37608   0.39510   0.85392   0.00000  Uiso   1.00
F921   F     0.33790   0.35509   0.93721   0.00000  Uiso   1.00
F922   F     0.37437   0.54199   0.53162   0.00000  Uiso   1.00
H923   H     0.46850   0.48446   0.60650   0.00000  Uiso   1.00
H924   H     0.49283   0.66592   0.53041   0.00000  Uiso   1.00
H925   H     0.53577   0.38421   0.55966   0.00000  Uiso   1.00
H926   H     0.43008   0.40404   0.60349   0.00000  Uiso   1.00
H927   H     0.39142   0.35247   0.57556   0.00000  Uiso   1.00
H928   H     0.63605   0.43308   0.82379   0.00000  Uiso   1.00
H929   H     0.58993   0.36686   0.83608   0.00000  Uiso   1.00
H930   H     0.55213   0.41824   0.82925   0.00000  Uiso   1.00
H931   H     0.60219   0.39860   0.90763   0.00000  Uiso   1.00
H932   H     0.52731   0.40625   0.90602   0.00000  Uiso   1.00
H933   H     0.58625   0.50582   0.88043   0.00000  Uiso   1.00
H934   H     0.50192   0.53446   0.90518   0.00000  Uiso   1.00
H935   H     0.65163   0.49128   0.89214   0.00000  Uiso   1.00
H936   H     0.56872   0.34657   0.75488   0.00000  Uiso   1.00
H937   H     0.43137   0.65345   0.74488   0.00000  Uiso   1.00
H938   H     0.33441   0.53873   0.78478   0.00000  Uiso   1.00
H939   H     0.66551   0.46114   0.71533   0.00000  Uiso   1.00
H940   H     0.48107   0.33890   0.63184   0.00000  Uiso   1.00
H941   H     0.43845   0.61975   0.60237   0.00000  Uiso   1.00
H942   H     0.52285   0.63066   0.59233   0.00000  Uiso   1.00
N943   N     0.64839   0.51401   0.76212   0.00000  Uiso   1.00
N944   N     0.35161   0.48599   0.73788   0.00000  Uiso   1.00
O945   O     0.46148   0.57142   0.74686   0.00000  Uiso   1.00
O946   O     0.53852   0.42858   0.75314   0.00000  Uiso   1.00
O947   O     0.56163   0.58086   0.75503   0.00000  Uiso   1.00
O948   O     0.43837   0.41914   0.74498   0.00000  Uiso   1.00
O949   O     0.42185   0.49263   0.80855   0.00000  Uiso   1.00
O950   O     0.57815   0.50737   0.69146   0.00000  Uiso   1.00
O951   O     0.52199   0.50207   0.81671   0.00000  Uiso   1.00
O952   O     0.47801   0.49793   0.68329   0.00000  Uiso   1.00
C953   C     0.84836   0.59999   0.75126   0.00000  Uiso   1.00
C954   C     0.87177   0.50415   0.66644   0.00000  Uiso   1.00
C955   C     0.77153   0.47339   0.87896   0.00000  Uiso   1.00
C956   C     0.89491   0.50563   0.61751   0.00000  Uiso   1.00
C957   C     0.71320   0.40215   0.92994   0.00000  Uiso   1.00
C958   C     0.97890   0.52377   0.55036   0.00000  Uiso   1.00
C959   C     0.72990   0.42405   0.88750   0.00000  Uiso   1.00
C960   C     0.95918   0.52147   0.59672   0.00000  Uiso   1.00
C961   C     0.80245   0.49667   0.91155   0.00000  Uiso   1.00
C962   C     0.85148   0.49039   0.59106   0.00000  Uiso   1.00
C963   C     0.79649   0.46870   0.95008   0.00000  Uiso   1.00
C964   C     0.81833   0.40001   0.74869   0.00000  Uiso   1.00
C965   C     0.87123   0.48545   0.54478   0.00000  Uiso   1.00
C966   C     0.74581   0.42518   0.96222   0.00000  Uiso   1.00
C967   C     0.93499   0.50691   0.52398   0.00000  Uiso   1.00
C968   C     0.84411   0.47879   0.97366   0.00000  Uiso   1.00
C969   C     0.82832   0.46268   0.51844   0.00000  Uiso   1.00
C970   C     0.76877   0.38351   0.57096   0.00000  Uiso   1.00
C971   C     0.82375   0.35520   0.56232   0.00000  Uiso   1.00
C972   C     0.81584   0.65047   0.59963   0.00000  Uiso   1.00
C973   C     0.93297   0.48106   0.90221   0.00000  Uiso   1.00
C974   C     0.91136   0.42163   0.89186   0.00000  Uiso   1.00
C975   C     0.77511   0.41965   0.53239   0.00000  Uiso   1.00
C976   C     0.92358   0.40950   0.84210   0.00000  Uiso   1.00
C977   C     0.90919   0.49364   0.95162   0.00000  Uiso   1.00
C978   C     0.73446   0.40174   0.50368   0.00000  Uiso   1.00
C979   C     0.95370   0.50944   0.97740   0.00000  Uiso   1.00
C980   C     0.85682   0.65604   0.75170   0.00000  Uiso   1.00
C981   C     0.80990   0.34397   0.74816   0.00000  Uiso   1.00
C982   C     0.79482   0.49301   0.83313   0.00000  Uiso   1.00
Cu983  Cu    0.77404   0.49441   0.74517   0.00000  Uiso   1.00
Cu984  Cu    0.89263   0.50559   0.75484   0.00000  Uiso   1.00
F985   F     0.68526   0.35978   0.51533   0.00000  Uiso   1.00
F986   F     0.68182   0.52765   0.95691   0.00000  Uiso   1.00
F987   F     0.66947   0.53685   0.62107   0.00000  Uiso   1.00
F988   F     0.70941   0.39510   0.85392   0.00000  Uiso   1.00
F989   F     0.67124   0.35509   0.93721   0.00000  Uiso   1.00
F990   F     0.70770   0.54199   0.53162   0.00000  Uiso   1.00
H991   H     0.80184   0.48446   0.60650   0.00000  Uiso   1.00
H992   H     0.82616   0.66592   0.53041   0.00000  Uiso   1.00
H993   H     0.86910   0.38421   0.55966   0.00000  Uiso   1.00
H994   H     0.76341   0.40404   0.60349   0.00000  Uiso   1.00
H995   H     0.72475   0.35247   0.57556   0.00000  Uiso   1.00
H996   H     0.96938   0.43308   0.82379   0.00000  Uiso   1.00
H997   H     0.92326   0.36686   0.83608   0.00000  Uiso   1.00
H998   H     0.88546   0.41824   0.82925   0.00000  Uiso   1.00
H999   H     0.93552   0.39860   0.90763   0.00000  Uiso   1.00
H1000  H     0.86064   0.40625   0.90602   0.00000  Uiso   1.00
H1001  H     0.91958   0.50582   0.88043   0.00000  Uiso   1.00
H1002  H     0.83526   0.53446   0.90518   0.00000  Uiso   1.00
H1003  H     0.98497   0.49128   0.89214   0.00000  Uiso   1.00
H1004  H     0.90205   0.34657   0.75488   0.00000  Uiso   1.00
H1005  H     0.76470   0.65345   0.74488   0.00000  Uiso   1.00
H1006  H     0.66774   0.53873   0.78478   0.00000  Uiso   1.00
H1007  H     0.99884   0.46114   0.71533   0.00000  Uiso   1.00
H1008  H     0.81441   0.33890   0.63184   0.00000  Uiso   1.00
H1009  H     0.77179   0.61975   0.60237   0.00000  Uiso   1.00
H1010  H     0.85618   0.63066   0.59233   0.00000  Uiso   1.00
N1011  N     0.98173   0.51401   0.76212   0.00000  Uiso   1.00
N1012  N     0.68494   0.48599   0.73788   0.00000  Uiso   1.00
O1013  O     0.79482   0.57142   0.74686   0.00000  Uiso   1.00
O1014  O     0.87185   0.42858   0.75314   0.00000  Uiso   1.00
O1015  O     0.89496   0.58086   0.75503   0.00000  Uiso   1.00
O1016  O     0.77171   0.41914   0.74498   0.00000  Uiso   1.00
O1017  O     0.75518   0.49263   0.80855   0.00000  Uiso   1.00
O1018  O     0.91149   0.50737   0.69146   0.00000  Uiso   1.00
O1019  O     0.85532   0.50207   0.81671   0.00000  Uiso   1.00
O1020  O     0.81134   0.49793   0.68329   0.00000  Uiso   1.00
C1021  C     0.18170   0.93333   0.75126   0.00000  Uiso   1.00
C1022  C     0.20510   0.83748   0.66644   0.00000  Uiso   1.00
C1023  C     0.10486   0.80672   0.87896   0.00000  Uiso   1.00
C1024  C     0.22825   0.83896   0.61751   0.00000  Uiso   1.00
C1025  C     0.04654   0.73549   0.92994   0.00000  Uiso   1.00
C1026  C     0.31223   0.85710   0.55036   0.00000  Uiso   1.00
C1027  C     0.06324   0.75738   0.88750   0.00000  Uiso   1.00
C1028  C     0.29252   0.85481   0.59672   0.00000  Uiso   1.00
C1029  C     0.13579   0.83001   0.91155   0.00000  Uiso   1.00
C1030  C     0.18481   0.82372   0.59106   0.00000  Uiso   1.00
C1031  C     0.12983   0.80203   0.95008   0.00000  Uiso   1.00
C1032  C     0.15166   0.73334   0.74869   0.00000  Uiso   1.00
C1033  C     0.20457   0.81878   0.54478   0.00000  Uiso   1.00
C1034  C     0.07915   0.75852   0.96222   0.00000  Uiso   1.00
C1035  C     0.26833   0.84025   0.52398   0.00000  Uiso   1.00
C1036  C     0.17744   0.81212   0.97366   0.00000  Uiso   1.00
C1037  C     0.16166   0.79602   0.51844   0.00000  Uiso   1.00
C1038  C     0.10210   0.71685   0.57096   0.00000  Uiso   1.00
C1039  C     0.15709   0.68853   0.56232   0.00000  Uiso   1.00
C1040  C     0.14918   0.98380   0.59963   0.00000  Uiso   1.00
C1041  C     0.26630   0.81439   0.90221   0.00000  Uiso   1.00
C1042  C     0.24469   0.75497   0.89186   0.00000  Uiso   1.00
C1043  C     0.10845   0.75298   0.53239   0.00000  Uiso   1.00
C1044  C     0.25692   0.74283   0.84210   0.00000  Uiso   1.00
C1045  C     0.24252   0.82698   0.95162   0.00000  Uiso   1.00
C1046  C     0.06779   0.73507   0.50368   0.00000  Uiso   1.00
C1047  C     0.28704   0.84277   0.97740   0.00000  Uiso   1.00
C1048  C     0.19015   0.98938   0.75170   0.00000  Uiso   1.00
C1049  C     0.14323   0.67730   0.74816   0.00000  Uiso   1.00
C1050  C     0.12815   0.82634   0.83313   0.00000  Uiso   1.00
Cu1051 Cu    0.10737   0.82775   0.74517   0.00000  Uiso   1.00
Cu1052 Cu    0.22596   0.83892   0.75484   0.00000  Uiso   1.00
F1053  F     0.01859   0.69311   0.51533   0.00000  Uiso   1.00
F1054  F     0.01516   0.86098   0.95691   0.00000  Uiso   1.00
F1055  F     0.00280   0.87018   0.62107   0.00000  Uiso   1.00
F1056  F     0.04275   0.72843   0.85392   0.00000  Uiso   1.00
F1057  F     0.00457   0.68842   0.93721   0.00000  Uiso   1.00
F1058  F     0.04103   0.87532   0.53162   0.00000  Uiso   1.00
H1059  H     0.13517   0.81780   0.60650   0.00000  Uiso   1.00
H1060  H     0.15949   0.99925   0.53041   0.00000  Uiso   1.00
H1061  H     0.20244   0.71755   0.55966   0.00000  Uiso   1.00
H1062  H     0.09675   0.73737   0.60349   0.00000  Uiso   1.00
H1063  H     0.05809   0.68580   0.57556   0.00000  Uiso   1.00
H1064  H     0.30272   0.76641   0.82379   0.00000  Uiso   1.00
H1065  H     0.25660   0.70019   0.83608   0.00000  Uiso   1.00
H1066  H     0.21880   0.75157   0.82925   0.00000  Uiso   1.00
H1067  H     0.26885   0.73194   0.90763   0.00000  Uiso   1.00
H1068  H     0.19397   0.73958   0.90602   0.00000  Uiso   1.00
H1069  H     0.25291   0.83915   0.88043   0.00000  Uiso   1.00
H1070  H     0.16859   0.86780   0.90518   0.00000  Uiso   1.00
H1071  H     0.31830   0.82461   0.89214   0.00000  Uiso   1.00
H1072  H     0.23539   0.67990   0.75488   0.00000  Uiso   1.00
H1073  H     0.09804   0.98678   0.74488   0.00000  Uiso   1.00
H1074  H     0.00108   0.87206   0.78478   0.00000  Uiso   1.00
H1075  H     0.33218   0.79447   0.71533   0.00000  Uiso   1.00
H1076  H     0.14774   0.67224   0.63184   0.00000  Uiso   1.00
H1077  H     0.10512   0.95308   0.60237   0.00000  Uiso   1.00
H1078  H     0.18951   0.96399   0.59233   0.00000  Uiso   1.00
N1079  N     0.31506   0.84735   0.76212   0.00000  Uiso   1.00
N1080  N     0.01827   0.81932   0.73788   0.00000  Uiso   1.00
O1081  O     0.12815   0.90476   0.74686   0.00000  Uiso   1.00
O1082  O     0.20518   0.76191   0.75314   0.00000  Uiso   1.00
O1083  O     0.22829   0.91420   0.75503   0.00000  Uiso   1.00
O1084  O     0.10504   0.75247   0.74498   0.00000  Uiso   1.00
O1085  O     0.08851   0.82597   0.80855   0.00000  Uiso   1.00
O1086  O     0.24482   0.84070   0.69146   0.00000  Uiso   1.00
O1087  O     0.18866   0.83540   0.81671   0.00000  Uiso   1.00
O1088  O     0.14468   0.83126   0.68329   0.00000  Uiso   1.00
C1089  C     0.51503   0.93333   0.75126   0.00000  Uiso   1.00
C1090  C     0.53843   0.83748   0.66644   0.00000  Uiso   1.00
C1091  C     0.43820   0.80672   0.87896   0.00000  Uiso   1.00
C1092  C     0.56158   0.83896   0.61751   0.00000  Uiso   1.00
C1093  C     0.37987   0.73549   0.92994   0.00000  Uiso   1.00
C1094  C     0.64556   0.85710   0.55036   0.00000  Uiso   1.00
C1095  C     0.39657   0.75738   0.88750   0.00000  Uiso   1.00
C1096  C     0.62585   0.85481   0.59672   0.00000  Uiso   1.00
C1097  C     0.46912   0.83001   0.91155   0.00000  Uiso   1.00
C1098  C     0.51814   0.82372   0.59106   0.00000  Uiso   1.00
C1099  C     0.46316   0.80203   0.95008   0.00000  Uiso   1.00
C1100  C     0.48499   0.73334   0.74869   0.00000  Uiso   1.00
C1101  C     0.53790   0.81878   0.54478   0.00000  Uiso   1.00
C1102  C     0.41248   0.75852   0.96222   0.00000  Uiso   1.00
C1103  C     0.60166   0.84025   0.52398   0.00000  Uiso   1.00
C1104  C     0.51078   0.81212   0.97366   0.00000  Uiso   1.00
C1105  C     0.49499   0.79602   0.51844   0.00000  Uiso   1.00
C1106  C     0.43543   0.71685   0.57096   0.00000  Uiso   1.00
C1107  C     0.49042   0.68853   0.56232   0.00000  Uiso   1.00
C1108  C     0.48251   0.98380   0.59963   0.00000  Uiso   1.00
C1109  C     0.59963   0.81439   0.90221   0.00000  Uiso   1.00
C1110  C     0.57803   0.75497   0.89186   0.00000  Uiso   1.00
C1111  C     0.44178   0.75298   0.53239   0.00000  Uiso   1.00
C1112  C     0.59025   0.74283   0.84210   0.00000  Uiso   1.00
C1113  C     0.57585   0.82698   0.95162   0.00000  Uiso   1.00
C1114  C     0.40113   0.73507   0.50368   0.00000  Uiso   1.00
C1115  C     0.62037   0.84277   0.97740   0.00000  Uiso   1.00
C1116  C     0.52349   0.98938   0.75170   0.00000  Uiso   1.00
C1117  C     0.47657   0.67730   0.74816   0.00000  Uiso   1.00
C1118  C     0.46149   0.82634   0.83313   0.00000  Uiso   1.00
Cu1119 Cu    0.44071   0.82775   0.74517   0.00000  Uiso   1.00
Cu1120 Cu    0.55929   0.83892   0.75484   0.00000  Uiso   1.00
F1121  F     0.35193   0.69311   0.51533   0.00000  Uiso   1.00
F1122  F     0.34849   0.86098   0.95691   0.00000  Uiso   1.00
F1123  F     0.33613   0.87018   0.62107   0.00000  Uiso   1.00
F1124  F     0.37608   0.72843   0.85392   0.00000  Uiso   1.00
F1125  F     0.33790   0.68842   0.93721   0.00000  Uiso   1.00
F1126  F     0.37437   0.87532   0.53162   0.00000  Uiso   1.00
H1127  H     0.46850   0.81780   0.60650   0.00000  Uiso   1.00
H1128  H     0.49283   0.99925   0.53041   0.00000  Uiso   1.00
H1129  H     0.53577   0.71755   0.55966   0.00000  Uiso   1.00
H1130  H     0.43008   0.73737   0.60349   0.00000  Uiso   1.00
H1131  H     0.39142   0.68580   0.57556   0.00000  Uiso   1.00
H1132  H     0.63605   0.76641   0.82379   0.00000  Uiso   1.00
H1133  H     0.58993   0.70019   0.83608   0.00000  Uiso   1.00
H1134  H     0.55213   0.75157   0.82925   0.00000  Uiso   1.00
H1135  H     0.60219   0.73194   0.90763   0.00000  Uiso   1.00
H1136  H     0.52731   0.73958   0.90602   0.00000  Uiso   1.00
H1137  H     0.58625   0.83915   0.88043   0.00000  Uiso   1.00
H1138  H     0.50192   0.86780   0.90518   0.00000  Uiso   1.00
H1139  H     0.65163   0.82461   0.89214   0.00000  Uiso   1.00
H1140  H     0.56872   0.67990   0.75488   0.00000  Uiso   1.00
H1141  H     0.43137   0.98678   0.74488   0.00000  Uiso   1.00
H1142  H     0.33441   0.87206   0.78478   0.00000  Uiso   1.00
H1143  H     0.66551   0.79447   0.71533   0.00000  Uiso   1.00
H1144  H     0.48107   0.67224   0.63184   0.00000  Uiso   1.00
H1145  H     0.43845   0.95308   0.60237   0.00000  Uiso   1.00
H1146  H     0.52285   0.96399   0.59233   0.00000  Uiso   1.00
N1147  N     0.64839   0.84735   0.76212   0.00000  Uiso   1.00
N1148  N     0.35161   0.81932   0.73788   0.00000  Uiso   1.00
O1149  O     0.46148   0.90476   0.74686   0.00000  Uiso   1.00
O1150  O     0.53852   0.76191   0.75314   0.00000  Uiso   1.00
O1151  O     0.56163   0.91420   0.75503   0.00000  Uiso   1.00
O1152  O     0.43837   0.75247   0.74498   0.00000  Uiso   1.00
O1153  O     0.42185   0.82597   0.80855   0.00000  Uiso   1.00
O1154  O     0.57815   0.84070   0.69146   0.00000  Uiso   1.00
O1155  O     0.52199   0.83540   0.81671   0.00000  Uiso   1.00
O1156  O     0.47801   0.83126   0.68329   0.00000  Uiso   1.00
C1157  C     0.84836   0.93333   0.75126   0.00000  Uiso   1.00
C1158  C     0.87177   0.83748   0.66644   0.00000  Uiso   1.00
C1159  C     0.77153   0.80672   0.87896   0.00000  Uiso   1.00
C1160  C     0.89491   0.83896   0.61751   0.00000  Uiso   1.00
C1161  C     0.71320   0.73549   0.92994   0.00000  Uiso   1.00
C1162  C     0.97890   0.85710   0.55036   0.00000  Uiso   1.00
C1163  C     0.72990   0.75738   0.88750   0.00000  Uiso   1.00
C1164  C     0.95918   0.85481   0.59672   0.00000  Uiso   1.00
C1165  C     0.80245   0.83001   0.91155   0.00000  Uiso   1.00
C1166  C     0.85148   0.82372   0.59106   0.00000  Uiso   1.00
C1167  C     0.79649   0.80203   0.95008   0.00000  Uiso   1.00
C1168  C     0.81833   0.73334   0.74869   0.00000  Uiso   1.00
C1169  C     0.87123   0.81878   0.54478   0.00000  Uiso   1.00
C1170  C     0.74581   0.75852   0.96222   0.00000  Uiso   1.00
C1171  C     0.93499   0.84025   0.52398   0.00000  Uiso   1.00
C1172  C     0.84411   0.81212   0.97366   0.00000  Uiso   1.00
C1173  C     0.82832   0.79602   0.51844   0.00000  Uiso   1.00
C1174  C     0.76877   0.71685   0.57096   0.00000  Uiso   1.00
C1175  C     0.82375   0.68853   0.56232   0.00000  Uiso   1.00
C1176  C     0.81584   0.98380   0.59963   0.00000  Uiso   1.00
C1177  C     0.93297   0.81439   0.90221   0.00000  Uiso   1.00
C1178  C     0.91136   0.75497   0.89186   0.00000  Uiso   1.00
C1179  C     0.77511   0.75298   0.53239   0.00000  Uiso   1.00
C1180  C     0.92358   0.74283   0.84210   0.00000  Uiso   1.00
C1181  C     0.90919   0.82698   0.95162   0.00000  Uiso   1.00
C1182  C     0.73446   0.73507   0.50368   0.00000  Uiso   1.00
C1183  C     0.95370   0.84277   0.97740   0.00000  Uiso   1.00
C1184  C     0.85682   0.98938   0.75170   0.00000  Uiso   1.00
C1185  C     0.80990   0.67730   0.74816   0.00000  Uiso   1.00
C1186  C     0.79482   0.82634   0.83313   0.00000  Uiso   1.00
Cu1187 Cu    0.77404   0.82775   0.74517   0.00000  Uiso   1.00
Cu1188 Cu    0.89263   0.83892   0.75484   0.00000  Uiso   1.00
F1189  F     0.68526   0.69311   0.51533   0.00000  Uiso   1.00
F1190  F     0.68182   0.86098   0.95691   0.00000  Uiso   1.00
F1191  F     0.66947   0.87018   0.62107   0.00000  Uiso   1.00
F1192  F     0.70941   0.72843   0.85392   0.00000  Uiso   1.00
F1193  F     0.67124   0.68842   0.93721   0.00000  Uiso   1.00
F1194  F     0.70770   0.87532   0.53162   0.00000  Uiso   1.00
H1195  H     0.80184   0.81780   0.60650   0.00000  Uiso   1.00
H1196  H     0.82616   0.99925   0.53041   0.00000  Uiso   1.00
H1197  H     0.86910   0.71755   0.55966   0.00000  Uiso   1.00
H1198  H     0.76341   0.73737   0.60349   0.00000  Uiso   1.00
H1199  H     0.72475   0.68580   0.57556   0.00000  Uiso   1.00
H1200  H     0.96938   0.76641   0.82379   0.00000  Uiso   1.00
H1201  H     0.92326   0.70019   0.83608   0.00000  Uiso   1.00
H1202  H     0.88546   0.75157   0.82925   0.00000  Uiso   1.00
H1203  H     0.93552   0.73194   0.90763   0.00000  Uiso   1.00
H1204  H     0.86064   0.73958   0.90602   0.00000  Uiso   1.00
H1205  H     0.91958   0.83915   0.88043   0.00000  Uiso   1.00
H1206  H     0.83526   0.86780   0.90518   0.00000  Uiso   1.00
H1207  H     0.98497   0.82461   0.89214   0.00000  Uiso   1.00
H1208  H     0.90205   0.67990   0.75488   0.00000  Uiso   1.00
H1209  H     0.76470   0.98678   0.74488   0.00000  Uiso   1.00
H1210  H     0.66774   0.87206   0.78478   0.00000  Uiso   1.00
H1211  H     0.99884   0.79447   0.71533   0.00000  Uiso   1.00
H1212  H     0.81441   0.67224   0.63184   0.00000  Uiso   1.00
H1213  H     0.77179   0.95308   0.60237   0.00000  Uiso   1.00
H1214  H     0.85618   0.96399   0.59233   0.00000  Uiso   1.00
N1215  N     0.98173   0.84735   0.76212   0.00000  Uiso   1.00
N1216  N     0.68494   0.81932   0.73788   0.00000  Uiso   1.00
O1217  O     0.79482   0.90476   0.74686   0.00000  Uiso   1.00
O1218  O     0.87185   0.76191   0.75314   0.00000  Uiso   1.00
O1219  O     0.89496   0.91420   0.75503   0.00000  Uiso   1.00
O1220  O     0.77171   0.75247   0.74498   0.00000  Uiso   1.00
O1221  O     0.75518   0.82597   0.80855   0.00000  Uiso   1.00
O1222  O     0.91149   0.84070   0.69146   0.00000  Uiso   1.00
O1223  O     0.85532   0.83540   0.81671   0.00000  Uiso   1.00
O1224  O     0.81134   0.83126   0.68329   0.00000  Uiso   1.00
loop_
_geom_bond_atom_site_label_1
_geom_bond_atom_site_label_2
_geom_bond_distance
_geom_bond_site_symmetry_2
_ccdc_geom_bond_type
C1     C28     1.426   .     S
C1     O63     1.291   .     A
C1     O61     1.296   .     A
C2     C4      1.478   .     S
C2     O68     1.305   .     A
C2     O66     1.308   .     A
C3     C30     1.472   .     S
C3     C9      1.396   .     A
C3     C7      1.403   .     A
C4     C8      1.405   .     A
C4     C10     1.401   .     A
C5     F37     1.358   .     S
C5     C7      1.401   .     A
C5     C14     1.408   .     A
C6     C8      1.397   .     A
C6     C15     1.412   .     A
C6     F106    1.358   .     S
C7     F36     1.356   .     S
C8     F103    1.358   .     S
C9     C11     1.406   .     A
C9     H50     1.083   .     S
C10    C13     1.400   .     A
C10    H39     1.079   .     S
C11    C14     1.406   .     A
C11    C16     1.410   .     A
C12    C29     1.426   .     S
C12    O64     1.291   .     A
C12    O62     1.296   .     A
C13    C17     1.420   .     A
C13    C15     1.416   .     A
C14    C638    1.403   .     S
C15    C639    1.404   1_554 S
C16    C25     1.427   .     A
C16    C629    1.415   .     S
C17    C23     1.439   .     A
C17    C628    1.415   1_554 S
C18    C23     1.533   .     S
C18    C19     1.538   .     S
C18    H42     1.101   .     S
C18    H43     1.110   .     S
C19    H41     1.110   .     S
C19    C428    1.527   1_545 S
C19    H448    1.112   1_545 S
C20    H57     1.110   .     S
C20    H58     1.111   .     S
C20    C223    1.527   .     S
C20    H260    1.111   .     S
C21    H49     1.102   .     S
C21    C22     1.547   .     S
C21    H51     1.106   .     S
C21    C25     1.532   .     S
C22    H47     1.103   .     S
C22    H48     1.104   .     S
C22    C24     1.524   .     S
C23    C26     1.415   .     A
C24    H46     1.104   .     S
C24    H45     1.110   .     S
C24    H44     1.108   .     S
C25    C27     1.406   .     A
C26    F33     1.360   .     S
C26    C626    1.403   1_554 S
C27    C627    1.404   .     S
C27    F102    1.357   .     S
C28    C233    1.328   .     S
C28    H256    1.087   .     S
C29    C436    1.328   1_545 S
C29    H461    1.088   1_545 S
C30    O65     1.309   .     A
C30    O67     1.300   .     A
Cu31   N60     2.033   .     S
Cu31   O61     1.950   .     S
Cu31   Cu32    2.705   .     S
Cu31   O68     1.894   .     S
Cu31   O65     1.908   .     S
Cu31   O64     1.946   .     S
Cu32   N59     2.033   .     S
Cu32   O67     1.894   .     S
Cu32   O66     1.908   .     S
Cu32   O62     1.950   .     S
Cu32   O63     1.946   .     S
F34    C163    1.357   1_455 S
F35    C144    1.358   1_455 S
F38    C142    1.358   1_455 S
H40    C223    1.112   .     S
H52    C436    1.087   1_545 S
H53    C233    1.088   .     S
H54    N195    1.029   1_455 S
H55    N128    1.029   .     S
H56    C428    1.111   1_545 S
N59    H122    1.029   .     S
N59    N128    1.289   .     S
N60    H191    1.029   1_455 S
N60    N195    1.289   1_455 S
C69    C96     1.426   .     S
C69    O131    1.291   .     A
C69    O129    1.296   .     A
C70    C72     1.478   .     S
C70    O136    1.305   .     A
C70    O134    1.308   .     A
C71    C98     1.472   .     S
C71    C77     1.396   .     A
C71    C75     1.403   .     A
C72    C76     1.405   .     A
C72    C78     1.401   .     A
C73    F105    1.358   .     S
C73    C75     1.401   .     A
C73    C82     1.408   .     A
C74    C76     1.397   .     A
C74    C83     1.412   .     A
C74    F174    1.358   .     S
C75    F104    1.356   .     S
C76    F171    1.358   .     S
C77    C79     1.406   .     A
C77    H118    1.083   .     S
C78    C81     1.400   .     A
C78    H107    1.079   .     S
C79    C82     1.406   .     A
C79    C84     1.410   .     A
C80    C97     1.426   .     S
C80    O132    1.291   .     A
C80    O130    1.296   .     A
C81    C85     1.420   .     A
C81    C83     1.416   .     A
C82    C706    1.403   .     S
C83    C707    1.404   1_554 S
C84    C93     1.427   .     A
C84    C697    1.415   .     S
C85    C91     1.439   .     A
C85    C696    1.415   1_554 S
C86    C91     1.533   .     S
C86    C87     1.538   .     S
C86    H110    1.101   .     S
C86    H111    1.110   .     S
C87    H109    1.110   .     S
C87    C496    1.527   1_545 S
C87    H516    1.112   1_545 S
C88    H125    1.110   .     S
C88    H126    1.111   .     S
C88    C291    1.527   .     S
C88    H328    1.111   .     S
C89    H117    1.102   .     S
C89    C90     1.547   .     S
C89    H119    1.106   .     S
C89    C93     1.532   .     S
C90    H115    1.103   .     S
C90    H116    1.104   .     S
C90    C92     1.524   .     S
C91    C94     1.415   .     A
C92    H114    1.104   .     S
C92    H113    1.110   .     S
C92    H112    1.108   .     S
C93    C95     1.406   .     A
C94    F101    1.360   .     S
C94    C694    1.403   1_554 S
C95    C695    1.404   .     S
C95    F170    1.357   .     S
C96    C301    1.328   .     S
C96    H324    1.087   .     S
C97    C504    1.328   1_545 S
C97    H529    1.088   1_545 S
C98    O133    1.309   .     A
C98    O135    1.300   .     A
Cu99   N128    2.033   .     S
Cu99   O129    1.950   .     S
Cu99   Cu100   2.705   .     S
Cu99   O136    1.894   .     S
Cu99   O133    1.908   .     S
Cu99   O132    1.946   .     S
Cu100  N127    2.033   .     S
Cu100  O135    1.894   .     S
Cu100  O134    1.908   .     S
Cu100  O130    1.950   .     S
Cu100  O131    1.946   .     S
H108   C291    1.112   .     S
H120   C504    1.087   1_545 S
H121   C301    1.088   .     S
H123   N196    1.029   .     S
H124   C496    1.111   1_545 S
N127   H190    1.029   .     S
N127   N196    1.289   .     S
C137   C164    1.426   .     S
C137   O199    1.291   .     A
C137   O197    1.296   .     A
C138   C140    1.478   .     S
C138   O204    1.305   .     A
C138   O202    1.308   .     A
C139   C166    1.472   .     S
C139   C145    1.396   .     A
C139   C143    1.403   .     A
C140   C144    1.405   .     A
C140   C146    1.401   .     A
C141   F173    1.358   .     S
C141   C143    1.401   .     A
C141   C150    1.408   .     A
C142   C144    1.397   .     A
C142   C151    1.412   .     A
C142   F38     1.358   1_655 S
C143   F172    1.356   .     S
C144   F35     1.358   1_655 S
C145   C147    1.406   .     A
C145   H186    1.083   .     S
C146   C149    1.400   .     A
C146   H175    1.079   .     S
C147   C150    1.406   .     A
C147   C152    1.410   .     A
C148   C165    1.426   .     S
C148   O200    1.291   .     A
C148   O198    1.296   .     A
C149   C153    1.420   .     A
C149   C151    1.416   .     A
C150   C774    1.403   .     S
C151   C775    1.404   1_554 S
C152   C161    1.427   .     A
C152   C765    1.415   .     S
C153   C159    1.439   .     A
C153   C764    1.415   1_554 S
C154   C159    1.533   .     S
C154   C155    1.538   .     S
C154   H178    1.101   .     S
C154   H179    1.110   .     S
C155   H177    1.110   .     S
C155   C564    1.527   1_545 S
C155   H584    1.112   1_545 S
C156   H193    1.110   .     S
C156   H194    1.111   .     S
C156   C359    1.527   .     S
C156   H396    1.111   .     S
C157   H185    1.102   .     S
C157   C158    1.547   .     S
C157   H187    1.106   .     S
C157   C161    1.532   .     S
C158   H183    1.103   .     S
C158   H184    1.104   .     S
C158   C160    1.524   .     S
C159   C162    1.415   .     A
C160   H182    1.104   .     S
C160   H181    1.110   .     S
C160   H180    1.108   .     S
C161   C163    1.406   .     A
C162   F169    1.360   .     S
C162   C762    1.403   1_554 S
C163   C763    1.404   .     S
C163   F34     1.357   1_655 S
C164   C369    1.328   .     S
C164   H392    1.087   .     S
C165   C572    1.328   1_545 S
C165   H597    1.088   1_545 S
C166   O201    1.309   .     A
C166   O203    1.300   .     A
Cu167  N196    2.033   .     S
Cu167  O197    1.950   .     S
Cu167  Cu168   2.705   .     S
Cu167  O204    1.894   .     S
Cu167  O201    1.908   .     S
Cu167  O200    1.946   .     S
Cu168  N195    2.033   .     S
Cu168  O203    1.894   .     S
Cu168  O202    1.908   .     S
Cu168  O198    1.950   .     S
Cu168  O199    1.946   .     S
H176   C359    1.112   .     S
H188   C572    1.087   1_545 S
H189   C369    1.088   .     S
H191   N60     1.029   1_655 S
H192   C564    1.111   1_545 S
N195   H54     1.029   1_655 S
N195   N60     1.289   1_655 S
C205   C232    1.426   .     S
C205   O267    1.291   .     A
C205   O265    1.296   .     A
C206   C208    1.478   .     S
C206   O272    1.305   .     A
C206   O270    1.308   .     A
C207   C234    1.472   .     S
C207   C213    1.396   .     A
C207   C211    1.403   .     A
C208   C212    1.405   .     A
C208   C214    1.401   .     A
C209   F241    1.358   .     S
C209   C211    1.401   .     A
C209   C218    1.408   .     A
C210   C212    1.397   .     A
C210   C219    1.412   .     A
C210   F310    1.358   .     S
C211   F240    1.356   .     S
C212   F307    1.358   .     S
C213   C215    1.406   .     A
C213   H254    1.083   .     S
C214   C217    1.400   .     A
C214   H243    1.079   .     S
C215   C218    1.406   .     A
C215   C220    1.410   .     A
C216   C233    1.426   .     S
C216   O268    1.291   .     A
C216   O266    1.296   .     A
C217   C221    1.420   .     A
C217   C219    1.416   .     A
C218   C842    1.403   .     S
C219   C843    1.404   1_554 S
C220   C229    1.427   .     A
C220   C833    1.415   .     S
C221   C227    1.439   .     A
C221   C832    1.415   1_554 S
C222   C227    1.533   .     S
C222   C223    1.538   .     S
C222   H246    1.101   .     S
C222   H247    1.110   .     S
C223   H245    1.110   .     S
C224   H261    1.110   .     S
C224   H262    1.111   .     S
C224   C427    1.527   .     S
C224   H464    1.111   .     S
C225   H253    1.102   .     S
C225   C226    1.547   .     S
C225   H255    1.106   .     S
C225   C229    1.532   .     S
C226   H251    1.103   .     S
C226   H252    1.104   .     S
C226   C228    1.524   .     S
C227   C230    1.415   .     A
C228   H250    1.104   .     S
C228   H249    1.110   .     S
C228   H248    1.108   .     S
C229   C231    1.406   .     A
C230   F237    1.360   .     S
C230   C830    1.403   1_554 S
C231   C831    1.404   .     S
C231   F306    1.357   .     S
C232   C437    1.328   .     S
C232   H460    1.087   .     S
C234   O269    1.309   .     A
C234   O271    1.300   .     A
Cu235  N264    2.033   .     S
Cu235  O265    1.950   .     S
Cu235  Cu236   2.705   .     S
Cu235  O272    1.894   .     S
Cu235  O269    1.908   .     S
Cu235  O268    1.946   .     S
Cu236  N263    2.033   .     S
Cu236  O271    1.894   .     S
Cu236  O270    1.908   .     S
Cu236  O266    1.950   .     S
Cu236  O267    1.946   .     S
F238   C367    1.357   1_455 S
F239   C348    1.358   1_455 S
F242   C346    1.358   1_455 S
H244   C427    1.112   .     S
H257   C437    1.088   .     S
H258   N399    1.029   1_455 S
H259   N332    1.029   .     S
N263   H326    1.029   .     S
N263   N332    1.289   .     S
N264   H395    1.029   1_455 S
N264   N399    1.289   1_455 S
C273   C300    1.426   .     S
C273   O335    1.291   .     A
C273   O333    1.296   .     A
C274   C276    1.478   .     S
C274   O340    1.305   .     A
C274   O338    1.308   .     A
C275   C302    1.472   .     S
C275   C281    1.396   .     A
C275   C279    1.403   .     A
C276   C280    1.405   .     A
C276   C282    1.401   .     A
C277   F309    1.358   .     S
C277   C279    1.401   .     A
C277   C286    1.408   .     A
C278   C280    1.397   .     A
C278   C287    1.412   .     A
C278   F378    1.358   .     S
C279   F308    1.356   .     S
C280   F375    1.358   .     S
C281   C283    1.406   .     A
C281   H322    1.083   .     S
C282   C285    1.400   .     A
C282   H311    1.079   .     S
C283   C286    1.406   .     A
C283   C288    1.410   .     A
C284   C301    1.426   .     S
C284   O336    1.291   .     A
C284   O334    1.296   .     A
C285   C289    1.420   .     A
C285   C287    1.416   .     A
C286   C910    1.403   .     S
C287   C911    1.404   1_554 S
C288   C297    1.427   .     A
C288   C901    1.415   .     S
C289   C295    1.439   .     A
C289   C900    1.415   1_554 S
C290   C295    1.533   .     S
C290   C291    1.538   .     S
C290   H314    1.101   .     S
C290   H315    1.110   .     S
C291   H313    1.110   .     S
C292   H329    1.110   .     S
C292   H330    1.111   .     S
C292   C495    1.527   .     S
C292   H532    1.111   .     S
C293   H321    1.102   .     S
C293   C294    1.547   .     S
C293   H323    1.106   .     S
C293   C297    1.532   .     S
C294   H319    1.103   .     S
C294   H320    1.104   .     S
C294   C296    1.524   .     S
C295   C298    1.415   .     A
C296   H318    1.104   .     S
C296   H317    1.110   .     S
C296   H316    1.108   .     S
C297   C299    1.406   .     A
C298   F305    1.360   .     S
C298   C898    1.403   1_554 S
C299   C899    1.404   .     S
C299   F374    1.357   .     S
C300   C505    1.328   .     S
C300   H528    1.087   .     S
C302   O337    1.309   .     A
C302   O339    1.300   .     A
Cu303  N332    2.033   .     S
Cu303  O333    1.950   .     S
Cu303  Cu304   2.705   .     S
Cu303  O340    1.894   .     S
Cu303  O337    1.908   .     S
Cu303  O336    1.946   .     S
Cu304  N331    2.033   .     S
Cu304  O339    1.894   .     S
Cu304  O338    1.908   .     S
Cu304  O334    1.950   .     S
Cu304  O335    1.946   .     S
H312   C495    1.112   .     S
H325   C505    1.088   .     S
H327   N400    1.029   .     S
N331   H394    1.029   .     S
N331   N400    1.289   .     S
C341   C368    1.426   .     S
C341   O403    1.291   .     A
C341   O401    1.296   .     A
C342   C344    1.478   .     S
C342   O408    1.305   .     A
C342   O406    1.308   .     A
C343   C370    1.472   .     S
C343   C349    1.396   .     A
C343   C347    1.403   .     A
C344   C348    1.405   .     A
C344   C350    1.401   .     A
C345   F377    1.358   .     S
C345   C347    1.401   .     A
C345   C354    1.408   .     A
C346   C348    1.397   .     A
C346   C355    1.412   .     A
C346   F242    1.358   1_655 S
C347   F376    1.356   .     S
C348   F239    1.358   1_655 S
C349   C351    1.406   .     A
C349   H390    1.083   .     S
C350   C353    1.400   .     A
C350   H379    1.079   .     S
C351   C354    1.406   .     A
C351   C356    1.410   .     A
C352   C369    1.426   .     S
C352   O404    1.291   .     A
C352   O402    1.296   .     A
C353   C357    1.420   .     A
C353   C355    1.416   .     A
C354   C978    1.403   .     S
C355   C979    1.404   1_554 S
C356   C365    1.427   .     A
C356   C969    1.415   .     S
C357   C363    1.439   .     A
C357   C968    1.415   1_554 S
C358   C363    1.533   .     S
C358   C359    1.538   .     S
C358   H382    1.101   .     S
C358   H383    1.110   .     S
C359   H381    1.110   .     S
C360   H397    1.110   .     S
C360   H398    1.111   .     S
C360   C563    1.527   .     S
C360   H600    1.111   .     S
C361   H389    1.102   .     S
C361   C362    1.547   .     S
C361   H391    1.106   .     S
C361   C365    1.532   .     S
C362   H387    1.103   .     S
C362   H388    1.104   .     S
C362   C364    1.524   .     S
C363   C366    1.415   .     A
C364   H386    1.104   .     S
C364   H385    1.110   .     S
C364   H384    1.108   .     S
C365   C367    1.406   .     A
C366   F373    1.360   .     S
C366   C966    1.403   1_554 S
C367   C967    1.404   .     S
C367   F238    1.357   1_655 S
C368   C573    1.328   .     S
C368   H596    1.087   .     S
C370   O405    1.309   .     A
C370   O407    1.300   .     A
Cu371  N400    2.033   .     S
Cu371  O401    1.950   .     S
Cu371  Cu372   2.705   .     S
Cu371  O408    1.894   .     S
Cu371  O405    1.908   .     S
Cu371  O404    1.946   .     S
Cu372  N399    2.033   .     S
Cu372  O407    1.894   .     S
Cu372  O406    1.908   .     S
Cu372  O402    1.950   .     S
Cu372  O403    1.946   .     S
H380   C563    1.112   .     S
H393   C573    1.088   .     S
H395   N264    1.029   1_655 S
N399   H258    1.029   1_655 S
N399   N264    1.289   1_655 S
C409   C436    1.426   .     S
C409   O471    1.291   .     A
C409   O469    1.296   .     A
C410   C412    1.478   .     S
C410   O476    1.305   .     A
C410   O474    1.308   .     A
C411   C438    1.472   .     S
C411   C417    1.396   .     A
C411   C415    1.403   .     A
C412   C416    1.405   .     A
C412   C418    1.401   .     A
C413   F445    1.358   .     S
C413   C415    1.401   .     A
C413   C422    1.408   .     A
C414   C416    1.397   .     A
C414   C423    1.412   .     A
C414   F514    1.358   .     S
C415   F444    1.356   .     S
C416   F511    1.358   .     S
C417   C419    1.406   .     A
C417   H458    1.083   .     S
C418   C421    1.400   .     A
C418   H447    1.079   .     S
C419   C422    1.406   .     A
C419   C424    1.410   .     A
C420   C437    1.426   .     S
C420   O472    1.291   .     A
C420   O470    1.296   .     A
C421   C425    1.420   .     A
C421   C423    1.416   .     A
C422   C1046   1.403   .     S
C423   C1047   1.404   1_554 S
C424   C433    1.427   .     A
C424   C1037   1.415   .     S
C425   C431    1.439   .     A
C425   C1036   1.415   1_554 S
C426   C431    1.533   .     S
C426   C427    1.538   .     S
C426   H450    1.101   .     S
C426   H451    1.110   .     S
C427   H449    1.110   .     S
C428   H465    1.110   .     S
C428   H466    1.111   .     S
C428   C19     1.527   1_565 S
C428   H56     1.111   1_565 S
C429   H457    1.102   .     S
C429   C430    1.547   .     S
C429   H459    1.106   .     S
C429   C433    1.532   .     S
C430   H455    1.103   .     S
C430   H456    1.104   .     S
C430   C432    1.524   .     S
C431   C434    1.415   .     A
C432   H454    1.104   .     S
C432   H453    1.110   .     S
C432   H452    1.108   .     S
C433   C435    1.406   .     A
C434   F441    1.360   .     S
C434   C1034   1.403   1_554 S
C435   C1035   1.404   .     S
C435   F510    1.357   .     S
C436   C29     1.328   1_565 S
C436   H52     1.087   1_565 S
C438   O473    1.309   .     A
C438   O475    1.300   .     A
Cu439  N468    2.033   .     S
Cu439  O469    1.950   .     S
Cu439  Cu440   2.705   .     S
Cu439  O476    1.894   .     S
Cu439  O473    1.908   .     S
Cu439  O472    1.946   .     S
Cu440  N467    2.033   .     S
Cu440  O475    1.894   .     S
Cu440  O474    1.908   .     S
Cu440  O470    1.950   .     S
Cu440  O471    1.946   .     S
F442   C571    1.357   1_455 S
F443   C552    1.358   1_455 S
F446   C550    1.358   1_455 S
H448   C19     1.112   1_565 S
H461   C29     1.088   1_565 S
H462   N603    1.029   1_455 S
H463   N536    1.029   .     S
N467   H530    1.029   .     S
N467   N536    1.289   .     S
N468   H599    1.029   1_455 S
N468   N603    1.289   1_455 S
C477   C504    1.426   .     S
C477   O539    1.291   .     A
C477   O537    1.296   .     A
C478   C480    1.478   .     S
C478   O544    1.305   .     A
C478   O542    1.308   .     A
C479   C506    1.472   .     S
C479   C485    1.396   .     A
C479   C483    1.403   .     A
C480   C484    1.405   .     A
C480   C486    1.401   .     A
C481   F513    1.358   .     S
C481   C483    1.401   .     A
C481   C490    1.408   .     A
C482   C484    1.397   .     A
C482   C491    1.412   .     A
C482   F582    1.358   .     S
C483   F512    1.356   .     S
C484   F579    1.358   .     S
C485   C487    1.406   .     A
C485   H526    1.083   .     S
C486   C489    1.400   .     A
C486   H515    1.079   .     S
C487   C490    1.406   .     A
C487   C492    1.410   .     A
C488   C505    1.426   .     S
C488   O540    1.291   .     A
C488   O538    1.296   .     A
C489   C493    1.420   .     A
C489   C491    1.416   .     A
C490   C1114   1.403   .     S
C491   C1115   1.404   1_554 S
C492   C501    1.427   .     A
C492   C1105   1.415   .     S
C493   C499    1.439   .     A
C493   C1104   1.415   1_554 S
C494   C499    1.533   .     S
C494   C495    1.538   .     S
C494   H518    1.101   .     S
C494   H519    1.110   .     S
C495   H517    1.110   .     S
C496   H533    1.110   .     S
C496   H534    1.111   .     S
C496   C87     1.527   1_565 S
C496   H124    1.111   1_565 S
C497   H525    1.102   .     S
C497   C498    1.547   .     S
C497   H527    1.106   .     S
C497   C501    1.532   .     S
C498   H523    1.103   .     S
C498   H524    1.104   .     S
C498   C500    1.524   .     S
C499   C502    1.415   .     A
C500   H522    1.104   .     S
C500   H521    1.110   .     S
C500   H520    1.108   .     S
C501   C503    1.406   .     A
C502   F509    1.360   .     S
C502   C1102   1.403   1_554 S
C503   C1103   1.404   .     S
C503   F578    1.357   .     S
C504   C97     1.328   1_565 S
C504   H120    1.087   1_565 S
C506   O541    1.309   .     A
C506   O543    1.300   .     A
Cu507  N536    2.033   .     S
Cu507  O537    1.950   .     S
Cu507  Cu508   2.705   .     S
Cu507  O544    1.894   .     S
Cu507  O541    1.908   .     S
Cu507  O540    1.946   .     S
Cu508  N535    2.033   .     S
Cu508  O543    1.894   .     S
Cu508  O542    1.908   .     S
Cu508  O538    1.950   .     S
Cu508  O539    1.946   .     S
H516   C87     1.112   1_565 S
H529   C97     1.088   1_565 S
H531   N604    1.029   .     S
N535   H598    1.029   .     S
N535   N604    1.289   .     S
C545   C572    1.426   .     S
C545   O607    1.291   .     A
C545   O605    1.296   .     A
C546   C548    1.478   .     S
C546   O612    1.305   .     A
C546   O610    1.308   .     A
C547   C574    1.472   .     S
C547   C553    1.396   .     A
C547   C551    1.403   .     A
C548   C552    1.405   .     A
C548   C554    1.401   .     A
C549   F581    1.358   .     S
C549   C551    1.401   .     A
C549   C558    1.408   .     A
C550   C552    1.397   .     A
C550   C559    1.412   .     A
C550   F446    1.358   1_655 S
C551   F580    1.356   .     S
C552   F443    1.358   1_655 S
C553   C555    1.406   .     A
C553   H594    1.083   .     S
C554   C557    1.400   .     A
C554   H583    1.079   .     S
C555   C558    1.406   .     A
C555   C560    1.410   .     A
C556   C573    1.426   .     S
C556   O608    1.291   .     A
C556   O606    1.296   .     A
C557   C561    1.420   .     A
C557   C559    1.416   .     A
C558   C1182   1.403   .     S
C559   C1183   1.404   1_554 S
C560   C569    1.427   .     A
C560   C1173   1.415   .     S
C561   C567    1.439   .     A
C561   C1172   1.415   1_554 S
C562   C567    1.533   .     S
C562   C563    1.538   .     S
C562   H586    1.101   .     S
C562   H587    1.110   .     S
C563   H585    1.110   .     S
C564   H601    1.110   .     S
C564   H602    1.111   .     S
C564   C155    1.527   1_565 S
C564   H192    1.111   1_565 S
C565   H593    1.102   .     S
C565   C566    1.547   .     S
C565   H595    1.106   .     S
C565   C569    1.532   .     S
C566   H591    1.103   .     S
C566   H592    1.104   .     S
C566   C568    1.524   .     S
C567   C570    1.415   .     A
C568   H590    1.104   .     S
C568   H589    1.110   .     S
C568   H588    1.108   .     S
C569   C571    1.406   .     A
C570   F577    1.360   .     S
C570   C1170   1.403   1_554 S
C571   C1171   1.404   .     S
C571   F442    1.357   1_655 S
C572   C165    1.328   1_565 S
C572   H188    1.087   1_565 S
C574   O609    1.309   .     A
C574   O611    1.300   .     A
Cu575  N604    2.033   .     S
Cu575  O605    1.950   .     S
Cu575  Cu576   2.705   .     S
Cu575  O612    1.894   .     S
Cu575  O609    1.908   .     S
Cu575  O608    1.946   .     S
Cu576  N603    2.033   .     S
Cu576  O611    1.894   .     S
Cu576  O610    1.908   .     S
Cu576  O606    1.950   .     S
Cu576  O607    1.946   .     S
H584   C155    1.112   1_565 S
H597   C165    1.088   1_565 S
H599   N468    1.029   1_655 S
N603   H462    1.029   1_655 S
N603   N468    1.289   1_655 S
C613   C640    1.426   .     S
C613   O675    1.291   .     A
C613   O673    1.296   .     A
C614   C616    1.478   .     S
C614   O680    1.305   .     A
C614   O678    1.308   .     A
C615   C642    1.472   .     S
C615   C621    1.396   .     A
C615   C619    1.403   .     A
C616   C620    1.405   .     A
C616   C622    1.401   .     A
C617   F649    1.358   .     S
C617   C619    1.401   .     A
C617   C626    1.408   .     A
C618   C620    1.397   .     A
C618   C627    1.412   .     A
C618   F718    1.358   .     S
C619   F648    1.356   .     S
C620   F715    1.358   .     S
C621   C623    1.406   .     A
C621   H662    1.083   .     S
C622   C625    1.400   .     A
C622   H651    1.079   .     S
C623   C626    1.406   .     A
C623   C628    1.410   .     A
C624   C641    1.426   .     S
C624   O676    1.291   .     A
C624   O674    1.296   .     A
C625   C629    1.420   .     A
C625   C627    1.416   .     A
C626   C26     1.403   1_556 S
C628   C637    1.427   .     A
C628   C17     1.415   1_556 S
C629   C635    1.439   .     A
C630   C635    1.533   .     S
C630   C631    1.538   .     S
C630   H654    1.101   .     S
C630   H655    1.110   .     S
C631   H653    1.110   .     S
C631   C1040   1.527   1_545 S
C631   H1060   1.112   1_545 S
C632   H669    1.110   .     S
C632   H670    1.111   .     S
C632   C835    1.527   .     S
C632   H872    1.111   .     S
C633   H661    1.102   .     S
C633   C634    1.547   .     S
C633   H663    1.106   .     S
C633   C637    1.532   .     S
C634   H659    1.103   .     S
C634   H660    1.104   .     S
C634   C636    1.524   .     S
C635   C638    1.415   .     A
C636   H658    1.104   .     S
C636   H657    1.110   .     S
C636   H656    1.108   .     S
C637   C639    1.406   .     A
C638   F645    1.360   .     S
C639   C15     1.404   1_556 S
C639   F714    1.357   .     S
C640   C845    1.328   .     S
C640   H868    1.087   .     S
C641   C1048   1.328   1_545 S
C641   H1073   1.088   1_545 S
C642   O677    1.309   .     A
C642   O679    1.300   .     A
Cu643  N672    2.033   .     S
Cu643  O673    1.950   .     S
Cu643  Cu644   2.705   .     S
Cu643  O680    1.894   .     S
Cu643  O677    1.908   .     S
Cu643  O676    1.946   .     S
Cu644  N671    2.033   .     S
Cu644  O679    1.894   .     S
Cu644  O678    1.908   .     S
Cu644  O674    1.950   .     S
Cu644  O675    1.946   .     S
F646   C775    1.357   1_455 S
F647   C756    1.358   1_455 S
F650   C754    1.358   1_455 S
H652   C835    1.112   .     S
H664   C1048   1.087   1_545 S
H665   C845    1.088   .     S
H666   N807    1.029   1_455 S
H667   N740    1.029   .     S
H668   C1040   1.111   1_545 S
N671   H734    1.029   .     S
N671   N740    1.289   .     S
N672   H803    1.029   1_455 S
N672   N807    1.289   1_455 S
C681   C708    1.426   .     S
C681   O743    1.291   .     A
C681   O741    1.296   .     A
C682   C684    1.478   .     S
C682   O748    1.305   .     A
C682   O746    1.308   .     A
C683   C710    1.472   .     S
C683   C689    1.396   .     A
C683   C687    1.403   .     A
C684   C688    1.405   .     A
C684   C690    1.401   .     A
C685   F717    1.358   .     S
C685   C687    1.401   .     A
C685   C694    1.408   .     A
C686   C688    1.397   .     A
C686   C695    1.412   .     A
C686   F786    1.358   .     S
C687   F716    1.356   .     S
C688   F783    1.358   .     S
C689   C691    1.406   .     A
C689   H730    1.083   .     S
C690   C693    1.400   .     A
C690   H719    1.079   .     S
C691   C694    1.406   .     A
C691   C696    1.410   .     A
C692   C709    1.426   .     S
C692   O744    1.291   .     A
C692   O742    1.296   .     A
C693   C697    1.420   .     A
C693   C695    1.416   .     A
C694   C94     1.403   1_556 S
C696   C705    1.427   .     A
C696   C85     1.415   1_556 S
C697   C703    1.439   .     A
C698   C703    1.533   .     S
C698   C699    1.538   .     S
C698   H722    1.101   .     S
C698   H723    1.110   .     S
C699   H721    1.110   .     S
C699   C1108   1.527   1_545 S
C699   H1128   1.112   1_545 S
C700   H737    1.110   .     S
C700   H738    1.111   .     S
C700   C903    1.527   .     S
C700   H940    1.111   .     S
C701   H729    1.102   .     S
C701   C702    1.547   .     S
C701   H731    1.106   .     S
C701   C705    1.532   .     S
C702   H727    1.103   .     S
C702   H728    1.104   .     S
C702   C704    1.524   .     S
C703   C706    1.415   .     A
C704   H726    1.104   .     S
C704   H725    1.110   .     S
C704   H724    1.108   .     S
C705   C707    1.406   .     A
C706   F713    1.360   .     S
C707   C83     1.404   1_556 S
C707   F782    1.357   .     S
C708   C913    1.328   .     S
C708   H936    1.087   .     S
C709   C1116   1.328   1_545 S
C709   H1141   1.088   1_545 S
C710   O745    1.309   .     A
C710   O747    1.300   .     A
Cu711  N740    2.033   .     S
Cu711  O741    1.950   .     S
Cu711  Cu712   2.705   .     S
Cu711  O748    1.894   .     S
Cu711  O745    1.908   .     S
Cu711  O744    1.946   .     S
Cu712  N739    2.033   .     S
Cu712  O747    1.894   .     S
Cu712  O746    1.908   .     S
Cu712  O742    1.950   .     S
Cu712  O743    1.946   .     S
H720   C903    1.112   .     S
H732   C1116   1.087   1_545 S
H733   C913    1.088   .     S
H735   N808    1.029   .     S
H736   C1108   1.111   1_545 S
N739   H802    1.029   .     S
N739   N808    1.289   .     S
C749   C776    1.426   .     S
C749   O811    1.291   .     A
C749   O809    1.296   .     A
C750   C752    1.478   .     S
C750   O816    1.305   .     A
C750   O814    1.308   .     A
C751   C778    1.472   .     S
C751   C757    1.396   .     A
C751   C755    1.403   .     A
C752   C756    1.405   .     A
C752   C758    1.401   .     A
C753   F785    1.358   .     S
C753   C755    1.401   .     A
C753   C762    1.408   .     A
C754   C756    1.397   .     A
C754   C763    1.412   .     A
C754   F650    1.358   1_655 S
C755   F784    1.356   .     S
C756   F647    1.358   1_655 S
C757   C759    1.406   .     A
C757   H798    1.083   .     S
C758   C761    1.400   .     A
C758   H787    1.079   .     S
C759   C762    1.406   .     A
C759   C764    1.410   .     A
C760   C777    1.426   .     S
C760   O812    1.291   .     A
C760   O810    1.296   .     A
C761   C765    1.420   .     A
C761   C763    1.416   .     A
C762   C162    1.403   1_556 S
C764   C773    1.427   .     A
C764   C153    1.415   1_556 S
C765   C771    1.439   .     A
C766   C771    1.533   .     S
C766   C767    1.538   .     S
C766   H790    1.101   .     S
C766   H791    1.110   .     S
C767   H789    1.110   .     S
C767   C1176   1.527   1_545 S
C767   H1196   1.112   1_545 S
C768   H805    1.110   .     S
C768   H806    1.111   .     S
C768   C971    1.527   .     S
C768   H1008   1.111   .     S
C769   H797    1.102   .     S
C769   C770    1.547   .     S
C769   H799    1.106   .     S
C769   C773    1.532   .     S
C770   H795    1.103   .     S
C770   H796    1.104   .     S
C770   C772    1.524   .     S
C771   C774    1.415   .     A
C772   H794    1.104   .     S
C772   H793    1.110   .     S
C772   H792    1.108   .     S
C773   C775    1.406   .     A
C774   F781    1.360   .     S
C775   C151    1.404   1_556 S
C775   F646    1.357   1_655 S
C776   C981    1.328   .     S
C776   H1004   1.087   .     S
C777   C1184   1.328   1_545 S
C777   H1209   1.088   1_545 S
C778   O813    1.309   .     A
C778   O815    1.300   .     A
Cu779  N808    2.033   .     S
Cu779  O809    1.950   .     S
Cu779  Cu780   2.705   .     S
Cu779  O816    1.894   .     S
Cu779  O813    1.908   .     S
Cu779  O812    1.946   .     S
Cu780  N807    2.033   .     S
Cu780  O815    1.894   .     S
Cu780  O814    1.908   .     S
Cu780  O810    1.950   .     S
Cu780  O811    1.946   .     S
H788   C971    1.112   .     S
H800   C1184   1.087   1_545 S
H801   C981    1.088   .     S
H803   N672    1.029   1_655 S
H804   C1176   1.111   1_545 S
N807   H666    1.029   1_655 S
N807   N672    1.289   1_655 S
C817   C844    1.426   .     S
C817   O879    1.291   .     A
C817   O877    1.296   .     A
C818   C820    1.478   .     S
C818   O884    1.305   .     A
C818   O882    1.308   .     A
C819   C846    1.472   .     S
C819   C825    1.396   .     A
C819   C823    1.403   .     A
C820   C824    1.405   .     A
C820   C826    1.401   .     A
C821   F853    1.358   .     S
C821   C823    1.401   .     A
C821   C830    1.408   .     A
C822   C824    1.397   .     A
C822   C831    1.412   .     A
C822   F922    1.358   .     S
C823   F852    1.356   .     S
C824   F919    1.358   .     S
C825   C827    1.406   .     A
C825   H866    1.083   .     S
C826   C829    1.400   .     A
C826   H855    1.079   .     S
C827   C830    1.406   .     A
C827   C832    1.410   .     A
C828   C845    1.426   .     S
C828   O880    1.291   .     A
C828   O878    1.296   .     A
C829   C833    1.420   .     A
C829   C831    1.416   .     A
C830   C230    1.403   1_556 S
C832   C841    1.427   .     A
C832   C221    1.415   1_556 S
C833   C839    1.439   .     A
C834   C839    1.533   .     S
C834   C835    1.538   .     S
C834   H858    1.101   .     S
C834   H859    1.110   .     S
C835   H857    1.110   .     S
C836   H873    1.110   .     S
C836   H874    1.111   .     S
C836   C1039   1.527   .     S
C836   H1076   1.111   .     S
C837   H865    1.102   .     S
C837   C838    1.547   .     S
C837   H867    1.106   .     S
C837   C841    1.532   .     S
C838   H863    1.103   .     S
C838   H864    1.104   .     S
C838   C840    1.524   .     S
C839   C842    1.415   .     A
C840   H862    1.104   .     S
C840   H861    1.110   .     S
C840   H860    1.108   .     S
C841   C843    1.406   .     A
C842   F849    1.360   .     S
C843   C219    1.404   1_556 S
C843   F918    1.357   .     S
C844   C1049   1.328   .     S
C844   H1072   1.087   .     S
C846   O881    1.309   .     A
C846   O883    1.300   .     A
Cu847  N876    2.033   .     S
Cu847  O877    1.950   .     S
Cu847  Cu848   2.705   .     S
Cu847  O884    1.894   .     S
Cu847  O881    1.908   .     S
Cu847  O880    1.946   .     S
Cu848  N875    2.033   .     S
Cu848  O883    1.894   .     S
Cu848  O882    1.908   .     S
Cu848  O878    1.950   .     S
Cu848  O879    1.946   .     S
F850   C979    1.357   1_455 S
F851   C960    1.358   1_455 S
F854   C958    1.358   1_455 S
H856   C1039   1.112   .     S
H869   C1049   1.088   .     S
H870   N1011   1.029   1_455 S
H871   N944    1.029   .     S
N875   H938    1.029   .     S
N875   N944    1.289   .     S
N876   H1007   1.029   1_455 S
N876   N1011   1.289   1_455 S
C885   C912    1.426   .     S
C885   O947    1.291   .     A
C885   O945    1.296   .     A
C886   C888    1.478   .     S
C886   O952    1.305   .     A
C886   O950    1.308   .     A
C887   C914    1.472   .     S
C887   C893    1.396   .     A
C887   C891    1.403   .     A
C888   C892    1.405   .     A
C888   C894    1.401   .     A
C889   F921    1.358   .     S
C889   C891    1.401   .     A
C889   C898    1.408   .     A
C890   C892    1.397   .     A
C890   C899    1.412   .     A
C890   F990    1.358   .     S
C891   F920    1.356   .     S
C892   F987    1.358   .     S
C893   C895    1.406   .     A
C893   H934    1.083   .     S
C894   C897    1.400   .     A
C894   H923    1.079   .     S
C895   C898    1.406   .     A
C895   C900    1.410   .     A
C896   C913    1.426   .     S
C896   O948    1.291   .     A
C896   O946    1.296   .     A
C897   C901    1.420   .     A
C897   C899    1.416   .     A
C898   C298    1.403   1_556 S
C900   C909    1.427   .     A
C900   C289    1.415   1_556 S
C901   C907    1.439   .     A
C902   C907    1.533   .     S
C902   C903    1.538   .     S
C902   H926    1.101   .     S
C902   H927    1.110   .     S
C903   H925    1.110   .     S
C904   H941    1.110   .     S
C904   H942    1.111   .     S
C904   C1107   1.527   .     S
C904   H1144   1.111   .     S
C905   H933    1.102   .     S
C905   C906    1.547   .     S
C905   H935    1.106   .     S
C905   C909    1.532   .     S
C906   H931    1.103   .     S
C906   H932    1.104   .     S
C906   C908    1.524   .     S
C907   C910    1.415   .     A
C908   H930    1.104   .     S
C908   H929    1.110   .     S
C908   H928    1.108   .     S
C909   C911    1.406   .     A
C910   F917    1.360   .     S
C911   C287    1.404   1_556 S
C911   F986    1.357   .     S
C912   C1117   1.328   .     S
C912   H1140   1.087   .     S
C914   O949    1.309   .     A
C914   O951    1.300   .     A
Cu915  N944    2.033   .     S
Cu915  O945    1.950   .     S
Cu915  Cu916   2.705   .     S
Cu915  O952    1.894   .     S
Cu915  O949    1.908   .     S
Cu915  O948    1.946   .     S
Cu916  N943    2.033   .     S
Cu916  O951    1.894   .     S
Cu916  O950    1.908   .     S
Cu916  O946    1.950   .     S
Cu916  O947    1.946   .     S
H924   C1107   1.112   .     S
H937   C1117   1.088   .     S
H939   N1012   1.029   .     S
N943   H1006   1.029   .     S
N943   N1012   1.289   .     S
C953   C980    1.426   .     S
C953   O1015   1.291   .     A
C953   O1013   1.296   .     A
C954   C956    1.478   .     S
C954   O1020   1.305   .     A
C954   O1018   1.308   .     A
C955   C982    1.472   .     S
C955   C961    1.396   .     A
C955   C959    1.403   .     A
C956   C960    1.405   .     A
C956   C962    1.401   .     A
C957   F989    1.358   .     S
C957   C959    1.401   .     A
C957   C966    1.408   .     A
C958   C960    1.397   .     A
C958   C967    1.412   .     A
C958   F854    1.358   1_655 S
C959   F988    1.356   .     S
C960   F851    1.358   1_655 S
C961   C963    1.406   .     A
C961   H1002   1.083   .     S
C962   C965    1.400   .     A
C962   H991    1.079   .     S
C963   C966    1.406   .     A
C963   C968    1.410   .     A
C964   C981    1.426   .     S
C964   O1016   1.291   .     A
C964   O1014   1.296   .     A
C965   C969    1.420   .     A
C965   C967    1.416   .     A
C966   C366    1.403   1_556 S
C968   C977    1.427   .     A
C968   C357    1.415   1_556 S
C969   C975    1.439   .     A
C970   C975    1.533   .     S
C970   C971    1.538   .     S
C970   H994    1.101   .     S
C970   H995    1.110   .     S
C971   H993    1.110   .     S
C972   H1009   1.110   .     S
C972   H1010   1.111   .     S
C972   C1175   1.527   .     S
C972   H1212   1.111   .     S
C973   H1001   1.102   .     S
C973   C974    1.547   .     S
C973   H1003   1.106   .     S
C973   C977    1.532   .     S
C974   H999    1.103   .     S
C974   H1000   1.104   .     S
C974   C976    1.524   .     S
C975   C978    1.415   .     A
C976   H998    1.104   .     S
C976   H997    1.110   .     S
C976   H996    1.108   .     S
C977   C979    1.406   .     A
C978   F985    1.360   .     S
C979   C355    1.404   1_556 S
C979   F850    1.357   1_655 S
C980   C1185   1.328   .     S
C980   H1208   1.087   .     S
C982   O1017   1.309   .     A
C982   O1019   1.300   .     A
Cu983  N1012   2.033   .     S
Cu983  O1013   1.950   .     S
Cu983  Cu984   2.705   .     S
Cu983  O1020   1.894   .     S
Cu983  O1017   1.908   .     S
Cu983  O1016   1.946   .     S
Cu984  N1011   2.033   .     S
Cu984  O1019   1.894   .     S
Cu984  O1018   1.908   .     S
Cu984  O1014   1.950   .     S
Cu984  O1015   1.946   .     S
H992   C1175   1.112   .     S
H1005  C1185   1.088   .     S
H1007  N876    1.029   1_655 S
N1011  H870    1.029   1_655 S
N1011  N876    1.289   1_655 S
C1021  C1048   1.426   .     S
C1021  O1083   1.291   .     A
C1021  O1081   1.296   .     A
C1022  C1024   1.478   .     S
C1022  O1088   1.305   .     A
C1022  O1086   1.308   .     A
C1023  C1050   1.472   .     S
C1023  C1029   1.396   .     A
C1023  C1027   1.403   .     A
C1024  C1028   1.405   .     A
C1024  C1030   1.401   .     A
C1025  F1057   1.358   .     S
C1025  C1027   1.401   .     A
C1025  C1034   1.408   .     A
C1026  C1028   1.397   .     A
C1026  C1035   1.412   .     A
C1026  F1126   1.358   .     S
C1027  F1056   1.356   .     S
C1028  F1123   1.358   .     S
C1029  C1031   1.406   .     A
C1029  H1070   1.083   .     S
C1030  C1033   1.400   .     A
C1030  H1059   1.079   .     S
C1031  C1034   1.406   .     A
C1031  C1036   1.410   .     A
C1032  C1049   1.426   .     S
C1032  O1084   1.291   .     A
C1032  O1082   1.296   .     A
C1033  C1037   1.420   .     A
C1033  C1035   1.416   .     A
C1034  C434    1.403   1_556 S
C1036  C1045   1.427   .     A
C1036  C425    1.415   1_556 S
C1037  C1043   1.439   .     A
C1038  C1043   1.533   .     S
C1038  C1039   1.538   .     S
C1038  H1062   1.101   .     S
C1038  H1063   1.110   .     S
C1039  H1061   1.110   .     S
C1040  H1077   1.110   .     S
C1040  H1078   1.111   .     S
C1040  C631    1.527   1_565 S
C1040  H668    1.111   1_565 S
C1041  H1069   1.102   .     S
C1041  C1042   1.547   .     S
C1041  H1071   1.106   .     S
C1041  C1045   1.532   .     S
C1042  H1067   1.103   .     S
C1042  H1068   1.104   .     S
C1042  C1044   1.524   .     S
C1043  C1046   1.415   .     A
C1044  H1066   1.104   .     S
C1044  H1065   1.110   .     S
C1044  H1064   1.108   .     S
C1045  C1047   1.406   .     A
C1046  F1053   1.360   .     S
C1047  C423    1.404   1_556 S
C1047  F1122   1.357   .     S
C1048  C641    1.328   1_565 S
C1048  H664    1.087   1_565 S
C1050  O1085   1.309   .     A
C1050  O1087   1.300   .     A
Cu1051 N1080   2.033   .     S
Cu1051 O1081   1.950   .     S
Cu1051 Cu1052  2.705   .     S
Cu1051 O1088   1.894   .     S
Cu1051 O1085   1.908   .     S
Cu1051 O1084   1.946   .     S
Cu1052 N1079   2.033   .     S
Cu1052 O1087   1.894   .     S
Cu1052 O1086   1.908   .     S
Cu1052 O1082   1.950   .     S
Cu1052 O1083   1.946   .     S
F1054  C1183   1.357   1_455 S
F1055  C1164   1.358   1_455 S
F1058  C1162   1.358   1_455 S
H1060  C631    1.112   1_565 S
H1073  C641    1.088   1_565 S
H1074  N1215   1.029   1_455 S
H1075  N1148   1.029   .     S
N1079  H1142   1.029   .     S
N1079  N1148   1.289   .     S
N1080  H1211   1.029   1_455 S
N1080  N1215   1.289   1_455 S
C1089  C1116   1.426   .     S
C1089  O1151   1.291   .     A
C1089  O1149   1.296   .     A
C1090  C1092   1.478   .     S
C1090  O1156   1.305   .     A
C1090  O1154   1.308   .     A
C1091  C1118   1.472   .     S
C1091  C1097   1.396   .     A
C1091  C1095   1.403   .     A
C1092  C1096   1.405   .     A
C1092  C1098   1.401   .     A
C1093  F1125   1.358   .     S
C1093  C1095   1.401   .     A
C1093  C1102   1.408   .     A
C1094  C1096   1.397   .     A
C1094  C1103   1.412   .     A
C1094  F1194   1.358   .     S
C1095  F1124   1.356   .     S
C1096  F1191   1.358   .     S
C1097  C1099   1.406   .     A
C1097  H1138   1.083   .     S
C1098  C1101   1.400   .     A
C1098  H1127   1.079   .     S
C1099  C1102   1.406   .     A
C1099  C1104   1.410   .     A
C1100  C1117   1.426   .     S
C1100  O1152   1.291   .     A
C1100  O1150   1.296   .     A
C1101  C1105   1.420   .     A
C1101  C1103   1.416   .     A
C1102  C502    1.403   1_556 S
C1104  C1113   1.427   .     A
C1104  C493    1.415   1_556 S
C1105  C1111   1.439   .     A
C1106  C1111   1.533   .     S
C1106  C1107   1.538   .     S
C1106  H1130   1.101   .     S
C1106  H1131   1.110   .     S
C1107  H1129   1.110   .     S
C1108  H1145   1.110   .     S
C1108  H1146   1.111   .     S
C1108  C699    1.527   1_565 S
C1108  H736    1.111   1_565 S
C1109  H1137   1.102   .     S
C1109  C1110   1.547   .     S
C1109  H1139   1.106   .     S
C1109  C1113   1.532   .     S
C1110  H1135   1.103   .     S
C1110  H1136   1.104   .     S
C1110  C1112   1.524   .     S
C1111  C1114   1.415   .     A
C1112  H1134   1.104   .     S
C1112  H1133   1.110   .     S
C1112  H1132   1.108   .     S
C1113  C1115   1.406   .     A
C1114  F1121   1.360   .     S
C1115  C491    1.404   1_556 S
C1115  F1190   1.357   .     S
C1116  C709    1.328   1_565 S
C1116  H732    1.087   1_565 S
C1118  O1153   1.309   .     A
C1118  O1155   1.300   .     A
Cu1119 N1148   2.033   .     S
Cu1119 O1149   1.950   .     S
Cu1119 Cu1120  2.705   .     S
Cu1119 O1156   1.894   .     S
Cu1119 O1153   1.908   .     S
Cu1119 O1152   1.946   .     S
Cu1120 N1147   2.033   .     S
Cu1120 O1155   1.894   .     S
Cu1120 O1154   1.908   .     S
Cu1120 O1150   1.950   .     S
Cu1120 O1151   1.946   .     S
H1128  C699    1.112   1_565 S
H1141  C709    1.088   1_565 S
H1143  N1216   1.029   .     S
N1147  H1210   1.029   .     S
N1147  N1216   1.289   .     S
C1157  C1184   1.426   .     S
C1157  O1219   1.291   .     A
C1157  O1217   1.296   .     A
C1158  C1160   1.478   .     S
C1158  O1224   1.305   .     A
C1158  O1222   1.308   .     A
C1159  C1186   1.472   .     S
C1159  C1165   1.396   .     A
C1159  C1163   1.403   .     A
C1160  C1164   1.405   .     A
C1160  C1166   1.401   .     A
C1161  F1193   1.358   .     S
C1161  C1163   1.401   .     A
C1161  C1170   1.408   .     A
C1162  C1164   1.397   .     A
C1162  C1171   1.412   .     A
C1162  F1058   1.358   1_655 S
C1163  F1192   1.356   .     S
C1164  F1055   1.358   1_655 S
C1165  C1167   1.406   .     A
C1165  H1206   1.083   .     S
C1166  C1169   1.400   .     A
C1166  H1195   1.079   .     S
C1167  C1170   1.406   .     A
C1167  C1172   1.410   .     A
C1168  C1185   1.426   .     S
C1168  O1220   1.291   .     A
C1168  O1218   1.296   .     A
C1169  C1173   1.420   .     A
C1169  C1171   1.416   .     A
C1170  C570    1.403   1_556 S
C1172  C1181   1.427   .     A
C1172  C561    1.415   1_556 S
C1173  C1179   1.439   .     A
C1174  C1179   1.533   .     S
C1174  C1175   1.538   .     S
C1174  H1198   1.101   .     S
C1174  H1199   1.110   .     S
C1175  H1197   1.110   .     S
C1176  H1213   1.110   .     S
C1176  H1214   1.111   .     S
C1176  C767    1.527   1_565 S
C1176  H804    1.111   1_565 S
C1177  H1205   1.102   .     S
C1177  C1178   1.547   .     S
C1177  H1207   1.106   .     S
C1177  C1181   1.532   .     S
C1178  H1203   1.103   .     S
C1178  H1204   1.104   .     S
C1178  C1180   1.524   .     S
C1179  C1182   1.415   .     A
C1180  H1202   1.104   .     S
C1180  H1201   1.110   .     S
C1180  H1200   1.108   .     S
C1181  C1183   1.406   .     A
C1182  F1189   1.360   .     S
C1183  C559    1.404   1_556 S
C1183  F1054   1.357   1_655 S
C1184  C777    1.328   1_565 S
C1184  H800    1.087   1_565 S
C1186  O1221   1.309   .     A
C1186  O1223   1.300   .     A
Cu1187 N1216   2.033   .     S
Cu1187 O1217   1.950   .     S
Cu1187 Cu1188  2.705   .     S
Cu1187 O1224   1.894   .     S
Cu1187 O1221   1.908   .     S
Cu1187 O1220   1.946   .     S
Cu1188 N1215   2.033   .     S
Cu1188 O1223   1.894   .     S
Cu1188 O1222   1.908   .     S
Cu1188 O1218   1.950   .     S
Cu1188 O1219   1.946   .     S
H1196  C767    1.112   1_565 S
H1209  C777    1.088   1_565 S
H1211  N1080   1.029   1_655 S
N1215  H1074   1.029   1_655 S
N1215  N1080   1.289   1_655 S
