data_str_m2_o2_o5_pcu_sym.117
_audit_creation_date              2020-01-03
_audit_creation_method            'Materials Studio'
_symmetry_space_group_name_H-M    'P1'
_symmetry_Int_Tables_number       1
_symmetry_cell_setting            triclinic
loop_
_symmetry_equiv_pos_as_xyz
  x,y,z
_cell_length_a                    30.2144
_cell_length_b                    27.6599
_cell_length_c                    27.2365
_cell_angle_alpha                 90.0006
_cell_angle_beta                  89.9967
_cell_angle_gamma                 90.0000
loop_
_atom_site_label
_atom_site_type_symbol
_atom_site_fract_x
_atom_site_fract_y
_atom_site_fract_z
_atom_site_U_iso_or_equiv
_atom_site_adp_type
_atom_site_occupancy
O1     O     0.18573   0.29071   0.16667   0.00000  Uiso   1.00
O2     O     0.31427   0.20928   0.16666   0.00000  Uiso   1.00
O3     O     0.31427   0.29071   0.16666   0.00000  Uiso   1.00
O4     O     0.18573   0.20928   0.16667   0.00000  Uiso   1.00
C5     C     0.16497   0.25000   0.16667   0.00000  Uiso   1.00
C6     C     0.33503   0.25000   0.16666   0.00000  Uiso   1.00
O7     O     0.25000   0.29071   0.09613   0.00000  Uiso   1.00
O8     O     0.25000   0.20929   0.23720   0.00000  Uiso   1.00
O9     O     0.25000   0.29071   0.23720   0.00000  Uiso   1.00
O10    O     0.25000   0.20929   0.09613   0.00000  Uiso   1.00
C11    C     0.21730   0.05333   0.19263   0.00000  Uiso   1.00
C12    C     0.21731   0.44667   0.14068   0.00000  Uiso   1.00
C13    C     0.28269   0.05333   0.14070   0.00000  Uiso   1.00
C14    C     0.28268   0.44667   0.19265   0.00000  Uiso   1.00
C15    C     0.25000   0.25000   0.07348   0.00000  Uiso   1.00
C16    C     0.25000   0.25000   0.25985   0.00000  Uiso   1.00
Cu17   Cu    0.25000   0.29821   0.16667   0.00000  Uiso   1.00
Cu18   Cu    0.25000   0.20178   0.16667   0.00000  Uiso   1.00
H19    H     0.19571   0.12521   0.21484   0.00000  Uiso   1.00
H20    H     0.19573   0.37478   0.11847   0.00000  Uiso   1.00
H21    H     0.30429   0.12520   0.11850   0.00000  Uiso   1.00
H22    H     0.30427   0.37479   0.21486   0.00000  Uiso   1.00
N23    N     0.25000   0.12934   0.16667   0.00000  Uiso   1.00
N24    N     0.25000   0.37065   0.16667   0.00000  Uiso   1.00
C25    C     0.24999   0.02733   0.16667   0.00000  Uiso   1.00
C26    C     0.24999   0.47267   0.16667   0.00000  Uiso   1.00
C27    C     0.25000   0.25000   0.02183   0.00000  Uiso   1.00
C28    C     0.25000   0.25000   0.31150   0.00000  Uiso   1.00
C29    C     0.04706   0.27306   0.12890   0.00000  Uiso   1.00
C30    C     0.45294   0.22694   0.12890   0.00000  Uiso   1.00
C31    C     0.45294   0.27306   0.20444   0.00000  Uiso   1.00
C32    C     0.04706   0.22694   0.20444   0.00000  Uiso   1.00
H33    H     0.02877   0.29046   0.09958   0.00000  Uiso   1.00
H34    H     0.47123   0.20953   0.09958   0.00000  Uiso   1.00
H35    H     0.47123   0.29046   0.23375   0.00000  Uiso   1.00
H36    H     0.02877   0.20953   0.23376   0.00000  Uiso   1.00
C37    C     0.09328   0.27323   0.12822   0.00000  Uiso   1.00
C38    C     0.40673   0.22677   0.12822   0.00000  Uiso   1.00
C39    C     0.40672   0.27323   0.20511   0.00000  Uiso   1.00
C40    C     0.09328   0.22677   0.20512   0.00000  Uiso   1.00
C41    C     0.11665   0.25000   0.16667   0.00000  Uiso   1.00
C42    C     0.38335   0.25000   0.16666   0.00000  Uiso   1.00
C43    C     0.02414   0.25000   0.16667   0.00000  Uiso   1.00
C44    C     0.47586   0.25000   0.16667   0.00000  Uiso   1.00
C45    C     0.21903   0.10472   0.19311   0.00000  Uiso   1.00
C46    C     0.21904   0.39528   0.14021   0.00000  Uiso   1.00
C47    C     0.28097   0.10472   0.14022   0.00000  Uiso   1.00
C48    C     0.28096   0.39528   0.19313   0.00000  Uiso   1.00
N49    N     0.11572   0.29578   0.08764   0.00000  Uiso   1.00
O50    O     0.09839   0.33336   0.06627   0.00000  Uiso   1.00
O51    O     0.14952   0.27479   0.06718   0.00000  Uiso   1.00
N52    N     0.38429   0.20421   0.08764   0.00000  Uiso   1.00
O53    O     0.35050   0.22523   0.06716   0.00000  Uiso   1.00
O54    O     0.40161   0.16663   0.06628   0.00000  Uiso   1.00
N55    N     0.38428   0.29578   0.24569   0.00000  Uiso   1.00
O56    O     0.40160   0.33337   0.26704   0.00000  Uiso   1.00
O57    O     0.35049   0.27478   0.26616   0.00000  Uiso   1.00
N58    N     0.11571   0.20422   0.24569   0.00000  Uiso   1.00
O59    O     0.14950   0.22523   0.26617   0.00000  Uiso   1.00
O60    O     0.09839   0.16663   0.26706   0.00000  Uiso   1.00
O61    O     0.18673   0.02746   0.22031   0.00000  Uiso   1.00
C62    C     0.14355   0.04602   0.21424   0.00000  Uiso   1.00
H63    H     0.13635   0.05614   0.17543   0.00000  Uiso   1.00
H64    H     0.13800   0.07718   0.23916   0.00000  Uiso   1.00
H65    H     0.11954   0.01748   0.22473   0.00000  Uiso   1.00
O66    O     0.18676   0.47256   0.11300   0.00000  Uiso   1.00
C67    C     0.14360   0.45387   0.11883   0.00000  Uiso   1.00
H68    H     0.13630   0.44357   0.15756   0.00000  Uiso   1.00
H69    H     0.13819   0.42281   0.09375   0.00000  Uiso   1.00
H70    H     0.11956   0.48240   0.10837   0.00000  Uiso   1.00
O71    O     0.31326   0.02745   0.11302   0.00000  Uiso   1.00
C72    C     0.35644   0.04602   0.11907   0.00000  Uiso   1.00
H73    H     0.36366   0.05615   0.15787   0.00000  Uiso   1.00
H74    H     0.36198   0.07717   0.09413   0.00000  Uiso   1.00
H75    H     0.38045   0.01748   0.10857   0.00000  Uiso   1.00
O76    O     0.31323   0.47256   0.22034   0.00000  Uiso   1.00
C77    C     0.35640   0.45391   0.21446   0.00000  Uiso   1.00
H78    H     0.36370   0.44365   0.17571   0.00000  Uiso   1.00
H79    H     0.36185   0.42283   0.23952   0.00000  Uiso   1.00
H80    H     0.38043   0.48245   0.22493   0.00000  Uiso   1.00
O81    O     0.68573   0.29071   0.16667   0.00000  Uiso   1.00
O82    O     0.81427   0.20928   0.16666   0.00000  Uiso   1.00
O83    O     0.81427   0.29071   0.16666   0.00000  Uiso   1.00
O84    O     0.68573   0.20928   0.16667   0.00000  Uiso   1.00
C85    C     0.66497   0.25000   0.16667   0.00000  Uiso   1.00
C86    C     0.83503   0.25000   0.16666   0.00000  Uiso   1.00
O87    O     0.75000   0.29071   0.09613   0.00000  Uiso   1.00
O88    O     0.75000   0.20929   0.23720   0.00000  Uiso   1.00
O89    O     0.75000   0.29071   0.23720   0.00000  Uiso   1.00
O90    O     0.75000   0.20929   0.09613   0.00000  Uiso   1.00
C91    C     0.71730   0.05333   0.19263   0.00000  Uiso   1.00
C92    C     0.71731   0.44667   0.14068   0.00000  Uiso   1.00
C93    C     0.78269   0.05333   0.14070   0.00000  Uiso   1.00
C94    C     0.78268   0.44667   0.19265   0.00000  Uiso   1.00
C95    C     0.75000   0.25000   0.07348   0.00000  Uiso   1.00
C96    C     0.75000   0.25000   0.25985   0.00000  Uiso   1.00
Cu97   Cu    0.75000   0.29821   0.16667   0.00000  Uiso   1.00
Cu98   Cu    0.75000   0.20178   0.16667   0.00000  Uiso   1.00
H99    H     0.69571   0.12521   0.21484   0.00000  Uiso   1.00
H100   H     0.69573   0.37478   0.11847   0.00000  Uiso   1.00
H101   H     0.80429   0.12520   0.11850   0.00000  Uiso   1.00
H102   H     0.80427   0.37479   0.21486   0.00000  Uiso   1.00
N103   N     0.75000   0.12934   0.16667   0.00000  Uiso   1.00
N104   N     0.75000   0.37065   0.16667   0.00000  Uiso   1.00
C105   C     0.74999   0.02733   0.16667   0.00000  Uiso   1.00
C106   C     0.74999   0.47267   0.16667   0.00000  Uiso   1.00
C107   C     0.75000   0.25000   0.02183   0.00000  Uiso   1.00
C108   C     0.75000   0.25000   0.31150   0.00000  Uiso   1.00
C109   C     0.54706   0.27306   0.12890   0.00000  Uiso   1.00
C110   C     0.95294   0.22694   0.12890   0.00000  Uiso   1.00
C111   C     0.95294   0.27306   0.20444   0.00000  Uiso   1.00
C112   C     0.54706   0.22694   0.20444   0.00000  Uiso   1.00
H113   H     0.52877   0.29046   0.09958   0.00000  Uiso   1.00
H114   H     0.97123   0.20953   0.09958   0.00000  Uiso   1.00
H115   H     0.97123   0.29046   0.23375   0.00000  Uiso   1.00
H116   H     0.52877   0.20953   0.23376   0.00000  Uiso   1.00
C117   C     0.59328   0.27323   0.12822   0.00000  Uiso   1.00
C118   C     0.90673   0.22677   0.12822   0.00000  Uiso   1.00
C119   C     0.90672   0.27323   0.20511   0.00000  Uiso   1.00
C120   C     0.59328   0.22677   0.20512   0.00000  Uiso   1.00
C121   C     0.61665   0.25000   0.16667   0.00000  Uiso   1.00
C122   C     0.88335   0.25000   0.16666   0.00000  Uiso   1.00
C123   C     0.52414   0.25000   0.16667   0.00000  Uiso   1.00
C124   C     0.97586   0.25000   0.16667   0.00000  Uiso   1.00
C125   C     0.71903   0.10472   0.19311   0.00000  Uiso   1.00
C126   C     0.71904   0.39528   0.14021   0.00000  Uiso   1.00
C127   C     0.78097   0.10472   0.14022   0.00000  Uiso   1.00
C128   C     0.78096   0.39528   0.19313   0.00000  Uiso   1.00
N129   N     0.61572   0.29578   0.08764   0.00000  Uiso   1.00
O130   O     0.59839   0.33336   0.06627   0.00000  Uiso   1.00
O131   O     0.64952   0.27479   0.06718   0.00000  Uiso   1.00
N132   N     0.88429   0.20421   0.08764   0.00000  Uiso   1.00
O133   O     0.85050   0.22523   0.06716   0.00000  Uiso   1.00
O134   O     0.90161   0.16663   0.06628   0.00000  Uiso   1.00
N135   N     0.88428   0.29578   0.24569   0.00000  Uiso   1.00
O136   O     0.90160   0.33337   0.26704   0.00000  Uiso   1.00
O137   O     0.85049   0.27478   0.26616   0.00000  Uiso   1.00
N138   N     0.61571   0.20422   0.24569   0.00000  Uiso   1.00
O139   O     0.64950   0.22523   0.26617   0.00000  Uiso   1.00
O140   O     0.59839   0.16663   0.26706   0.00000  Uiso   1.00
O141   O     0.68673   0.02746   0.22031   0.00000  Uiso   1.00
C142   C     0.64355   0.04602   0.21424   0.00000  Uiso   1.00
H143   H     0.63635   0.05614   0.17543   0.00000  Uiso   1.00
H144   H     0.63800   0.07718   0.23916   0.00000  Uiso   1.00
H145   H     0.61954   0.01748   0.22473   0.00000  Uiso   1.00
O146   O     0.68676   0.47256   0.11300   0.00000  Uiso   1.00
C147   C     0.64360   0.45387   0.11883   0.00000  Uiso   1.00
H148   H     0.63630   0.44357   0.15756   0.00000  Uiso   1.00
H149   H     0.63819   0.42281   0.09375   0.00000  Uiso   1.00
H150   H     0.61956   0.48240   0.10837   0.00000  Uiso   1.00
O151   O     0.81326   0.02745   0.11302   0.00000  Uiso   1.00
C152   C     0.85644   0.04602   0.11907   0.00000  Uiso   1.00
H153   H     0.86366   0.05615   0.15787   0.00000  Uiso   1.00
H154   H     0.86198   0.07717   0.09413   0.00000  Uiso   1.00
H155   H     0.88045   0.01748   0.10857   0.00000  Uiso   1.00
O156   O     0.81323   0.47256   0.22034   0.00000  Uiso   1.00
C157   C     0.85640   0.45391   0.21446   0.00000  Uiso   1.00
H158   H     0.86370   0.44365   0.17571   0.00000  Uiso   1.00
H159   H     0.86185   0.42283   0.23952   0.00000  Uiso   1.00
H160   H     0.88043   0.48245   0.22493   0.00000  Uiso   1.00
O161   O     0.18573   0.79071   0.16667   0.00000  Uiso   1.00
O162   O     0.31427   0.70928   0.16666   0.00000  Uiso   1.00
O163   O     0.31427   0.79071   0.16666   0.00000  Uiso   1.00
O164   O     0.18573   0.70928   0.16667   0.00000  Uiso   1.00
C165   C     0.16497   0.75000   0.16667   0.00000  Uiso   1.00
C166   C     0.33503   0.75000   0.16666   0.00000  Uiso   1.00
O167   O     0.25000   0.79071   0.09613   0.00000  Uiso   1.00
O168   O     0.25000   0.70929   0.23720   0.00000  Uiso   1.00
O169   O     0.25000   0.79071   0.23720   0.00000  Uiso   1.00
O170   O     0.25000   0.70929   0.09613   0.00000  Uiso   1.00
C171   C     0.21730   0.55333   0.19263   0.00000  Uiso   1.00
C172   C     0.21731   0.94667   0.14068   0.00000  Uiso   1.00
C173   C     0.28269   0.55333   0.14070   0.00000  Uiso   1.00
C174   C     0.28268   0.94667   0.19265   0.00000  Uiso   1.00
C175   C     0.25000   0.75000   0.07348   0.00000  Uiso   1.00
C176   C     0.25000   0.75000   0.25985   0.00000  Uiso   1.00
Cu177  Cu    0.25000   0.79821   0.16667   0.00000  Uiso   1.00
Cu178  Cu    0.25000   0.70178   0.16667   0.00000  Uiso   1.00
H179   H     0.19571   0.62521   0.21484   0.00000  Uiso   1.00
H180   H     0.19573   0.87478   0.11847   0.00000  Uiso   1.00
H181   H     0.30429   0.62520   0.11850   0.00000  Uiso   1.00
H182   H     0.30427   0.87479   0.21486   0.00000  Uiso   1.00
N183   N     0.25000   0.62934   0.16667   0.00000  Uiso   1.00
N184   N     0.25000   0.87065   0.16667   0.00000  Uiso   1.00
C185   C     0.24999   0.52733   0.16667   0.00000  Uiso   1.00
C186   C     0.24999   0.97267   0.16667   0.00000  Uiso   1.00
C187   C     0.25000   0.75000   0.02183   0.00000  Uiso   1.00
C188   C     0.25000   0.75000   0.31150   0.00000  Uiso   1.00
C189   C     0.04706   0.77306   0.12890   0.00000  Uiso   1.00
C190   C     0.45294   0.72694   0.12890   0.00000  Uiso   1.00
C191   C     0.45294   0.77306   0.20444   0.00000  Uiso   1.00
C192   C     0.04706   0.72694   0.20444   0.00000  Uiso   1.00
H193   H     0.02877   0.79046   0.09958   0.00000  Uiso   1.00
H194   H     0.47123   0.70953   0.09958   0.00000  Uiso   1.00
H195   H     0.47123   0.79046   0.23375   0.00000  Uiso   1.00
H196   H     0.02877   0.70953   0.23376   0.00000  Uiso   1.00
C197   C     0.09328   0.77323   0.12822   0.00000  Uiso   1.00
C198   C     0.40673   0.72677   0.12822   0.00000  Uiso   1.00
C199   C     0.40672   0.77323   0.20511   0.00000  Uiso   1.00
C200   C     0.09328   0.72677   0.20512   0.00000  Uiso   1.00
C201   C     0.11665   0.75000   0.16667   0.00000  Uiso   1.00
C202   C     0.38335   0.75000   0.16666   0.00000  Uiso   1.00
C203   C     0.02414   0.75000   0.16667   0.00000  Uiso   1.00
C204   C     0.47586   0.75000   0.16667   0.00000  Uiso   1.00
C205   C     0.21903   0.60472   0.19311   0.00000  Uiso   1.00
C206   C     0.21904   0.89528   0.14021   0.00000  Uiso   1.00
C207   C     0.28097   0.60472   0.14022   0.00000  Uiso   1.00
C208   C     0.28096   0.89528   0.19313   0.00000  Uiso   1.00
N209   N     0.11572   0.79578   0.08764   0.00000  Uiso   1.00
O210   O     0.09839   0.83336   0.06627   0.00000  Uiso   1.00
O211   O     0.14952   0.77479   0.06718   0.00000  Uiso   1.00
N212   N     0.38429   0.70421   0.08764   0.00000  Uiso   1.00
O213   O     0.35050   0.72523   0.06716   0.00000  Uiso   1.00
O214   O     0.40161   0.66663   0.06628   0.00000  Uiso   1.00
N215   N     0.38428   0.79578   0.24569   0.00000  Uiso   1.00
O216   O     0.40160   0.83337   0.26704   0.00000  Uiso   1.00
O217   O     0.35049   0.77478   0.26616   0.00000  Uiso   1.00
N218   N     0.11571   0.70422   0.24569   0.00000  Uiso   1.00
O219   O     0.14950   0.72523   0.26617   0.00000  Uiso   1.00
O220   O     0.09839   0.66663   0.26706   0.00000  Uiso   1.00
O221   O     0.18673   0.52746   0.22031   0.00000  Uiso   1.00
C222   C     0.14355   0.54602   0.21424   0.00000  Uiso   1.00
H223   H     0.13635   0.55614   0.17543   0.00000  Uiso   1.00
H224   H     0.13800   0.57718   0.23916   0.00000  Uiso   1.00
H225   H     0.11954   0.51748   0.22473   0.00000  Uiso   1.00
O226   O     0.18676   0.97256   0.11300   0.00000  Uiso   1.00
C227   C     0.14360   0.95387   0.11883   0.00000  Uiso   1.00
H228   H     0.13630   0.94357   0.15756   0.00000  Uiso   1.00
H229   H     0.13819   0.92281   0.09375   0.00000  Uiso   1.00
H230   H     0.11956   0.98240   0.10837   0.00000  Uiso   1.00
O231   O     0.31326   0.52745   0.11302   0.00000  Uiso   1.00
C232   C     0.35644   0.54602   0.11907   0.00000  Uiso   1.00
H233   H     0.36366   0.55615   0.15787   0.00000  Uiso   1.00
H234   H     0.36198   0.57717   0.09413   0.00000  Uiso   1.00
H235   H     0.38045   0.51748   0.10857   0.00000  Uiso   1.00
O236   O     0.31323   0.97256   0.22034   0.00000  Uiso   1.00
C237   C     0.35640   0.95391   0.21446   0.00000  Uiso   1.00
H238   H     0.36370   0.94365   0.17571   0.00000  Uiso   1.00
H239   H     0.36185   0.92283   0.23952   0.00000  Uiso   1.00
H240   H     0.38043   0.98245   0.22493   0.00000  Uiso   1.00
O241   O     0.68573   0.79071   0.16667   0.00000  Uiso   1.00
O242   O     0.81427   0.70928   0.16666   0.00000  Uiso   1.00
O243   O     0.81427   0.79071   0.16666   0.00000  Uiso   1.00
O244   O     0.68573   0.70928   0.16667   0.00000  Uiso   1.00
C245   C     0.66497   0.75000   0.16667   0.00000  Uiso   1.00
C246   C     0.83503   0.75000   0.16666   0.00000  Uiso   1.00
O247   O     0.75000   0.79071   0.09613   0.00000  Uiso   1.00
O248   O     0.75000   0.70929   0.23720   0.00000  Uiso   1.00
O249   O     0.75000   0.79071   0.23720   0.00000  Uiso   1.00
O250   O     0.75000   0.70929   0.09613   0.00000  Uiso   1.00
C251   C     0.71730   0.55333   0.19263   0.00000  Uiso   1.00
C252   C     0.71731   0.94667   0.14068   0.00000  Uiso   1.00
C253   C     0.78269   0.55333   0.14070   0.00000  Uiso   1.00
C254   C     0.78268   0.94667   0.19265   0.00000  Uiso   1.00
C255   C     0.75000   0.75000   0.07348   0.00000  Uiso   1.00
C256   C     0.75000   0.75000   0.25985   0.00000  Uiso   1.00
Cu257  Cu    0.75000   0.79821   0.16667   0.00000  Uiso   1.00
Cu258  Cu    0.75000   0.70178   0.16667   0.00000  Uiso   1.00
H259   H     0.69571   0.62521   0.21484   0.00000  Uiso   1.00
H260   H     0.69573   0.87478   0.11847   0.00000  Uiso   1.00
H261   H     0.80429   0.62520   0.11850   0.00000  Uiso   1.00
H262   H     0.80427   0.87479   0.21486   0.00000  Uiso   1.00
N263   N     0.75000   0.62934   0.16667   0.00000  Uiso   1.00
N264   N     0.75000   0.87065   0.16667   0.00000  Uiso   1.00
C265   C     0.74999   0.52733   0.16667   0.00000  Uiso   1.00
C266   C     0.74999   0.97267   0.16667   0.00000  Uiso   1.00
C267   C     0.75000   0.75000   0.02183   0.00000  Uiso   1.00
C268   C     0.75000   0.75000   0.31150   0.00000  Uiso   1.00
C269   C     0.54706   0.77306   0.12890   0.00000  Uiso   1.00
C270   C     0.95294   0.72694   0.12890   0.00000  Uiso   1.00
C271   C     0.95294   0.77306   0.20444   0.00000  Uiso   1.00
C272   C     0.54706   0.72694   0.20444   0.00000  Uiso   1.00
H273   H     0.52877   0.79046   0.09958   0.00000  Uiso   1.00
H274   H     0.97123   0.70953   0.09958   0.00000  Uiso   1.00
H275   H     0.97123   0.79046   0.23375   0.00000  Uiso   1.00
H276   H     0.52877   0.70953   0.23376   0.00000  Uiso   1.00
C277   C     0.59328   0.77323   0.12822   0.00000  Uiso   1.00
C278   C     0.90673   0.72677   0.12822   0.00000  Uiso   1.00
C279   C     0.90672   0.77323   0.20511   0.00000  Uiso   1.00
C280   C     0.59328   0.72677   0.20512   0.00000  Uiso   1.00
C281   C     0.61665   0.75000   0.16667   0.00000  Uiso   1.00
C282   C     0.88335   0.75000   0.16666   0.00000  Uiso   1.00
C283   C     0.52414   0.75000   0.16667   0.00000  Uiso   1.00
C284   C     0.97586   0.75000   0.16667   0.00000  Uiso   1.00
C285   C     0.71903   0.60472   0.19311   0.00000  Uiso   1.00
C286   C     0.71904   0.89528   0.14021   0.00000  Uiso   1.00
C287   C     0.78097   0.60472   0.14022   0.00000  Uiso   1.00
C288   C     0.78096   0.89528   0.19313   0.00000  Uiso   1.00
N289   N     0.61572   0.79578   0.08764   0.00000  Uiso   1.00
O290   O     0.59839   0.83336   0.06627   0.00000  Uiso   1.00
O291   O     0.64952   0.77479   0.06718   0.00000  Uiso   1.00
N292   N     0.88429   0.70421   0.08764   0.00000  Uiso   1.00
O293   O     0.85050   0.72523   0.06716   0.00000  Uiso   1.00
O294   O     0.90161   0.66663   0.06628   0.00000  Uiso   1.00
N295   N     0.88428   0.79578   0.24569   0.00000  Uiso   1.00
O296   O     0.90160   0.83337   0.26704   0.00000  Uiso   1.00
O297   O     0.85049   0.77478   0.26616   0.00000  Uiso   1.00
N298   N     0.61571   0.70422   0.24569   0.00000  Uiso   1.00
O299   O     0.64950   0.72523   0.26617   0.00000  Uiso   1.00
O300   O     0.59839   0.66663   0.26706   0.00000  Uiso   1.00
O301   O     0.68673   0.52746   0.22031   0.00000  Uiso   1.00
C302   C     0.64355   0.54602   0.21424   0.00000  Uiso   1.00
H303   H     0.63635   0.55614   0.17543   0.00000  Uiso   1.00
H304   H     0.63800   0.57718   0.23916   0.00000  Uiso   1.00
H305   H     0.61954   0.51748   0.22473   0.00000  Uiso   1.00
O306   O     0.68676   0.97256   0.11300   0.00000  Uiso   1.00
C307   C     0.64360   0.95387   0.11883   0.00000  Uiso   1.00
H308   H     0.63630   0.94357   0.15756   0.00000  Uiso   1.00
H309   H     0.63819   0.92281   0.09375   0.00000  Uiso   1.00
H310   H     0.61956   0.98240   0.10837   0.00000  Uiso   1.00
O311   O     0.81326   0.52745   0.11302   0.00000  Uiso   1.00
C312   C     0.85644   0.54602   0.11907   0.00000  Uiso   1.00
H313   H     0.86366   0.55615   0.15787   0.00000  Uiso   1.00
H314   H     0.86198   0.57717   0.09413   0.00000  Uiso   1.00
H315   H     0.88045   0.51748   0.10857   0.00000  Uiso   1.00
O316   O     0.81323   0.97256   0.22034   0.00000  Uiso   1.00
C317   C     0.85640   0.95391   0.21446   0.00000  Uiso   1.00
H318   H     0.86370   0.94365   0.17571   0.00000  Uiso   1.00
H319   H     0.86185   0.92283   0.23952   0.00000  Uiso   1.00
H320   H     0.88043   0.98245   0.22493   0.00000  Uiso   1.00
O321   O     0.18573   0.29071   0.50000   0.00000  Uiso   1.00
O322   O     0.31427   0.20928   0.50000   0.00000  Uiso   1.00
O323   O     0.31427   0.29071   0.50000   0.00000  Uiso   1.00
O324   O     0.18573   0.20928   0.50000   0.00000  Uiso   1.00
C325   C     0.16497   0.25000   0.50000   0.00000  Uiso   1.00
C326   C     0.33503   0.25000   0.50000   0.00000  Uiso   1.00
O327   O     0.25000   0.29071   0.42946   0.00000  Uiso   1.00
O328   O     0.25000   0.20929   0.57054   0.00000  Uiso   1.00
O329   O     0.25000   0.29071   0.57054   0.00000  Uiso   1.00
O330   O     0.25000   0.20929   0.42946   0.00000  Uiso   1.00
C331   C     0.21730   0.05333   0.52597   0.00000  Uiso   1.00
C332   C     0.21731   0.44667   0.47402   0.00000  Uiso   1.00
C333   C     0.28269   0.05333   0.47403   0.00000  Uiso   1.00
C334   C     0.28268   0.44667   0.52598   0.00000  Uiso   1.00
C335   C     0.25000   0.25000   0.40682   0.00000  Uiso   1.00
C336   C     0.25000   0.25000   0.59318   0.00000  Uiso   1.00
Cu337  Cu    0.25000   0.29821   0.50000   0.00000  Uiso   1.00
Cu338  Cu    0.25000   0.20178   0.50000   0.00000  Uiso   1.00
H339   H     0.19571   0.12521   0.54817   0.00000  Uiso   1.00
H340   H     0.19573   0.37478   0.45181   0.00000  Uiso   1.00
H341   H     0.30429   0.12520   0.45183   0.00000  Uiso   1.00
H342   H     0.30427   0.37479   0.54819   0.00000  Uiso   1.00
N343   N     0.25000   0.12934   0.50000   0.00000  Uiso   1.00
N344   N     0.25000   0.37065   0.50000   0.00000  Uiso   1.00
C345   C     0.24999   0.02733   0.50000   0.00000  Uiso   1.00
C346   C     0.24999   0.47267   0.50000   0.00000  Uiso   1.00
C347   C     0.25000   0.25000   0.35516   0.00000  Uiso   1.00
C348   C     0.25000   0.25000   0.64484   0.00000  Uiso   1.00
C349   C     0.04706   0.27306   0.46223   0.00000  Uiso   1.00
C350   C     0.45294   0.22694   0.46223   0.00000  Uiso   1.00
C351   C     0.45294   0.27306   0.53777   0.00000  Uiso   1.00
C352   C     0.04706   0.22694   0.53777   0.00000  Uiso   1.00
H353   H     0.02877   0.29046   0.43291   0.00000  Uiso   1.00
H354   H     0.47123   0.20953   0.43291   0.00000  Uiso   1.00
H355   H     0.47123   0.29046   0.56709   0.00000  Uiso   1.00
H356   H     0.02877   0.20953   0.56709   0.00000  Uiso   1.00
C357   C     0.09328   0.27323   0.46155   0.00000  Uiso   1.00
C358   C     0.40673   0.22677   0.46155   0.00000  Uiso   1.00
C359   C     0.40672   0.27323   0.53844   0.00000  Uiso   1.00
C360   C     0.09328   0.22677   0.53845   0.00000  Uiso   1.00
C361   C     0.11665   0.25000   0.50000   0.00000  Uiso   1.00
C362   C     0.38335   0.25000   0.50000   0.00000  Uiso   1.00
C363   C     0.02414   0.25000   0.50000   0.00000  Uiso   1.00
C364   C     0.47586   0.25000   0.50000   0.00000  Uiso   1.00
C365   C     0.21903   0.10472   0.52644   0.00000  Uiso   1.00
C366   C     0.21904   0.39528   0.47354   0.00000  Uiso   1.00
C367   C     0.28097   0.10472   0.47356   0.00000  Uiso   1.00
C368   C     0.28096   0.39528   0.52646   0.00000  Uiso   1.00
N369   N     0.11572   0.29578   0.42098   0.00000  Uiso   1.00
O370   O     0.09839   0.33336   0.39960   0.00000  Uiso   1.00
O371   O     0.14952   0.27479   0.40051   0.00000  Uiso   1.00
N372   N     0.38429   0.20421   0.42098   0.00000  Uiso   1.00
O373   O     0.35050   0.22523   0.40050   0.00000  Uiso   1.00
O374   O     0.40161   0.16663   0.39961   0.00000  Uiso   1.00
N375   N     0.38428   0.29578   0.57902   0.00000  Uiso   1.00
O376   O     0.40160   0.33337   0.60038   0.00000  Uiso   1.00
O377   O     0.35049   0.27478   0.59949   0.00000  Uiso   1.00
N378   N     0.11571   0.20422   0.57903   0.00000  Uiso   1.00
O379   O     0.14950   0.22523   0.59951   0.00000  Uiso   1.00
O380   O     0.09839   0.16663   0.60039   0.00000  Uiso   1.00
O381   O     0.18673   0.02746   0.55364   0.00000  Uiso   1.00
C382   C     0.14355   0.04602   0.54757   0.00000  Uiso   1.00
H383   H     0.13635   0.05614   0.50876   0.00000  Uiso   1.00
H384   H     0.13800   0.07718   0.57249   0.00000  Uiso   1.00
H385   H     0.11954   0.01748   0.55807   0.00000  Uiso   1.00
O386   O     0.18676   0.47256   0.44633   0.00000  Uiso   1.00
C387   C     0.14360   0.45387   0.45216   0.00000  Uiso   1.00
H388   H     0.13630   0.44357   0.49089   0.00000  Uiso   1.00
H389   H     0.13819   0.42281   0.42708   0.00000  Uiso   1.00
H390   H     0.11956   0.48240   0.44170   0.00000  Uiso   1.00
O391   O     0.31326   0.02745   0.44636   0.00000  Uiso   1.00
C392   C     0.35644   0.04602   0.45240   0.00000  Uiso   1.00
H393   H     0.36366   0.05615   0.49120   0.00000  Uiso   1.00
H394   H     0.36198   0.07717   0.42746   0.00000  Uiso   1.00
H395   H     0.38045   0.01748   0.44191   0.00000  Uiso   1.00
O396   O     0.31323   0.47256   0.55367   0.00000  Uiso   1.00
C397   C     0.35640   0.45391   0.54780   0.00000  Uiso   1.00
H398   H     0.36370   0.44365   0.50905   0.00000  Uiso   1.00
H399   H     0.36185   0.42283   0.57285   0.00000  Uiso   1.00
H400   H     0.38043   0.48245   0.55827   0.00000  Uiso   1.00
O401   O     0.68573   0.29071   0.50000   0.00000  Uiso   1.00
O402   O     0.81427   0.20928   0.50000   0.00000  Uiso   1.00
O403   O     0.81427   0.29071   0.50000   0.00000  Uiso   1.00
O404   O     0.68573   0.20928   0.50000   0.00000  Uiso   1.00
C405   C     0.66497   0.25000   0.50000   0.00000  Uiso   1.00
C406   C     0.83503   0.25000   0.50000   0.00000  Uiso   1.00
O407   O     0.75000   0.29071   0.42946   0.00000  Uiso   1.00
O408   O     0.75000   0.20929   0.57054   0.00000  Uiso   1.00
O409   O     0.75000   0.29071   0.57054   0.00000  Uiso   1.00
O410   O     0.75000   0.20929   0.42946   0.00000  Uiso   1.00
C411   C     0.71730   0.05333   0.52597   0.00000  Uiso   1.00
C412   C     0.71731   0.44667   0.47402   0.00000  Uiso   1.00
C413   C     0.78269   0.05333   0.47403   0.00000  Uiso   1.00
C414   C     0.78268   0.44667   0.52598   0.00000  Uiso   1.00
C415   C     0.75000   0.25000   0.40682   0.00000  Uiso   1.00
C416   C     0.75000   0.25000   0.59318   0.00000  Uiso   1.00
Cu417  Cu    0.75000   0.29821   0.50000   0.00000  Uiso   1.00
Cu418  Cu    0.75000   0.20178   0.50000   0.00000  Uiso   1.00
H419   H     0.69571   0.12521   0.54817   0.00000  Uiso   1.00
H420   H     0.69573   0.37478   0.45181   0.00000  Uiso   1.00
H421   H     0.80429   0.12520   0.45183   0.00000  Uiso   1.00
H422   H     0.80427   0.37479   0.54819   0.00000  Uiso   1.00
N423   N     0.75000   0.12934   0.50000   0.00000  Uiso   1.00
N424   N     0.75000   0.37065   0.50000   0.00000  Uiso   1.00
C425   C     0.74999   0.02733   0.50000   0.00000  Uiso   1.00
C426   C     0.74999   0.47267   0.50000   0.00000  Uiso   1.00
C427   C     0.75000   0.25000   0.35516   0.00000  Uiso   1.00
C428   C     0.75000   0.25000   0.64484   0.00000  Uiso   1.00
C429   C     0.54706   0.27306   0.46223   0.00000  Uiso   1.00
C430   C     0.95294   0.22694   0.46223   0.00000  Uiso   1.00
C431   C     0.95294   0.27306   0.53777   0.00000  Uiso   1.00
C432   C     0.54706   0.22694   0.53777   0.00000  Uiso   1.00
H433   H     0.52877   0.29046   0.43291   0.00000  Uiso   1.00
H434   H     0.97123   0.20953   0.43291   0.00000  Uiso   1.00
H435   H     0.97123   0.29046   0.56709   0.00000  Uiso   1.00
H436   H     0.52877   0.20953   0.56709   0.00000  Uiso   1.00
C437   C     0.59328   0.27323   0.46155   0.00000  Uiso   1.00
C438   C     0.90673   0.22677   0.46155   0.00000  Uiso   1.00
C439   C     0.90672   0.27323   0.53844   0.00000  Uiso   1.00
C440   C     0.59328   0.22677   0.53845   0.00000  Uiso   1.00
C441   C     0.61665   0.25000   0.50000   0.00000  Uiso   1.00
C442   C     0.88335   0.25000   0.50000   0.00000  Uiso   1.00
C443   C     0.52414   0.25000   0.50000   0.00000  Uiso   1.00
C444   C     0.97586   0.25000   0.50000   0.00000  Uiso   1.00
C445   C     0.71903   0.10472   0.52644   0.00000  Uiso   1.00
C446   C     0.71904   0.39528   0.47354   0.00000  Uiso   1.00
C447   C     0.78097   0.10472   0.47356   0.00000  Uiso   1.00
C448   C     0.78096   0.39528   0.52646   0.00000  Uiso   1.00
N449   N     0.61572   0.29578   0.42098   0.00000  Uiso   1.00
O450   O     0.59839   0.33336   0.39960   0.00000  Uiso   1.00
O451   O     0.64952   0.27479   0.40051   0.00000  Uiso   1.00
N452   N     0.88429   0.20421   0.42098   0.00000  Uiso   1.00
O453   O     0.85050   0.22523   0.40050   0.00000  Uiso   1.00
O454   O     0.90161   0.16663   0.39961   0.00000  Uiso   1.00
N455   N     0.88428   0.29578   0.57902   0.00000  Uiso   1.00
O456   O     0.90160   0.33337   0.60038   0.00000  Uiso   1.00
O457   O     0.85049   0.27478   0.59949   0.00000  Uiso   1.00
N458   N     0.61571   0.20422   0.57903   0.00000  Uiso   1.00
O459   O     0.64950   0.22523   0.59951   0.00000  Uiso   1.00
O460   O     0.59839   0.16663   0.60039   0.00000  Uiso   1.00
O461   O     0.68673   0.02746   0.55364   0.00000  Uiso   1.00
C462   C     0.64355   0.04602   0.54757   0.00000  Uiso   1.00
H463   H     0.63635   0.05614   0.50876   0.00000  Uiso   1.00
H464   H     0.63800   0.07718   0.57249   0.00000  Uiso   1.00
H465   H     0.61954   0.01748   0.55807   0.00000  Uiso   1.00
O466   O     0.68676   0.47256   0.44633   0.00000  Uiso   1.00
C467   C     0.64360   0.45387   0.45216   0.00000  Uiso   1.00
H468   H     0.63630   0.44357   0.49089   0.00000  Uiso   1.00
H469   H     0.63819   0.42281   0.42708   0.00000  Uiso   1.00
H470   H     0.61956   0.48240   0.44170   0.00000  Uiso   1.00
O471   O     0.81326   0.02745   0.44636   0.00000  Uiso   1.00
C472   C     0.85644   0.04602   0.45240   0.00000  Uiso   1.00
H473   H     0.86366   0.05615   0.49120   0.00000  Uiso   1.00
H474   H     0.86198   0.07717   0.42746   0.00000  Uiso   1.00
H475   H     0.88045   0.01748   0.44191   0.00000  Uiso   1.00
O476   O     0.81323   0.47256   0.55367   0.00000  Uiso   1.00
C477   C     0.85640   0.45391   0.54780   0.00000  Uiso   1.00
H478   H     0.86370   0.44365   0.50905   0.00000  Uiso   1.00
H479   H     0.86185   0.42283   0.57285   0.00000  Uiso   1.00
H480   H     0.88043   0.48245   0.55827   0.00000  Uiso   1.00
O481   O     0.18573   0.79071   0.50000   0.00000  Uiso   1.00
O482   O     0.31427   0.70928   0.50000   0.00000  Uiso   1.00
O483   O     0.31427   0.79071   0.50000   0.00000  Uiso   1.00
O484   O     0.18573   0.70928   0.50000   0.00000  Uiso   1.00
C485   C     0.16497   0.75000   0.50000   0.00000  Uiso   1.00
C486   C     0.33503   0.75000   0.50000   0.00000  Uiso   1.00
O487   O     0.25000   0.79071   0.42946   0.00000  Uiso   1.00
O488   O     0.25000   0.70929   0.57054   0.00000  Uiso   1.00
O489   O     0.25000   0.79071   0.57054   0.00000  Uiso   1.00
O490   O     0.25000   0.70929   0.42946   0.00000  Uiso   1.00
C491   C     0.21730   0.55333   0.52597   0.00000  Uiso   1.00
C492   C     0.21731   0.94667   0.47402   0.00000  Uiso   1.00
C493   C     0.28269   0.55333   0.47403   0.00000  Uiso   1.00
C494   C     0.28268   0.94667   0.52598   0.00000  Uiso   1.00
C495   C     0.25000   0.75000   0.40682   0.00000  Uiso   1.00
C496   C     0.25000   0.75000   0.59318   0.00000  Uiso   1.00
Cu497  Cu    0.25000   0.79821   0.50000   0.00000  Uiso   1.00
Cu498  Cu    0.25000   0.70178   0.50000   0.00000  Uiso   1.00
H499   H     0.19571   0.62521   0.54817   0.00000  Uiso   1.00
H500   H     0.19573   0.87478   0.45181   0.00000  Uiso   1.00
H501   H     0.30429   0.62520   0.45183   0.00000  Uiso   1.00
H502   H     0.30427   0.87479   0.54819   0.00000  Uiso   1.00
N503   N     0.25000   0.62934   0.50000   0.00000  Uiso   1.00
N504   N     0.25000   0.87065   0.50000   0.00000  Uiso   1.00
C505   C     0.24999   0.52733   0.50000   0.00000  Uiso   1.00
C506   C     0.24999   0.97267   0.50000   0.00000  Uiso   1.00
C507   C     0.25000   0.75000   0.35516   0.00000  Uiso   1.00
C508   C     0.25000   0.75000   0.64484   0.00000  Uiso   1.00
C509   C     0.04706   0.77306   0.46223   0.00000  Uiso   1.00
C510   C     0.45294   0.72694   0.46223   0.00000  Uiso   1.00
C511   C     0.45294   0.77306   0.53777   0.00000  Uiso   1.00
C512   C     0.04706   0.72694   0.53777   0.00000  Uiso   1.00
H513   H     0.02877   0.79046   0.43291   0.00000  Uiso   1.00
H514   H     0.47123   0.70953   0.43291   0.00000  Uiso   1.00
H515   H     0.47123   0.79046   0.56709   0.00000  Uiso   1.00
H516   H     0.02877   0.70953   0.56709   0.00000  Uiso   1.00
C517   C     0.09328   0.77323   0.46155   0.00000  Uiso   1.00
C518   C     0.40673   0.72677   0.46155   0.00000  Uiso   1.00
C519   C     0.40672   0.77323   0.53844   0.00000  Uiso   1.00
C520   C     0.09328   0.72677   0.53845   0.00000  Uiso   1.00
C521   C     0.11665   0.75000   0.50000   0.00000  Uiso   1.00
C522   C     0.38335   0.75000   0.50000   0.00000  Uiso   1.00
C523   C     0.02414   0.75000   0.50000   0.00000  Uiso   1.00
C524   C     0.47586   0.75000   0.50000   0.00000  Uiso   1.00
C525   C     0.21903   0.60472   0.52644   0.00000  Uiso   1.00
C526   C     0.21904   0.89528   0.47354   0.00000  Uiso   1.00
C527   C     0.28097   0.60472   0.47356   0.00000  Uiso   1.00
C528   C     0.28096   0.89528   0.52646   0.00000  Uiso   1.00
N529   N     0.11572   0.79578   0.42098   0.00000  Uiso   1.00
O530   O     0.09839   0.83336   0.39960   0.00000  Uiso   1.00
O531   O     0.14952   0.77479   0.40051   0.00000  Uiso   1.00
N532   N     0.38429   0.70421   0.42098   0.00000  Uiso   1.00
O533   O     0.35050   0.72523   0.40050   0.00000  Uiso   1.00
O534   O     0.40161   0.66663   0.39961   0.00000  Uiso   1.00
N535   N     0.38428   0.79578   0.57902   0.00000  Uiso   1.00
O536   O     0.40160   0.83337   0.60038   0.00000  Uiso   1.00
O537   O     0.35049   0.77478   0.59949   0.00000  Uiso   1.00
N538   N     0.11571   0.70422   0.57903   0.00000  Uiso   1.00
O539   O     0.14950   0.72523   0.59951   0.00000  Uiso   1.00
O540   O     0.09839   0.66663   0.60039   0.00000  Uiso   1.00
O541   O     0.18673   0.52746   0.55364   0.00000  Uiso   1.00
C542   C     0.14355   0.54602   0.54757   0.00000  Uiso   1.00
H543   H     0.13635   0.55614   0.50876   0.00000  Uiso   1.00
H544   H     0.13800   0.57718   0.57249   0.00000  Uiso   1.00
H545   H     0.11954   0.51748   0.55807   0.00000  Uiso   1.00
O546   O     0.18676   0.97256   0.44633   0.00000  Uiso   1.00
C547   C     0.14360   0.95387   0.45216   0.00000  Uiso   1.00
H548   H     0.13630   0.94357   0.49089   0.00000  Uiso   1.00
H549   H     0.13819   0.92281   0.42708   0.00000  Uiso   1.00
H550   H     0.11956   0.98240   0.44170   0.00000  Uiso   1.00
O551   O     0.31326   0.52745   0.44636   0.00000  Uiso   1.00
C552   C     0.35644   0.54602   0.45240   0.00000  Uiso   1.00
H553   H     0.36366   0.55615   0.49120   0.00000  Uiso   1.00
H554   H     0.36198   0.57717   0.42746   0.00000  Uiso   1.00
H555   H     0.38045   0.51748   0.44191   0.00000  Uiso   1.00
O556   O     0.31323   0.97256   0.55367   0.00000  Uiso   1.00
C557   C     0.35640   0.95391   0.54780   0.00000  Uiso   1.00
H558   H     0.36370   0.94365   0.50905   0.00000  Uiso   1.00
H559   H     0.36185   0.92283   0.57285   0.00000  Uiso   1.00
H560   H     0.38043   0.98245   0.55827   0.00000  Uiso   1.00
O561   O     0.68573   0.79071   0.50000   0.00000  Uiso   1.00
O562   O     0.81427   0.70928   0.50000   0.00000  Uiso   1.00
O563   O     0.81427   0.79071   0.50000   0.00000  Uiso   1.00
O564   O     0.68573   0.70928   0.50000   0.00000  Uiso   1.00
C565   C     0.66497   0.75000   0.50000   0.00000  Uiso   1.00
C566   C     0.83503   0.75000   0.50000   0.00000  Uiso   1.00
O567   O     0.75000   0.79071   0.42946   0.00000  Uiso   1.00
O568   O     0.75000   0.70929   0.57054   0.00000  Uiso   1.00
O569   O     0.75000   0.79071   0.57054   0.00000  Uiso   1.00
O570   O     0.75000   0.70929   0.42946   0.00000  Uiso   1.00
C571   C     0.71730   0.55333   0.52597   0.00000  Uiso   1.00
C572   C     0.71731   0.94667   0.47402   0.00000  Uiso   1.00
C573   C     0.78269   0.55333   0.47403   0.00000  Uiso   1.00
C574   C     0.78268   0.94667   0.52598   0.00000  Uiso   1.00
C575   C     0.75000   0.75000   0.40682   0.00000  Uiso   1.00
C576   C     0.75000   0.75000   0.59318   0.00000  Uiso   1.00
Cu577  Cu    0.75000   0.79821   0.50000   0.00000  Uiso   1.00
Cu578  Cu    0.75000   0.70178   0.50000   0.00000  Uiso   1.00
H579   H     0.69571   0.62521   0.54817   0.00000  Uiso   1.00
H580   H     0.69573   0.87478   0.45181   0.00000  Uiso   1.00
H581   H     0.80429   0.62520   0.45183   0.00000  Uiso   1.00
H582   H     0.80427   0.87479   0.54819   0.00000  Uiso   1.00
N583   N     0.75000   0.62934   0.50000   0.00000  Uiso   1.00
N584   N     0.75000   0.87065   0.50000   0.00000  Uiso   1.00
C585   C     0.74999   0.52733   0.50000   0.00000  Uiso   1.00
C586   C     0.74999   0.97267   0.50000   0.00000  Uiso   1.00
C587   C     0.75000   0.75000   0.35516   0.00000  Uiso   1.00
C588   C     0.75000   0.75000   0.64484   0.00000  Uiso   1.00
C589   C     0.54706   0.77306   0.46223   0.00000  Uiso   1.00
C590   C     0.95294   0.72694   0.46223   0.00000  Uiso   1.00
C591   C     0.95294   0.77306   0.53777   0.00000  Uiso   1.00
C592   C     0.54706   0.72694   0.53777   0.00000  Uiso   1.00
H593   H     0.52877   0.79046   0.43291   0.00000  Uiso   1.00
H594   H     0.97123   0.70953   0.43291   0.00000  Uiso   1.00
H595   H     0.97123   0.79046   0.56709   0.00000  Uiso   1.00
H596   H     0.52877   0.70953   0.56709   0.00000  Uiso   1.00
C597   C     0.59328   0.77323   0.46155   0.00000  Uiso   1.00
C598   C     0.90673   0.72677   0.46155   0.00000  Uiso   1.00
C599   C     0.90672   0.77323   0.53844   0.00000  Uiso   1.00
C600   C     0.59328   0.72677   0.53845   0.00000  Uiso   1.00
C601   C     0.61665   0.75000   0.50000   0.00000  Uiso   1.00
C602   C     0.88335   0.75000   0.50000   0.00000  Uiso   1.00
C603   C     0.52414   0.75000   0.50000   0.00000  Uiso   1.00
C604   C     0.97586   0.75000   0.50000   0.00000  Uiso   1.00
C605   C     0.71903   0.60472   0.52644   0.00000  Uiso   1.00
C606   C     0.71904   0.89528   0.47354   0.00000  Uiso   1.00
C607   C     0.78097   0.60472   0.47356   0.00000  Uiso   1.00
C608   C     0.78096   0.89528   0.52646   0.00000  Uiso   1.00
N609   N     0.61572   0.79578   0.42098   0.00000  Uiso   1.00
O610   O     0.59839   0.83336   0.39960   0.00000  Uiso   1.00
O611   O     0.64952   0.77479   0.40051   0.00000  Uiso   1.00
N612   N     0.88429   0.70421   0.42098   0.00000  Uiso   1.00
O613   O     0.85050   0.72523   0.40050   0.00000  Uiso   1.00
O614   O     0.90161   0.66663   0.39961   0.00000  Uiso   1.00
N615   N     0.88428   0.79578   0.57902   0.00000  Uiso   1.00
O616   O     0.90160   0.83337   0.60038   0.00000  Uiso   1.00
O617   O     0.85049   0.77478   0.59949   0.00000  Uiso   1.00
N618   N     0.61571   0.70422   0.57903   0.00000  Uiso   1.00
O619   O     0.64950   0.72523   0.59951   0.00000  Uiso   1.00
O620   O     0.59839   0.66663   0.60039   0.00000  Uiso   1.00
O621   O     0.68673   0.52746   0.55364   0.00000  Uiso   1.00
C622   C     0.64355   0.54602   0.54757   0.00000  Uiso   1.00
H623   H     0.63635   0.55614   0.50876   0.00000  Uiso   1.00
H624   H     0.63800   0.57718   0.57249   0.00000  Uiso   1.00
H625   H     0.61954   0.51748   0.55807   0.00000  Uiso   1.00
O626   O     0.68676   0.97256   0.44633   0.00000  Uiso   1.00
C627   C     0.64360   0.95387   0.45216   0.00000  Uiso   1.00
H628   H     0.63630   0.94357   0.49089   0.00000  Uiso   1.00
H629   H     0.63819   0.92281   0.42708   0.00000  Uiso   1.00
H630   H     0.61956   0.98240   0.44170   0.00000  Uiso   1.00
O631   O     0.81326   0.52745   0.44636   0.00000  Uiso   1.00
C632   C     0.85644   0.54602   0.45240   0.00000  Uiso   1.00
H633   H     0.86366   0.55615   0.49120   0.00000  Uiso   1.00
H634   H     0.86198   0.57717   0.42746   0.00000  Uiso   1.00
H635   H     0.88045   0.51748   0.44191   0.00000  Uiso   1.00
O636   O     0.81323   0.97256   0.55367   0.00000  Uiso   1.00
C637   C     0.85640   0.95391   0.54780   0.00000  Uiso   1.00
H638   H     0.86370   0.94365   0.50905   0.00000  Uiso   1.00
H639   H     0.86185   0.92283   0.57285   0.00000  Uiso   1.00
H640   H     0.88043   0.98245   0.55827   0.00000  Uiso   1.00
O641   O     0.18573   0.29071   0.83334   0.00000  Uiso   1.00
O642   O     0.31427   0.20928   0.83333   0.00000  Uiso   1.00
O643   O     0.31427   0.29071   0.83333   0.00000  Uiso   1.00
O644   O     0.18573   0.20928   0.83334   0.00000  Uiso   1.00
C645   C     0.16497   0.25000   0.83334   0.00000  Uiso   1.00
C646   C     0.33503   0.25000   0.83333   0.00000  Uiso   1.00
O647   O     0.25000   0.29071   0.76280   0.00000  Uiso   1.00
O648   O     0.25000   0.20929   0.90387   0.00000  Uiso   1.00
O649   O     0.25000   0.29071   0.90387   0.00000  Uiso   1.00
O650   O     0.25000   0.20929   0.76280   0.00000  Uiso   1.00
C651   C     0.21730   0.05333   0.85930   0.00000  Uiso   1.00
C652   C     0.21731   0.44667   0.80735   0.00000  Uiso   1.00
C653   C     0.28269   0.05333   0.80737   0.00000  Uiso   1.00
C654   C     0.28268   0.44667   0.85932   0.00000  Uiso   1.00
C655   C     0.25000   0.25000   0.74015   0.00000  Uiso   1.00
C656   C     0.25000   0.25000   0.92652   0.00000  Uiso   1.00
Cu657  Cu    0.25000   0.29821   0.83333   0.00000  Uiso   1.00
Cu658  Cu    0.25000   0.20178   0.83333   0.00000  Uiso   1.00
H659   H     0.19571   0.12521   0.88150   0.00000  Uiso   1.00
H660   H     0.19573   0.37478   0.78514   0.00000  Uiso   1.00
H661   H     0.30429   0.12520   0.78516   0.00000  Uiso   1.00
H662   H     0.30427   0.37479   0.88153   0.00000  Uiso   1.00
N663   N     0.25000   0.12934   0.83333   0.00000  Uiso   1.00
N664   N     0.25000   0.37065   0.83333   0.00000  Uiso   1.00
C665   C     0.24999   0.02733   0.83333   0.00000  Uiso   1.00
C666   C     0.24999   0.47267   0.83333   0.00000  Uiso   1.00
C667   C     0.25000   0.25000   0.68850   0.00000  Uiso   1.00
C668   C     0.25000   0.25000   0.97817   0.00000  Uiso   1.00
C669   C     0.04706   0.27306   0.79556   0.00000  Uiso   1.00
C670   C     0.45294   0.22694   0.79556   0.00000  Uiso   1.00
C671   C     0.45294   0.27306   0.87110   0.00000  Uiso   1.00
C672   C     0.04706   0.22694   0.87111   0.00000  Uiso   1.00
H673   H     0.02877   0.29046   0.76625   0.00000  Uiso   1.00
H674   H     0.47123   0.20953   0.76625   0.00000  Uiso   1.00
H675   H     0.47123   0.29046   0.90042   0.00000  Uiso   1.00
H676   H     0.02877   0.20953   0.90042   0.00000  Uiso   1.00
C677   C     0.09328   0.27323   0.79489   0.00000  Uiso   1.00
C678   C     0.40673   0.22677   0.79488   0.00000  Uiso   1.00
C679   C     0.40672   0.27323   0.87178   0.00000  Uiso   1.00
C680   C     0.09328   0.22677   0.87178   0.00000  Uiso   1.00
C681   C     0.11665   0.25000   0.83334   0.00000  Uiso   1.00
C682   C     0.38335   0.25000   0.83333   0.00000  Uiso   1.00
C683   C     0.02414   0.25000   0.83333   0.00000  Uiso   1.00
C684   C     0.47586   0.25000   0.83333   0.00000  Uiso   1.00
C685   C     0.21903   0.10472   0.85978   0.00000  Uiso   1.00
C686   C     0.21904   0.39528   0.80687   0.00000  Uiso   1.00
C687   C     0.28097   0.10472   0.80689   0.00000  Uiso   1.00
C688   C     0.28096   0.39528   0.85979   0.00000  Uiso   1.00
N689   N     0.11572   0.29578   0.75431   0.00000  Uiso   1.00
O690   O     0.09839   0.33336   0.73294   0.00000  Uiso   1.00
O691   O     0.14952   0.27479   0.73385   0.00000  Uiso   1.00
N692   N     0.38429   0.20421   0.75431   0.00000  Uiso   1.00
O693   O     0.35050   0.22523   0.73383   0.00000  Uiso   1.00
O694   O     0.40161   0.16663   0.73295   0.00000  Uiso   1.00
N695   N     0.38428   0.29578   0.91235   0.00000  Uiso   1.00
O696   O     0.40160   0.33337   0.93371   0.00000  Uiso   1.00
O697   O     0.35049   0.27478   0.93282   0.00000  Uiso   1.00
N698   N     0.11571   0.20422   0.91236   0.00000  Uiso   1.00
O699   O     0.14950   0.22523   0.93284   0.00000  Uiso   1.00
O700   O     0.09839   0.16663   0.93372   0.00000  Uiso   1.00
O701   O     0.18673   0.02746   0.88698   0.00000  Uiso   1.00
C702   C     0.14355   0.04602   0.88090   0.00000  Uiso   1.00
H703   H     0.13635   0.05614   0.84210   0.00000  Uiso   1.00
H704   H     0.13800   0.07718   0.90583   0.00000  Uiso   1.00
H705   H     0.11954   0.01748   0.89140   0.00000  Uiso   1.00
O706   O     0.18676   0.47256   0.77966   0.00000  Uiso   1.00
C707   C     0.14360   0.45387   0.78549   0.00000  Uiso   1.00
H708   H     0.13630   0.44357   0.82423   0.00000  Uiso   1.00
H709   H     0.13819   0.42281   0.76041   0.00000  Uiso   1.00
H710   H     0.11956   0.48240   0.77503   0.00000  Uiso   1.00
O711   O     0.31326   0.02745   0.77969   0.00000  Uiso   1.00
C712   C     0.35644   0.04602   0.78574   0.00000  Uiso   1.00
H713   H     0.36366   0.05615   0.82454   0.00000  Uiso   1.00
H714   H     0.36198   0.07717   0.76079   0.00000  Uiso   1.00
H715   H     0.38045   0.01748   0.77524   0.00000  Uiso   1.00
O716   O     0.31323   0.47256   0.88701   0.00000  Uiso   1.00
C717   C     0.35640   0.45391   0.88113   0.00000  Uiso   1.00
H718   H     0.36370   0.44365   0.84238   0.00000  Uiso   1.00
H719   H     0.36185   0.42283   0.90619   0.00000  Uiso   1.00
H720   H     0.38043   0.48245   0.89160   0.00000  Uiso   1.00
O721   O     0.68573   0.29071   0.83334   0.00000  Uiso   1.00
O722   O     0.81427   0.20928   0.83333   0.00000  Uiso   1.00
O723   O     0.81427   0.29071   0.83333   0.00000  Uiso   1.00
O724   O     0.68573   0.20928   0.83334   0.00000  Uiso   1.00
C725   C     0.66497   0.25000   0.83334   0.00000  Uiso   1.00
C726   C     0.83503   0.25000   0.83333   0.00000  Uiso   1.00
O727   O     0.75000   0.29071   0.76280   0.00000  Uiso   1.00
O728   O     0.75000   0.20929   0.90387   0.00000  Uiso   1.00
O729   O     0.75000   0.29071   0.90387   0.00000  Uiso   1.00
O730   O     0.75000   0.20929   0.76280   0.00000  Uiso   1.00
C731   C     0.71730   0.05333   0.85930   0.00000  Uiso   1.00
C732   C     0.71731   0.44667   0.80735   0.00000  Uiso   1.00
C733   C     0.78269   0.05333   0.80737   0.00000  Uiso   1.00
C734   C     0.78268   0.44667   0.85932   0.00000  Uiso   1.00
C735   C     0.75000   0.25000   0.74015   0.00000  Uiso   1.00
C736   C     0.75000   0.25000   0.92652   0.00000  Uiso   1.00
Cu737  Cu    0.75000   0.29821   0.83333   0.00000  Uiso   1.00
Cu738  Cu    0.75000   0.20178   0.83333   0.00000  Uiso   1.00
H739   H     0.69571   0.12521   0.88150   0.00000  Uiso   1.00
H740   H     0.69573   0.37478   0.78514   0.00000  Uiso   1.00
H741   H     0.80429   0.12520   0.78516   0.00000  Uiso   1.00
H742   H     0.80427   0.37479   0.88153   0.00000  Uiso   1.00
N743   N     0.75000   0.12934   0.83333   0.00000  Uiso   1.00
N744   N     0.75000   0.37065   0.83333   0.00000  Uiso   1.00
C745   C     0.74999   0.02733   0.83333   0.00000  Uiso   1.00
C746   C     0.74999   0.47267   0.83333   0.00000  Uiso   1.00
C747   C     0.75000   0.25000   0.68850   0.00000  Uiso   1.00
C748   C     0.75000   0.25000   0.97817   0.00000  Uiso   1.00
C749   C     0.54706   0.27306   0.79556   0.00000  Uiso   1.00
C750   C     0.95294   0.22694   0.79556   0.00000  Uiso   1.00
C751   C     0.95294   0.27306   0.87110   0.00000  Uiso   1.00
C752   C     0.54706   0.22694   0.87111   0.00000  Uiso   1.00
H753   H     0.52877   0.29046   0.76625   0.00000  Uiso   1.00
H754   H     0.97123   0.20953   0.76625   0.00000  Uiso   1.00
H755   H     0.97123   0.29046   0.90042   0.00000  Uiso   1.00
H756   H     0.52877   0.20953   0.90042   0.00000  Uiso   1.00
C757   C     0.59328   0.27323   0.79489   0.00000  Uiso   1.00
C758   C     0.90673   0.22677   0.79488   0.00000  Uiso   1.00
C759   C     0.90672   0.27323   0.87178   0.00000  Uiso   1.00
C760   C     0.59328   0.22677   0.87178   0.00000  Uiso   1.00
C761   C     0.61665   0.25000   0.83334   0.00000  Uiso   1.00
C762   C     0.88335   0.25000   0.83333   0.00000  Uiso   1.00
C763   C     0.52414   0.25000   0.83333   0.00000  Uiso   1.00
C764   C     0.97586   0.25000   0.83333   0.00000  Uiso   1.00
C765   C     0.71903   0.10472   0.85978   0.00000  Uiso   1.00
C766   C     0.71904   0.39528   0.80687   0.00000  Uiso   1.00
C767   C     0.78097   0.10472   0.80689   0.00000  Uiso   1.00
C768   C     0.78096   0.39528   0.85979   0.00000  Uiso   1.00
N769   N     0.61572   0.29578   0.75431   0.00000  Uiso   1.00
O770   O     0.59839   0.33336   0.73294   0.00000  Uiso   1.00
O771   O     0.64952   0.27479   0.73385   0.00000  Uiso   1.00
N772   N     0.88429   0.20421   0.75431   0.00000  Uiso   1.00
O773   O     0.85050   0.22523   0.73383   0.00000  Uiso   1.00
O774   O     0.90161   0.16663   0.73295   0.00000  Uiso   1.00
N775   N     0.88428   0.29578   0.91235   0.00000  Uiso   1.00
O776   O     0.90160   0.33337   0.93371   0.00000  Uiso   1.00
O777   O     0.85049   0.27478   0.93282   0.00000  Uiso   1.00
N778   N     0.61571   0.20422   0.91236   0.00000  Uiso   1.00
O779   O     0.64950   0.22523   0.93284   0.00000  Uiso   1.00
O780   O     0.59839   0.16663   0.93372   0.00000  Uiso   1.00
O781   O     0.68673   0.02746   0.88698   0.00000  Uiso   1.00
C782   C     0.64355   0.04602   0.88090   0.00000  Uiso   1.00
H783   H     0.63635   0.05614   0.84210   0.00000  Uiso   1.00
H784   H     0.63800   0.07718   0.90583   0.00000  Uiso   1.00
H785   H     0.61954   0.01748   0.89140   0.00000  Uiso   1.00
O786   O     0.68676   0.47256   0.77966   0.00000  Uiso   1.00
C787   C     0.64360   0.45387   0.78549   0.00000  Uiso   1.00
H788   H     0.63630   0.44357   0.82423   0.00000  Uiso   1.00
H789   H     0.63819   0.42281   0.76041   0.00000  Uiso   1.00
H790   H     0.61956   0.48240   0.77503   0.00000  Uiso   1.00
O791   O     0.81326   0.02745   0.77969   0.00000  Uiso   1.00
C792   C     0.85644   0.04602   0.78574   0.00000  Uiso   1.00
H793   H     0.86366   0.05615   0.82454   0.00000  Uiso   1.00
H794   H     0.86198   0.07717   0.76079   0.00000  Uiso   1.00
H795   H     0.88045   0.01748   0.77524   0.00000  Uiso   1.00
O796   O     0.81323   0.47256   0.88701   0.00000  Uiso   1.00
C797   C     0.85640   0.45391   0.88113   0.00000  Uiso   1.00
H798   H     0.86370   0.44365   0.84238   0.00000  Uiso   1.00
H799   H     0.86185   0.42283   0.90619   0.00000  Uiso   1.00
H800   H     0.88043   0.48245   0.89160   0.00000  Uiso   1.00
O801   O     0.18573   0.79071   0.83334   0.00000  Uiso   1.00
O802   O     0.31427   0.70928   0.83333   0.00000  Uiso   1.00
O803   O     0.31427   0.79071   0.83333   0.00000  Uiso   1.00
O804   O     0.18573   0.70928   0.83334   0.00000  Uiso   1.00
C805   C     0.16497   0.75000   0.83334   0.00000  Uiso   1.00
C806   C     0.33503   0.75000   0.83333   0.00000  Uiso   1.00
O807   O     0.25000   0.79071   0.76280   0.00000  Uiso   1.00
O808   O     0.25000   0.70929   0.90387   0.00000  Uiso   1.00
O809   O     0.25000   0.79071   0.90387   0.00000  Uiso   1.00
O810   O     0.25000   0.70929   0.76280   0.00000  Uiso   1.00
C811   C     0.21730   0.55333   0.85930   0.00000  Uiso   1.00
C812   C     0.21731   0.94667   0.80735   0.00000  Uiso   1.00
C813   C     0.28269   0.55333   0.80737   0.00000  Uiso   1.00
C814   C     0.28268   0.94667   0.85932   0.00000  Uiso   1.00
C815   C     0.25000   0.75000   0.74015   0.00000  Uiso   1.00
C816   C     0.25000   0.75000   0.92652   0.00000  Uiso   1.00
Cu817  Cu    0.25000   0.79821   0.83333   0.00000  Uiso   1.00
Cu818  Cu    0.25000   0.70178   0.83333   0.00000  Uiso   1.00
H819   H     0.19571   0.62521   0.88150   0.00000  Uiso   1.00
H820   H     0.19573   0.87478   0.78514   0.00000  Uiso   1.00
H821   H     0.30429   0.62520   0.78516   0.00000  Uiso   1.00
H822   H     0.30427   0.87479   0.88153   0.00000  Uiso   1.00
N823   N     0.25000   0.62934   0.83333   0.00000  Uiso   1.00
N824   N     0.25000   0.87065   0.83333   0.00000  Uiso   1.00
C825   C     0.24999   0.52733   0.83333   0.00000  Uiso   1.00
C826   C     0.24999   0.97267   0.83333   0.00000  Uiso   1.00
C827   C     0.25000   0.75000   0.68850   0.00000  Uiso   1.00
C828   C     0.25000   0.75000   0.97817   0.00000  Uiso   1.00
C829   C     0.04706   0.77306   0.79556   0.00000  Uiso   1.00
C830   C     0.45294   0.72694   0.79556   0.00000  Uiso   1.00
C831   C     0.45294   0.77306   0.87110   0.00000  Uiso   1.00
C832   C     0.04706   0.72694   0.87111   0.00000  Uiso   1.00
H833   H     0.02877   0.79046   0.76625   0.00000  Uiso   1.00
H834   H     0.47123   0.70953   0.76625   0.00000  Uiso   1.00
H835   H     0.47123   0.79046   0.90042   0.00000  Uiso   1.00
H836   H     0.02877   0.70953   0.90042   0.00000  Uiso   1.00
C837   C     0.09328   0.77323   0.79489   0.00000  Uiso   1.00
C838   C     0.40673   0.72677   0.79488   0.00000  Uiso   1.00
C839   C     0.40672   0.77323   0.87178   0.00000  Uiso   1.00
C840   C     0.09328   0.72677   0.87178   0.00000  Uiso   1.00
C841   C     0.11665   0.75000   0.83334   0.00000  Uiso   1.00
C842   C     0.38335   0.75000   0.83333   0.00000  Uiso   1.00
C843   C     0.02414   0.75000   0.83333   0.00000  Uiso   1.00
C844   C     0.47586   0.75000   0.83333   0.00000  Uiso   1.00
C845   C     0.21903   0.60472   0.85978   0.00000  Uiso   1.00
C846   C     0.21904   0.89528   0.80687   0.00000  Uiso   1.00
C847   C     0.28097   0.60472   0.80689   0.00000  Uiso   1.00
C848   C     0.28096   0.89528   0.85979   0.00000  Uiso   1.00
N849   N     0.11572   0.79578   0.75431   0.00000  Uiso   1.00
O850   O     0.09839   0.83336   0.73294   0.00000  Uiso   1.00
O851   O     0.14952   0.77479   0.73385   0.00000  Uiso   1.00
N852   N     0.38429   0.70421   0.75431   0.00000  Uiso   1.00
O853   O     0.35050   0.72523   0.73383   0.00000  Uiso   1.00
O854   O     0.40161   0.66663   0.73295   0.00000  Uiso   1.00
N855   N     0.38428   0.79578   0.91235   0.00000  Uiso   1.00
O856   O     0.40160   0.83337   0.93371   0.00000  Uiso   1.00
O857   O     0.35049   0.77478   0.93282   0.00000  Uiso   1.00
N858   N     0.11571   0.70422   0.91236   0.00000  Uiso   1.00
O859   O     0.14950   0.72523   0.93284   0.00000  Uiso   1.00
O860   O     0.09839   0.66663   0.93372   0.00000  Uiso   1.00
O861   O     0.18673   0.52746   0.88698   0.00000  Uiso   1.00
C862   C     0.14355   0.54602   0.88090   0.00000  Uiso   1.00
H863   H     0.13635   0.55614   0.84210   0.00000  Uiso   1.00
H864   H     0.13800   0.57718   0.90583   0.00000  Uiso   1.00
H865   H     0.11954   0.51748   0.89140   0.00000  Uiso   1.00
O866   O     0.18676   0.97256   0.77966   0.00000  Uiso   1.00
C867   C     0.14360   0.95387   0.78549   0.00000  Uiso   1.00
H868   H     0.13630   0.94357   0.82423   0.00000  Uiso   1.00
H869   H     0.13819   0.92281   0.76041   0.00000  Uiso   1.00
H870   H     0.11956   0.98240   0.77503   0.00000  Uiso   1.00
O871   O     0.31326   0.52745   0.77969   0.00000  Uiso   1.00
C872   C     0.35644   0.54602   0.78574   0.00000  Uiso   1.00
H873   H     0.36366   0.55615   0.82454   0.00000  Uiso   1.00
H874   H     0.36198   0.57717   0.76079   0.00000  Uiso   1.00
H875   H     0.38045   0.51748   0.77524   0.00000  Uiso   1.00
O876   O     0.31323   0.97256   0.88701   0.00000  Uiso   1.00
C877   C     0.35640   0.95391   0.88113   0.00000  Uiso   1.00
H878   H     0.36370   0.94365   0.84238   0.00000  Uiso   1.00
H879   H     0.36185   0.92283   0.90619   0.00000  Uiso   1.00
H880   H     0.38043   0.98245   0.89160   0.00000  Uiso   1.00
O881   O     0.68573   0.79071   0.83334   0.00000  Uiso   1.00
O882   O     0.81427   0.70928   0.83333   0.00000  Uiso   1.00
O883   O     0.81427   0.79071   0.83333   0.00000  Uiso   1.00
O884   O     0.68573   0.70928   0.83334   0.00000  Uiso   1.00
C885   C     0.66497   0.75000   0.83334   0.00000  Uiso   1.00
C886   C     0.83503   0.75000   0.83333   0.00000  Uiso   1.00
O887   O     0.75000   0.79071   0.76280   0.00000  Uiso   1.00
O888   O     0.75000   0.70929   0.90387   0.00000  Uiso   1.00
O889   O     0.75000   0.79071   0.90387   0.00000  Uiso   1.00
O890   O     0.75000   0.70929   0.76280   0.00000  Uiso   1.00
C891   C     0.71730   0.55333   0.85930   0.00000  Uiso   1.00
C892   C     0.71731   0.94667   0.80735   0.00000  Uiso   1.00
C893   C     0.78269   0.55333   0.80737   0.00000  Uiso   1.00
C894   C     0.78268   0.94667   0.85932   0.00000  Uiso   1.00
C895   C     0.75000   0.75000   0.74015   0.00000  Uiso   1.00
C896   C     0.75000   0.75000   0.92652   0.00000  Uiso   1.00
Cu897  Cu    0.75000   0.79821   0.83333   0.00000  Uiso   1.00
Cu898  Cu    0.75000   0.70178   0.83333   0.00000  Uiso   1.00
H899   H     0.69571   0.62521   0.88150   0.00000  Uiso   1.00
H900   H     0.69573   0.87478   0.78514   0.00000  Uiso   1.00
H901   H     0.80429   0.62520   0.78516   0.00000  Uiso   1.00
H902   H     0.80427   0.87479   0.88153   0.00000  Uiso   1.00
N903   N     0.75000   0.62934   0.83333   0.00000  Uiso   1.00
N904   N     0.75000   0.87065   0.83333   0.00000  Uiso   1.00
C905   C     0.74999   0.52733   0.83333   0.00000  Uiso   1.00
C906   C     0.74999   0.97267   0.83333   0.00000  Uiso   1.00
C907   C     0.75000   0.75000   0.68850   0.00000  Uiso   1.00
C908   C     0.75000   0.75000   0.97817   0.00000  Uiso   1.00
C909   C     0.54706   0.77306   0.79556   0.00000  Uiso   1.00
C910   C     0.95294   0.72694   0.79556   0.00000  Uiso   1.00
C911   C     0.95294   0.77306   0.87110   0.00000  Uiso   1.00
C912   C     0.54706   0.72694   0.87111   0.00000  Uiso   1.00
H913   H     0.52877   0.79046   0.76625   0.00000  Uiso   1.00
H914   H     0.97123   0.70953   0.76625   0.00000  Uiso   1.00
H915   H     0.97123   0.79046   0.90042   0.00000  Uiso   1.00
H916   H     0.52877   0.70953   0.90042   0.00000  Uiso   1.00
C917   C     0.59328   0.77323   0.79489   0.00000  Uiso   1.00
C918   C     0.90673   0.72677   0.79488   0.00000  Uiso   1.00
C919   C     0.90672   0.77323   0.87178   0.00000  Uiso   1.00
C920   C     0.59328   0.72677   0.87178   0.00000  Uiso   1.00
C921   C     0.61665   0.75000   0.83334   0.00000  Uiso   1.00
C922   C     0.88335   0.75000   0.83333   0.00000  Uiso   1.00
C923   C     0.52414   0.75000   0.83333   0.00000  Uiso   1.00
C924   C     0.97586   0.75000   0.83333   0.00000  Uiso   1.00
C925   C     0.71903   0.60472   0.85978   0.00000  Uiso   1.00
C926   C     0.71904   0.89528   0.80687   0.00000  Uiso   1.00
C927   C     0.78097   0.60472   0.80689   0.00000  Uiso   1.00
C928   C     0.78096   0.89528   0.85979   0.00000  Uiso   1.00
N929   N     0.61572   0.79578   0.75431   0.00000  Uiso   1.00
O930   O     0.59839   0.83336   0.73294   0.00000  Uiso   1.00
O931   O     0.64952   0.77479   0.73385   0.00000  Uiso   1.00
N932   N     0.88429   0.70421   0.75431   0.00000  Uiso   1.00
O933   O     0.85050   0.72523   0.73383   0.00000  Uiso   1.00
O934   O     0.90161   0.66663   0.73295   0.00000  Uiso   1.00
N935   N     0.88428   0.79578   0.91235   0.00000  Uiso   1.00
O936   O     0.90160   0.83337   0.93371   0.00000  Uiso   1.00
O937   O     0.85049   0.77478   0.93282   0.00000  Uiso   1.00
N938   N     0.61571   0.70422   0.91236   0.00000  Uiso   1.00
O939   O     0.64950   0.72523   0.93284   0.00000  Uiso   1.00
O940   O     0.59839   0.66663   0.93372   0.00000  Uiso   1.00
O941   O     0.68673   0.52746   0.88698   0.00000  Uiso   1.00
C942   C     0.64355   0.54602   0.88090   0.00000  Uiso   1.00
H943   H     0.63635   0.55614   0.84210   0.00000  Uiso   1.00
H944   H     0.63800   0.57718   0.90583   0.00000  Uiso   1.00
H945   H     0.61954   0.51748   0.89140   0.00000  Uiso   1.00
O946   O     0.68676   0.97256   0.77966   0.00000  Uiso   1.00
C947   C     0.64360   0.95387   0.78549   0.00000  Uiso   1.00
H948   H     0.63630   0.94357   0.82423   0.00000  Uiso   1.00
H949   H     0.63819   0.92281   0.76041   0.00000  Uiso   1.00
H950   H     0.61956   0.98240   0.77503   0.00000  Uiso   1.00
O951   O     0.81326   0.52745   0.77969   0.00000  Uiso   1.00
C952   C     0.85644   0.54602   0.78574   0.00000  Uiso   1.00
H953   H     0.86366   0.55615   0.82454   0.00000  Uiso   1.00
H954   H     0.86198   0.57717   0.76079   0.00000  Uiso   1.00
H955   H     0.88045   0.51748   0.77524   0.00000  Uiso   1.00
O956   O     0.81323   0.97256   0.88701   0.00000  Uiso   1.00
C957   C     0.85640   0.95391   0.88113   0.00000  Uiso   1.00
H958   H     0.86370   0.94365   0.84238   0.00000  Uiso   1.00
H959   H     0.86185   0.92283   0.90619   0.00000  Uiso   1.00
H960   H     0.88043   0.98245   0.89160   0.00000  Uiso   1.00
loop_
_geom_bond_atom_site_label_1
_geom_bond_atom_site_label_2
_geom_bond_distance
_geom_bond_site_symmetry_2
_ccdc_geom_bond_type
O1     C5      1.289   .     A
O1     Cu17    1.953   .     S
O2     Cu18    1.953   .     S
O2     C6      1.289   .     A
O3     C6      1.289   .     A
O3     Cu17    1.953   .     S
O4     Cu18    1.953   .     S
O4     C5      1.289   .     A
C5     C41     1.460   .     S
C6     C42     1.460   .     S
O7     C15     1.284   .     A
O7     Cu17    1.932   .     S
O8     C16     1.284   .     A
O8     Cu18    1.932   .     S
O9     C16     1.284   .     A
O9     Cu17    1.932   .     S
O10    C15     1.284   .     A
O10    Cu18    1.932   .     S
C11    C25     1.412   .     A
C11    C45     1.422   .     A
C11    O61     1.390   .     S
C12    C46     1.423   .     A
C12    O66     1.391   .     S
C12    C26     1.412   .     A
C13    C25     1.412   .     A
C13    C47     1.422   .     A
C13    O71     1.390   .     S
C14    C48     1.423   .     A
C14    O76     1.391   .     S
C14    C26     1.412   .     A
C15    C27     1.407   .     S
C16    C28     1.407   .     S
Cu17   N24     2.004   .     S
Cu17   Cu18    2.667   .     S
Cu18   N23     2.004   .     S
H19    C45     1.081   .     S
H20    C46     1.081   .     S
H21    C47     1.081   .     S
H22    C48     1.081   .     S
N23    C45     1.363   .     A
N23    C47     1.363   .     A
N24    C48     1.363   .     A
N24    C46     1.363   .     A
C25    C186    1.512   1_545 S
C26    C185    1.512   .     S
C27    C668    1.189   1_554 S
C28    C347    1.189   .     S
C29    H33     1.084   .     S
C29    C43     1.395   .     A
C29    C37     1.397   .     A
C30    C38     1.397   .     A
C30    C44     1.395   .     A
C30    H34     1.084   .     S
C31    C44     1.395   .     A
C31    H35     1.084   .     S
C31    C39     1.397   .     A
C32    H36     1.084   .     S
C32    C43     1.395   .     A
C32    C40     1.397   .     A
C37    N49     1.439   .     S
C37    C41     1.417   .     A
C38    C42     1.417   .     A
C38    N52     1.439   .     S
C39    N55     1.439   .     S
C39    C42     1.417   .     A
C40    N58     1.439   .     S
C40    C41     1.417   .     A
C43    C124    1.459   1_455 S
C44    C123    1.459   .     S
N49    O51     1.300   .     A
N49    O50     1.301   .     A
N52    O54     1.301   .     A
N52    O53     1.300   .     A
N55    O56     1.301   .     A
N55    O57     1.300   .     A
N58    O60     1.301   .     A
N58    O59     1.300   .     A
O61    C62     1.412   .     S
C62    H64     1.110   .     S
C62    H63     1.115   .     S
C62    H65     1.110   .     S
O66    C67     1.412   .     S
C67    H68     1.115   .     S
C67    H69     1.110   .     S
C67    H70     1.110   .     S
O71    C72     1.412   .     S
C72    H74     1.110   .     S
C72    H75     1.110   .     S
C72    H73     1.115   .     S
O76    C77     1.412   .     S
C77    H78     1.115   .     S
C77    H79     1.110   .     S
C77    H80     1.110   .     S
O81    C85     1.289   .     A
O81    Cu97    1.953   .     S
O82    Cu98    1.953   .     S
O82    C86     1.289   .     A
O83    C86     1.289   .     A
O83    Cu97    1.953   .     S
O84    Cu98    1.953   .     S
O84    C85     1.289   .     A
C85    C121    1.460   .     S
C86    C122    1.460   .     S
O87    C95     1.284   .     A
O87    Cu97    1.932   .     S
O88    C96     1.284   .     A
O88    Cu98    1.932   .     S
O89    C96     1.284   .     A
O89    Cu97    1.932   .     S
O90    C95     1.284   .     A
O90    Cu98    1.932   .     S
C91    C105    1.412   .     A
C91    C125    1.422   .     A
C91    O141    1.390   .     S
C92    C126    1.423   .     A
C92    O146    1.391   .     S
C92    C106    1.412   .     A
C93    C105    1.412   .     A
C93    C127    1.422   .     A
C93    O151    1.390   .     S
C94    C128    1.423   .     A
C94    O156    1.391   .     S
C94    C106    1.412   .     A
C95    C107    1.407   .     S
C96    C108    1.407   .     S
Cu97   N104    2.004   .     S
Cu97   Cu98    2.667   .     S
Cu98   N103    2.004   .     S
H99    C125    1.081   .     S
H100   C126    1.081   .     S
H101   C127    1.081   .     S
H102   C128    1.081   .     S
N103   C125    1.363   .     A
N103   C127    1.363   .     A
N104   C128    1.363   .     A
N104   C126    1.363   .     A
C105   C266    1.512   1_545 S
C106   C265    1.512   .     S
C107   C748    1.189   1_554 S
C108   C427    1.189   .     S
C109   H113    1.084   .     S
C109   C123    1.395   .     A
C109   C117    1.397   .     A
C110   C118    1.397   .     A
C110   C124    1.395   .     A
C110   H114    1.084   .     S
C111   C124    1.395   .     A
C111   H115    1.084   .     S
C111   C119    1.397   .     A
C112   H116    1.084   .     S
C112   C123    1.395   .     A
C112   C120    1.397   .     A
C117   N129    1.439   .     S
C117   C121    1.417   .     A
C118   C122    1.417   .     A
C118   N132    1.439   .     S
C119   N135    1.439   .     S
C119   C122    1.417   .     A
C120   N138    1.439   .     S
C120   C121    1.417   .     A
C124   C43     1.459   1_655 S
N129   O131    1.300   .     A
N129   O130    1.301   .     A
N132   O134    1.301   .     A
N132   O133    1.300   .     A
N135   O136    1.301   .     A
N135   O137    1.300   .     A
N138   O140    1.301   .     A
N138   O139    1.300   .     A
O141   C142    1.412   .     S
C142   H144    1.110   .     S
C142   H143    1.115   .     S
C142   H145    1.110   .     S
O146   C147    1.412   .     S
C147   H148    1.115   .     S
C147   H149    1.110   .     S
C147   H150    1.110   .     S
O151   C152    1.412   .     S
C152   H154    1.110   .     S
C152   H155    1.110   .     S
C152   H153    1.115   .     S
O156   C157    1.412   .     S
C157   H158    1.115   .     S
C157   H159    1.110   .     S
C157   H160    1.110   .     S
O161   C165    1.289   .     A
O161   Cu177   1.953   .     S
O162   Cu178   1.953   .     S
O162   C166    1.289   .     A
O163   C166    1.289   .     A
O163   Cu177   1.953   .     S
O164   Cu178   1.953   .     S
O164   C165    1.289   .     A
C165   C201    1.460   .     S
C166   C202    1.460   .     S
O167   C175    1.284   .     A
O167   Cu177   1.932   .     S
O168   C176    1.284   .     A
O168   Cu178   1.932   .     S
O169   C176    1.284   .     A
O169   Cu177   1.932   .     S
O170   C175    1.284   .     A
O170   Cu178   1.932   .     S
C171   C185    1.412   .     A
C171   C205    1.422   .     A
C171   O221    1.390   .     S
C172   C206    1.423   .     A
C172   O226    1.391   .     S
C172   C186    1.412   .     A
C173   C185    1.412   .     A
C173   C207    1.422   .     A
C173   O231    1.390   .     S
C174   C208    1.423   .     A
C174   O236    1.391   .     S
C174   C186    1.412   .     A
C175   C187    1.407   .     S
C176   C188    1.407   .     S
Cu177  N184    2.004   .     S
Cu177  Cu178   2.667   .     S
Cu178  N183    2.004   .     S
H179   C205    1.081   .     S
H180   C206    1.081   .     S
H181   C207    1.081   .     S
H182   C208    1.081   .     S
N183   C205    1.363   .     A
N183   C207    1.363   .     A
N184   C208    1.363   .     A
N184   C206    1.363   .     A
C186   C25     1.512   1_565 S
C187   C828    1.189   1_554 S
C188   C507    1.189   .     S
C189   H193    1.084   .     S
C189   C203    1.395   .     A
C189   C197    1.397   .     A
C190   C198    1.397   .     A
C190   C204    1.395   .     A
C190   H194    1.084   .     S
C191   C204    1.395   .     A
C191   H195    1.084   .     S
C191   C199    1.397   .     A
C192   H196    1.084   .     S
C192   C203    1.395   .     A
C192   C200    1.397   .     A
C197   N209    1.439   .     S
C197   C201    1.417   .     A
C198   C202    1.417   .     A
C198   N212    1.439   .     S
C199   N215    1.439   .     S
C199   C202    1.417   .     A
C200   N218    1.439   .     S
C200   C201    1.417   .     A
C203   C284    1.459   1_455 S
C204   C283    1.459   .     S
N209   O211    1.300   .     A
N209   O210    1.301   .     A
N212   O214    1.301   .     A
N212   O213    1.300   .     A
N215   O216    1.301   .     A
N215   O217    1.300   .     A
N218   O220    1.301   .     A
N218   O219    1.300   .     A
O221   C222    1.412   .     S
C222   H224    1.110   .     S
C222   H223    1.115   .     S
C222   H225    1.110   .     S
O226   C227    1.412   .     S
C227   H228    1.115   .     S
C227   H229    1.110   .     S
C227   H230    1.110   .     S
O231   C232    1.412   .     S
C232   H234    1.110   .     S
C232   H235    1.110   .     S
C232   H233    1.115   .     S
O236   C237    1.412   .     S
C237   H238    1.115   .     S
C237   H239    1.110   .     S
C237   H240    1.110   .     S
O241   C245    1.289   .     A
O241   Cu257   1.953   .     S
O242   Cu258   1.953   .     S
O242   C246    1.289   .     A
O243   C246    1.289   .     A
O243   Cu257   1.953   .     S
O244   Cu258   1.953   .     S
O244   C245    1.289   .     A
C245   C281    1.460   .     S
C246   C282    1.460   .     S
O247   C255    1.284   .     A
O247   Cu257   1.932   .     S
O248   C256    1.284   .     A
O248   Cu258   1.932   .     S
O249   C256    1.284   .     A
O249   Cu257   1.932   .     S
O250   C255    1.284   .     A
O250   Cu258   1.932   .     S
C251   C265    1.412   .     A
C251   C285    1.422   .     A
C251   O301    1.390   .     S
C252   C286    1.423   .     A
C252   O306    1.391   .     S
C252   C266    1.412   .     A
C253   C265    1.412   .     A
C253   C287    1.422   .     A
C253   O311    1.390   .     S
C254   C288    1.423   .     A
C254   O316    1.391   .     S
C254   C266    1.412   .     A
C255   C267    1.407   .     S
C256   C268    1.407   .     S
Cu257  N264    2.004   .     S
Cu257  Cu258   2.667   .     S
Cu258  N263    2.004   .     S
H259   C285    1.081   .     S
H260   C286    1.081   .     S
H261   C287    1.081   .     S
H262   C288    1.081   .     S
N263   C285    1.363   .     A
N263   C287    1.363   .     A
N264   C288    1.363   .     A
N264   C286    1.363   .     A
C266   C105    1.512   1_565 S
C267   C908    1.189   1_554 S
C268   C587    1.189   .     S
C269   H273    1.084   .     S
C269   C283    1.395   .     A
C269   C277    1.397   .     A
C270   C278    1.397   .     A
C270   C284    1.395   .     A
C270   H274    1.084   .     S
C271   C284    1.395   .     A
C271   H275    1.084   .     S
C271   C279    1.397   .     A
C272   H276    1.084   .     S
C272   C283    1.395   .     A
C272   C280    1.397   .     A
C277   N289    1.439   .     S
C277   C281    1.417   .     A
C278   C282    1.417   .     A
C278   N292    1.439   .     S
C279   N295    1.439   .     S
C279   C282    1.417   .     A
C280   N298    1.439   .     S
C280   C281    1.417   .     A
C284   C203    1.459   1_655 S
N289   O291    1.300   .     A
N289   O290    1.301   .     A
N292   O294    1.301   .     A
N292   O293    1.300   .     A
N295   O296    1.301   .     A
N295   O297    1.300   .     A
N298   O300    1.301   .     A
N298   O299    1.300   .     A
O301   C302    1.412   .     S
C302   H304    1.110   .     S
C302   H303    1.115   .     S
C302   H305    1.110   .     S
O306   C307    1.412   .     S
C307   H308    1.115   .     S
C307   H309    1.110   .     S
C307   H310    1.110   .     S
O311   C312    1.412   .     S
C312   H314    1.110   .     S
C312   H315    1.110   .     S
C312   H313    1.115   .     S
O316   C317    1.412   .     S
C317   H318    1.115   .     S
C317   H319    1.110   .     S
C317   H320    1.110   .     S
O321   C325    1.289   .     A
O321   Cu337   1.953   .     S
O322   Cu338   1.953   .     S
O322   C326    1.289   .     A
O323   C326    1.289   .     A
O323   Cu337   1.953   .     S
O324   Cu338   1.953   .     S
O324   C325    1.289   .     A
C325   C361    1.460   .     S
C326   C362    1.460   .     S
O327   C335    1.284   .     A
O327   Cu337   1.932   .     S
O328   C336    1.284   .     A
O328   Cu338   1.932   .     S
O329   C336    1.284   .     A
O329   Cu337   1.932   .     S
O330   C335    1.284   .     A
O330   Cu338   1.932   .     S
C331   C345    1.412   .     A
C331   C365    1.422   .     A
C331   O381    1.390   .     S
C332   C366    1.423   .     A
C332   O386    1.391   .     S
C332   C346    1.412   .     A
C333   C345    1.412   .     A
C333   C367    1.422   .     A
C333   O391    1.390   .     S
C334   C368    1.423   .     A
C334   O396    1.391   .     S
C334   C346    1.412   .     A
C335   C347    1.407   .     S
C336   C348    1.407   .     S
Cu337  N344    2.004   .     S
Cu337  Cu338   2.667   .     S
Cu338  N343    2.004   .     S
H339   C365    1.081   .     S
H340   C366    1.081   .     S
H341   C367    1.081   .     S
H342   C368    1.081   .     S
N343   C365    1.363   .     A
N343   C367    1.363   .     A
N344   C368    1.363   .     A
N344   C366    1.363   .     A
C345   C506    1.512   1_545 S
C346   C505    1.512   .     S
C348   C667    1.189   .     S
C349   H353    1.084   .     S
C349   C363    1.395   .     A
C349   C357    1.397   .     A
C350   C358    1.397   .     A
C350   C364    1.395   .     A
C350   H354    1.084   .     S
C351   C364    1.395   .     A
C351   H355    1.084   .     S
C351   C359    1.397   .     A
C352   H356    1.084   .     S
C352   C363    1.395   .     A
C352   C360    1.397   .     A
C357   N369    1.439   .     S
C357   C361    1.417   .     A
C358   C362    1.417   .     A
C358   N372    1.439   .     S
C359   N375    1.439   .     S
C359   C362    1.417   .     A
C360   N378    1.439   .     S
C360   C361    1.417   .     A
C363   C444    1.459   1_455 S
C364   C443    1.459   .     S
N369   O371    1.300   .     A
N369   O370    1.301   .     A
N372   O374    1.301   .     A
N372   O373    1.300   .     A
N375   O376    1.301   .     A
N375   O377    1.300   .     A
N378   O380    1.301   .     A
N378   O379    1.300   .     A
O381   C382    1.412   .     S
C382   H384    1.110   .     S
C382   H383    1.115   .     S
C382   H385    1.110   .     S
O386   C387    1.412   .     S
C387   H388    1.115   .     S
C387   H389    1.110   .     S
C387   H390    1.110   .     S
O391   C392    1.412   .     S
C392   H394    1.110   .     S
C392   H395    1.110   .     S
C392   H393    1.115   .     S
O396   C397    1.412   .     S
C397   H398    1.115   .     S
C397   H399    1.110   .     S
C397   H400    1.110   .     S
O401   C405    1.289   .     A
O401   Cu417   1.953   .     S
O402   Cu418   1.953   .     S
O402   C406    1.289   .     A
O403   C406    1.289   .     A
O403   Cu417   1.953   .     S
O404   Cu418   1.953   .     S
O404   C405    1.289   .     A
C405   C441    1.460   .     S
C406   C442    1.460   .     S
O407   C415    1.284   .     A
O407   Cu417   1.932   .     S
O408   C416    1.284   .     A
O408   Cu418   1.932   .     S
O409   C416    1.284   .     A
O409   Cu417   1.932   .     S
O410   C415    1.284   .     A
O410   Cu418   1.932   .     S
C411   C425    1.412   .     A
C411   C445    1.422   .     A
C411   O461    1.390   .     S
C412   C446    1.423   .     A
C412   O466    1.391   .     S
C412   C426    1.412   .     A
C413   C425    1.412   .     A
C413   C447    1.422   .     A
C413   O471    1.390   .     S
C414   C448    1.423   .     A
C414   O476    1.391   .     S
C414   C426    1.412   .     A
C415   C427    1.407   .     S
C416   C428    1.407   .     S
Cu417  N424    2.004   .     S
Cu417  Cu418   2.667   .     S
Cu418  N423    2.004   .     S
H419   C445    1.081   .     S
H420   C446    1.081   .     S
H421   C447    1.081   .     S
H422   C448    1.081   .     S
N423   C445    1.363   .     A
N423   C447    1.363   .     A
N424   C448    1.363   .     A
N424   C446    1.363   .     A
C425   C586    1.512   1_545 S
C426   C585    1.512   .     S
C428   C747    1.189   .     S
C429   H433    1.084   .     S
C429   C443    1.395   .     A
C429   C437    1.397   .     A
C430   C438    1.397   .     A
C430   C444    1.395   .     A
C430   H434    1.084   .     S
C431   C444    1.395   .     A
C431   H435    1.084   .     S
C431   C439    1.397   .     A
C432   H436    1.084   .     S
C432   C443    1.395   .     A
C432   C440    1.397   .     A
C437   N449    1.439   .     S
C437   C441    1.417   .     A
C438   C442    1.417   .     A
C438   N452    1.439   .     S
C439   N455    1.439   .     S
C439   C442    1.417   .     A
C440   N458    1.439   .     S
C440   C441    1.417   .     A
C444   C363    1.459   1_655 S
N449   O451    1.300   .     A
N449   O450    1.301   .     A
N452   O454    1.301   .     A
N452   O453    1.300   .     A
N455   O456    1.301   .     A
N455   O457    1.300   .     A
N458   O460    1.301   .     A
N458   O459    1.300   .     A
O461   C462    1.412   .     S
C462   H464    1.110   .     S
C462   H463    1.115   .     S
C462   H465    1.110   .     S
O466   C467    1.412   .     S
C467   H468    1.115   .     S
C467   H469    1.110   .     S
C467   H470    1.110   .     S
O471   C472    1.412   .     S
C472   H474    1.110   .     S
C472   H475    1.110   .     S
C472   H473    1.115   .     S
O476   C477    1.412   .     S
C477   H478    1.115   .     S
C477   H479    1.110   .     S
C477   H480    1.110   .     S
O481   C485    1.289   .     A
O481   Cu497   1.953   .     S
O482   Cu498   1.953   .     S
O482   C486    1.289   .     A
O483   C486    1.289   .     A
O483   Cu497   1.953   .     S
O484   Cu498   1.953   .     S
O484   C485    1.289   .     A
C485   C521    1.460   .     S
C486   C522    1.460   .     S
O487   C495    1.284   .     A
O487   Cu497   1.932   .     S
O488   C496    1.284   .     A
O488   Cu498   1.932   .     S
O489   C496    1.284   .     A
O489   Cu497   1.932   .     S
O490   C495    1.284   .     A
O490   Cu498   1.932   .     S
C491   C505    1.412   .     A
C491   C525    1.422   .     A
C491   O541    1.390   .     S
C492   C526    1.423   .     A
C492   O546    1.391   .     S
C492   C506    1.412   .     A
C493   C505    1.412   .     A
C493   C527    1.422   .     A
C493   O551    1.390   .     S
C494   C528    1.423   .     A
C494   O556    1.391   .     S
C494   C506    1.412   .     A
C495   C507    1.407   .     S
C496   C508    1.407   .     S
Cu497  N504    2.004   .     S
Cu497  Cu498   2.667   .     S
Cu498  N503    2.004   .     S
H499   C525    1.081   .     S
H500   C526    1.081   .     S
H501   C527    1.081   .     S
H502   C528    1.081   .     S
N503   C525    1.363   .     A
N503   C527    1.363   .     A
N504   C528    1.363   .     A
N504   C526    1.363   .     A
C506   C345    1.512   1_565 S
C508   C827    1.189   .     S
C509   H513    1.084   .     S
C509   C523    1.395   .     A
C509   C517    1.397   .     A
C510   C518    1.397   .     A
C510   C524    1.395   .     A
C510   H514    1.084   .     S
C511   C524    1.395   .     A
C511   H515    1.084   .     S
C511   C519    1.397   .     A
C512   H516    1.084   .     S
C512   C523    1.395   .     A
C512   C520    1.397   .     A
C517   N529    1.439   .     S
C517   C521    1.417   .     A
C518   C522    1.417   .     A
C518   N532    1.439   .     S
C519   N535    1.439   .     S
C519   C522    1.417   .     A
C520   N538    1.439   .     S
C520   C521    1.417   .     A
C523   C604    1.459   1_455 S
C524   C603    1.459   .     S
N529   O531    1.300   .     A
N529   O530    1.301   .     A
N532   O534    1.301   .     A
N532   O533    1.300   .     A
N535   O536    1.301   .     A
N535   O537    1.300   .     A
N538   O540    1.301   .     A
N538   O539    1.300   .     A
O541   C542    1.412   .     S
C542   H544    1.110   .     S
C542   H543    1.115   .     S
C542   H545    1.110   .     S
O546   C547    1.412   .     S
C547   H548    1.115   .     S
C547   H549    1.110   .     S
C547   H550    1.110   .     S
O551   C552    1.412   .     S
C552   H554    1.110   .     S
C552   H555    1.110   .     S
C552   H553    1.115   .     S
O556   C557    1.412   .     S
C557   H558    1.115   .     S
C557   H559    1.110   .     S
C557   H560    1.110   .     S
O561   C565    1.289   .     A
O561   Cu577   1.953   .     S
O562   Cu578   1.953   .     S
O562   C566    1.289   .     A
O563   C566    1.289   .     A
O563   Cu577   1.953   .     S
O564   Cu578   1.953   .     S
O564   C565    1.289   .     A
C565   C601    1.460   .     S
C566   C602    1.460   .     S
O567   C575    1.284   .     A
O567   Cu577   1.932   .     S
O568   C576    1.284   .     A
O568   Cu578   1.932   .     S
O569   C576    1.284   .     A
O569   Cu577   1.932   .     S
O570   C575    1.284   .     A
O570   Cu578   1.932   .     S
C571   C585    1.412   .     A
C571   C605    1.422   .     A
C571   O621    1.390   .     S
C572   C606    1.423   .     A
C572   O626    1.391   .     S
C572   C586    1.412   .     A
C573   C585    1.412   .     A
C573   C607    1.422   .     A
C573   O631    1.390   .     S
C574   C608    1.423   .     A
C574   O636    1.391   .     S
C574   C586    1.412   .     A
C575   C587    1.407   .     S
C576   C588    1.407   .     S
Cu577  N584    2.004   .     S
Cu577  Cu578   2.667   .     S
Cu578  N583    2.004   .     S
H579   C605    1.081   .     S
H580   C606    1.081   .     S
H581   C607    1.081   .     S
H582   C608    1.081   .     S
N583   C605    1.363   .     A
N583   C607    1.363   .     A
N584   C608    1.363   .     A
N584   C606    1.363   .     A
C586   C425    1.512   1_565 S
C588   C907    1.189   .     S
C589   H593    1.084   .     S
C589   C603    1.395   .     A
C589   C597    1.397   .     A
C590   C598    1.397   .     A
C590   C604    1.395   .     A
C590   H594    1.084   .     S
C591   C604    1.395   .     A
C591   H595    1.084   .     S
C591   C599    1.397   .     A
C592   H596    1.084   .     S
C592   C603    1.395   .     A
C592   C600    1.397   .     A
C597   N609    1.439   .     S
C597   C601    1.417   .     A
C598   C602    1.417   .     A
C598   N612    1.439   .     S
C599   N615    1.439   .     S
C599   C602    1.417   .     A
C600   N618    1.439   .     S
C600   C601    1.417   .     A
C604   C523    1.459   1_655 S
N609   O611    1.300   .     A
N609   O610    1.301   .     A
N612   O614    1.301   .     A
N612   O613    1.300   .     A
N615   O616    1.301   .     A
N615   O617    1.300   .     A
N618   O620    1.301   .     A
N618   O619    1.300   .     A
O621   C622    1.412   .     S
C622   H624    1.110   .     S
C622   H623    1.115   .     S
C622   H625    1.110   .     S
O626   C627    1.412   .     S
C627   H628    1.115   .     S
C627   H629    1.110   .     S
C627   H630    1.110   .     S
O631   C632    1.412   .     S
C632   H634    1.110   .     S
C632   H635    1.110   .     S
C632   H633    1.115   .     S
O636   C637    1.412   .     S
C637   H638    1.115   .     S
C637   H639    1.110   .     S
C637   H640    1.110   .     S
O641   C645    1.289   .     A
O641   Cu657   1.953   .     S
O642   Cu658   1.953   .     S
O642   C646    1.289   .     A
O643   C646    1.289   .     A
O643   Cu657   1.953   .     S
O644   Cu658   1.953   .     S
O644   C645    1.289   .     A
C645   C681    1.460   .     S
C646   C682    1.460   .     S
O647   C655    1.284   .     A
O647   Cu657   1.932   .     S
O648   C656    1.284   .     A
O648   Cu658   1.932   .     S
O649   C656    1.284   .     A
O649   Cu657   1.932   .     S
O650   C655    1.284   .     A
O650   Cu658   1.932   .     S
C651   C665    1.412   .     A
C651   C685    1.422   .     A
C651   O701    1.390   .     S
C652   C686    1.423   .     A
C652   O706    1.391   .     S
C652   C666    1.412   .     A
C653   C665    1.412   .     A
C653   C687    1.422   .     A
C653   O711    1.390   .     S
C654   C688    1.423   .     A
C654   O716    1.391   .     S
C654   C666    1.412   .     A
C655   C667    1.407   .     S
C656   C668    1.407   .     S
Cu657  N664    2.004   .     S
Cu657  Cu658   2.667   .     S
Cu658  N663    2.004   .     S
H659   C685    1.081   .     S
H660   C686    1.081   .     S
H661   C687    1.081   .     S
H662   C688    1.081   .     S
N663   C685    1.363   .     A
N663   C687    1.363   .     A
N664   C688    1.363   .     A
N664   C686    1.363   .     A
C665   C826    1.512   1_545 S
C666   C825    1.512   .     S
C668   C27     1.189   1_556 S
C669   H673    1.084   .     S
C669   C683    1.395   .     A
C669   C677    1.397   .     A
C670   C678    1.397   .     A
C670   C684    1.395   .     A
C670   H674    1.084   .     S
C671   C684    1.395   .     A
C671   H675    1.084   .     S
C671   C679    1.397   .     A
C672   H676    1.084   .     S
C672   C683    1.395   .     A
C672   C680    1.397   .     A
C677   N689    1.439   .     S
C677   C681    1.417   .     A
C678   C682    1.417   .     A
C678   N692    1.439   .     S
C679   N695    1.439   .     S
C679   C682    1.417   .     A
C680   N698    1.439   .     S
C680   C681    1.417   .     A
C683   C764    1.459   1_455 S
C684   C763    1.459   .     S
N689   O691    1.300   .     A
N689   O690    1.301   .     A
N692   O694    1.301   .     A
N692   O693    1.300   .     A
N695   O696    1.301   .     A
N695   O697    1.300   .     A
N698   O700    1.301   .     A
N698   O699    1.300   .     A
O701   C702    1.412   .     S
C702   H704    1.110   .     S
C702   H703    1.115   .     S
C702   H705    1.110   .     S
O706   C707    1.412   .     S
C707   H708    1.115   .     S
C707   H709    1.110   .     S
C707   H710    1.110   .     S
O711   C712    1.412   .     S
C712   H714    1.110   .     S
C712   H715    1.110   .     S
C712   H713    1.115   .     S
O716   C717    1.412   .     S
C717   H718    1.115   .     S
C717   H719    1.110   .     S
C717   H720    1.110   .     S
O721   C725    1.289   .     A
O721   Cu737   1.953   .     S
O722   Cu738   1.953   .     S
O722   C726    1.289   .     A
O723   C726    1.289   .     A
O723   Cu737   1.953   .     S
O724   Cu738   1.953   .     S
O724   C725    1.289   .     A
C725   C761    1.460   .     S
C726   C762    1.460   .     S
O727   C735    1.284   .     A
O727   Cu737   1.932   .     S
O728   C736    1.284   .     A
O728   Cu738   1.932   .     S
O729   C736    1.284   .     A
O729   Cu737   1.932   .     S
O730   C735    1.284   .     A
O730   Cu738   1.932   .     S
C731   C745    1.412   .     A
C731   C765    1.422   .     A
C731   O781    1.390   .     S
C732   C766    1.423   .     A
C732   O786    1.391   .     S
C732   C746    1.412   .     A
C733   C745    1.412   .     A
C733   C767    1.422   .     A
C733   O791    1.390   .     S
C734   C768    1.423   .     A
C734   O796    1.391   .     S
C734   C746    1.412   .     A
C735   C747    1.407   .     S
C736   C748    1.407   .     S
Cu737  N744    2.004   .     S
Cu737  Cu738   2.667   .     S
Cu738  N743    2.004   .     S
H739   C765    1.081   .     S
H740   C766    1.081   .     S
H741   C767    1.081   .     S
H742   C768    1.081   .     S
N743   C765    1.363   .     A
N743   C767    1.363   .     A
N744   C768    1.363   .     A
N744   C766    1.363   .     A
C745   C906    1.512   1_545 S
C746   C905    1.512   .     S
C748   C107    1.189   1_556 S
C749   H753    1.084   .     S
C749   C763    1.395   .     A
C749   C757    1.397   .     A
C750   C758    1.397   .     A
C750   C764    1.395   .     A
C750   H754    1.084   .     S
C751   C764    1.395   .     A
C751   H755    1.084   .     S
C751   C759    1.397   .     A
C752   H756    1.084   .     S
C752   C763    1.395   .     A
C752   C760    1.397   .     A
C757   N769    1.439   .     S
C757   C761    1.417   .     A
C758   C762    1.417   .     A
C758   N772    1.439   .     S
C759   N775    1.439   .     S
C759   C762    1.417   .     A
C760   N778    1.439   .     S
C760   C761    1.417   .     A
C764   C683    1.459   1_655 S
N769   O771    1.300   .     A
N769   O770    1.301   .     A
N772   O774    1.301   .     A
N772   O773    1.300   .     A
N775   O776    1.301   .     A
N775   O777    1.300   .     A
N778   O780    1.301   .     A
N778   O779    1.300   .     A
O781   C782    1.412   .     S
C782   H784    1.110   .     S
C782   H783    1.115   .     S
C782   H785    1.110   .     S
O786   C787    1.412   .     S
C787   H788    1.115   .     S
C787   H789    1.110   .     S
C787   H790    1.110   .     S
O791   C792    1.412   .     S
C792   H794    1.110   .     S
C792   H795    1.110   .     S
C792   H793    1.115   .     S
O796   C797    1.412   .     S
C797   H798    1.115   .     S
C797   H799    1.110   .     S
C797   H800    1.110   .     S
O801   C805    1.289   .     A
O801   Cu817   1.953   .     S
O802   Cu818   1.953   .     S
O802   C806    1.289   .     A
O803   C806    1.289   .     A
O803   Cu817   1.953   .     S
O804   Cu818   1.953   .     S
O804   C805    1.289   .     A
C805   C841    1.460   .     S
C806   C842    1.460   .     S
O807   C815    1.284   .     A
O807   Cu817   1.932   .     S
O808   C816    1.284   .     A
O808   Cu818   1.932   .     S
O809   C816    1.284   .     A
O809   Cu817   1.932   .     S
O810   C815    1.284   .     A
O810   Cu818   1.932   .     S
C811   C825    1.412   .     A
C811   C845    1.422   .     A
C811   O861    1.390   .     S
C812   C846    1.423   .     A
C812   O866    1.391   .     S
C812   C826    1.412   .     A
C813   C825    1.412   .     A
C813   C847    1.422   .     A
C813   O871    1.390   .     S
C814   C848    1.423   .     A
C814   O876    1.391   .     S
C814   C826    1.412   .     A
C815   C827    1.407   .     S
C816   C828    1.407   .     S
Cu817  N824    2.004   .     S
Cu817  Cu818   2.667   .     S
Cu818  N823    2.004   .     S
H819   C845    1.081   .     S
H820   C846    1.081   .     S
H821   C847    1.081   .     S
H822   C848    1.081   .     S
N823   C845    1.363   .     A
N823   C847    1.363   .     A
N824   C848    1.363   .     A
N824   C846    1.363   .     A
C826   C665    1.512   1_565 S
C828   C187    1.189   1_556 S
C829   H833    1.084   .     S
C829   C843    1.395   .     A
C829   C837    1.397   .     A
C830   C838    1.397   .     A
C830   C844    1.395   .     A
C830   H834    1.084   .     S
C831   C844    1.395   .     A
C831   H835    1.084   .     S
C831   C839    1.397   .     A
C832   H836    1.084   .     S
C832   C843    1.395   .     A
C832   C840    1.397   .     A
C837   N849    1.439   .     S
C837   C841    1.417   .     A
C838   C842    1.417   .     A
C838   N852    1.439   .     S
C839   N855    1.439   .     S
C839   C842    1.417   .     A
C840   N858    1.439   .     S
C840   C841    1.417   .     A
C843   C924    1.459   1_455 S
C844   C923    1.459   .     S
N849   O851    1.300   .     A
N849   O850    1.301   .     A
N852   O854    1.301   .     A
N852   O853    1.300   .     A
N855   O856    1.301   .     A
N855   O857    1.300   .     A
N858   O860    1.301   .     A
N858   O859    1.300   .     A
O861   C862    1.412   .     S
C862   H864    1.110   .     S
C862   H863    1.115   .     S
C862   H865    1.110   .     S
O866   C867    1.412   .     S
C867   H868    1.115   .     S
C867   H869    1.110   .     S
C867   H870    1.110   .     S
O871   C872    1.412   .     S
C872   H874    1.110   .     S
C872   H875    1.110   .     S
C872   H873    1.115   .     S
O876   C877    1.412   .     S
C877   H878    1.115   .     S
C877   H879    1.110   .     S
C877   H880    1.110   .     S
O881   C885    1.289   .     A
O881   Cu897   1.953   .     S
O882   Cu898   1.953   .     S
O882   C886    1.289   .     A
O883   C886    1.289   .     A
O883   Cu897   1.953   .     S
O884   Cu898   1.953   .     S
O884   C885    1.289   .     A
C885   C921    1.460   .     S
C886   C922    1.460   .     S
O887   C895    1.284   .     A
O887   Cu897   1.932   .     S
O888   C896    1.284   .     A
O888   Cu898   1.932   .     S
O889   C896    1.284   .     A
O889   Cu897   1.932   .     S
O890   C895    1.284   .     A
O890   Cu898   1.932   .     S
C891   C905    1.412   .     A
C891   C925    1.422   .     A
C891   O941    1.390   .     S
C892   C926    1.423   .     A
C892   O946    1.391   .     S
C892   C906    1.412   .     A
C893   C905    1.412   .     A
C893   C927    1.422   .     A
C893   O951    1.390   .     S
C894   C928    1.423   .     A
C894   O956    1.391   .     S
C894   C906    1.412   .     A
C895   C907    1.407   .     S
C896   C908    1.407   .     S
Cu897  N904    2.004   .     S
Cu897  Cu898   2.667   .     S
Cu898  N903    2.004   .     S
H899   C925    1.081   .     S
H900   C926    1.081   .     S
H901   C927    1.081   .     S
H902   C928    1.081   .     S
N903   C925    1.363   .     A
N903   C927    1.363   .     A
N904   C928    1.363   .     A
N904   C926    1.363   .     A
C906   C745    1.512   1_565 S
C908   C267    1.189   1_556 S
C909   H913    1.084   .     S
C909   C923    1.395   .     A
C909   C917    1.397   .     A
C910   C918    1.397   .     A
C910   C924    1.395   .     A
C910   H914    1.084   .     S
C911   C924    1.395   .     A
C911   H915    1.084   .     S
C911   C919    1.397   .     A
C912   H916    1.084   .     S
C912   C923    1.395   .     A
C912   C920    1.397   .     A
C917   N929    1.439   .     S
C917   C921    1.417   .     A
C918   C922    1.417   .     A
C918   N932    1.439   .     S
C919   N935    1.439   .     S
C919   C922    1.417   .     A
C920   N938    1.439   .     S
C920   C921    1.417   .     A
C924   C843    1.459   1_655 S
N929   O931    1.300   .     A
N929   O930    1.301   .     A
N932   O934    1.301   .     A
N932   O933    1.300   .     A
N935   O936    1.301   .     A
N935   O937    1.300   .     A
N938   O940    1.301   .     A
N938   O939    1.300   .     A
O941   C942    1.412   .     S
C942   H944    1.110   .     S
C942   H943    1.115   .     S
C942   H945    1.110   .     S
O946   C947    1.412   .     S
C947   H948    1.115   .     S
C947   H949    1.110   .     S
C947   H950    1.110   .     S
O951   C952    1.412   .     S
C952   H954    1.110   .     S
C952   H955    1.110   .     S
C952   H953    1.115   .     S
O956   C957    1.412   .     S
C957   H958    1.115   .     S
C957   H959    1.110   .     S
C957   H960    1.110   .     S
