data_str_m2_o1_o17_pcu_sym.228
_audit_creation_date              2020-01-03
_audit_creation_method            'Materials Studio'
_symmetry_space_group_name_H-M    'P1'
_symmetry_Int_Tables_number       1
_symmetry_cell_setting            triclinic
loop_
_symmetry_equiv_pos_as_xyz
  x,y,z
_cell_length_a                    32.4630
_cell_length_b                    29.0933
_cell_length_c                    30.0932
_cell_angle_alpha                 90.2588
_cell_angle_beta                  95.0376
_cell_angle_gamma                 89.9674
loop_
_atom_site_label
_atom_site_type_symbol
_atom_site_fract_x
_atom_site_fract_y
_atom_site_fract_z
_atom_site_U_iso_or_equiv
_atom_site_adp_type
_atom_site_occupancy
O1     O     0.10655   0.20625   0.25000   0.00000  Uiso   1.00
O2     O     0.22679   0.12709   0.25001   0.00000  Uiso   1.00
O3     O     0.22679   0.20625   0.25001   0.00000  Uiso   1.00
O4     O     0.10655   0.12709   0.25000   0.00000  Uiso   1.00
C5     C     0.08750   0.16667   0.24961   0.00000  Uiso   1.00
C6     C     0.24582   0.16666   0.25027   0.00000  Uiso   1.00
O7     O     0.16666   0.20627   0.18513   0.00000  Uiso   1.00
O8     O     0.16668   0.12707   0.31487   0.00000  Uiso   1.00
O9     O     0.16668   0.20627   0.31487   0.00000  Uiso   1.00
O10    O     0.16666   0.12707   0.18513   0.00000  Uiso   1.00
C11    C     0.16604   0.16658   0.16471   0.00000  Uiso   1.00
C12    C     0.16704   0.16677   0.33529   0.00000  Uiso   1.00
Cu13   Cu    0.16667   0.21355   0.25000   0.00000  Uiso   1.00
Cu14   Cu    0.16667   0.11978   0.25000   0.00000  Uiso   1.00
C15    C     0.20175   0.17873   0.41058   0.00000  Uiso   1.00
C16    C     0.12852   0.15687   0.09014   0.00000  Uiso   1.00
C17    C     0.16572   0.16735   0.38351   0.00000  Uiso   1.00
C18    C     0.16562   0.16648   0.11633   0.00000  Uiso   1.00
C19    C     0.12878   0.15590   0.40237   0.00000  Uiso   1.00
C20    C     0.20151   0.17932   0.09632   0.00000  Uiso   1.00
C21    C     0.12882   0.15393   0.44926   0.00000  Uiso   1.00
C22    C     0.19873   0.18686   0.05001   0.00000  Uiso   1.00
C23    C     0.16381   0.17041   0.47629   0.00000  Uiso   1.00
C24    C     0.16387   0.16993   0.02323   0.00000  Uiso   1.00
C25    C     0.19891   0.18716   0.45646   0.00000  Uiso   1.00
C26    C     0.12959   0.15161   0.04346   0.00000  Uiso   1.00
C27    C     0.09529   0.13463   0.46988   0.00000  Uiso   1.00
C28    C     0.23013   0.21070   0.02971   0.00000  Uiso   1.00
C29    C     0.09754   0.12944   0.01627   0.00000  Uiso   1.00
C30    C     0.22964   0.21199   0.48312   0.00000  Uiso   1.00
C31    C     0.02134   0.12492   0.25002   0.00000  Uiso   1.00
C32    C     0.31198   0.20842   0.24974   0.00000  Uiso   1.00
C33    C     0.31207   0.12491   0.25031   0.00000  Uiso   1.00
C34    C     0.02124   0.20843   0.24945   0.00000  Uiso   1.00
H35    H     0.03736   0.09224   0.25019   0.00000  Uiso   1.00
H36    H     0.29596   0.24109   0.24959   0.00000  Uiso   1.00
H37    H     0.29614   0.09223   0.25061   0.00000  Uiso   1.00
H38    H     0.03718   0.24110   0.24915   0.00000  Uiso   1.00
C39    C     0.29052   0.16666   0.25018   0.00000  Uiso   1.00
C40    C     0.04279   0.16667   0.24961   0.00000  Uiso   1.00
C41    C     0.13973   0.02454   0.22089   0.00000  Uiso   1.00
C42    C     0.19360   0.30880   0.27912   0.00000  Uiso   1.00
C43    C     0.19364   0.02482   0.27911   0.00000  Uiso   1.00
C44    C     0.13970   0.30853   0.22089   0.00000  Uiso   1.00
N45    N     0.16667   0.28402   0.25000   0.00000  Uiso   1.00
N46    N     0.16667   0.04931   0.25000   0.00000  Uiso   1.00
C47    C     0.24335   0.17355   0.39156   0.00000  Uiso   1.00
H48    H     0.26896   0.16913   0.41807   0.00000  Uiso   1.00
H49    H     0.24366   0.14190   0.37090   0.00000  Uiso   1.00
H50    H     0.24971   0.20332   0.37046   0.00000  Uiso   1.00
C51    C     0.08786   0.16011   0.11141   0.00000  Uiso   1.00
H52    H     0.06182   0.16886   0.08657   0.00000  Uiso   1.00
H53    H     0.08125   0.12774   0.12860   0.00000  Uiso   1.00
H54    H     0.08883   0.18852   0.13615   0.00000  Uiso   1.00
O55    O     0.09327   0.14407   0.37591   0.00000  Uiso   1.00
H56    H     0.09412   0.15649   0.34550   0.00000  Uiso   1.00
O57    O     0.23940   0.18462   0.12085   0.00000  Uiso   1.00
H58    H     0.23898   0.16998   0.15040   0.00000  Uiso   1.00
O59    O     0.06096   0.11759   0.44517   0.00000  Uiso   1.00
H60    H     0.04532   0.14496   0.43354   0.00000  Uiso   1.00
O61    O     0.26030   0.23569   0.05440   0.00000  Uiso   1.00
H62    H     0.24682   0.25227   0.07808   0.00000  Uiso   1.00
C63    C     0.06823   0.09527   0.03466   0.00000  Uiso   1.00
H64    H     0.06408   0.06488   0.01221   0.00000  Uiso   1.00
H65    H     0.08085   0.08118   0.06720   0.00000  Uiso   1.00
H66    H     0.03747   0.11123   0.03732   0.00000  Uiso   1.00
C67    C     0.25818   0.24607   0.46330   0.00000  Uiso   1.00
H68    H     0.25878   0.27899   0.48219   0.00000  Uiso   1.00
H69    H     0.29013   0.23218   0.46486   0.00000  Uiso   1.00
H70    H     0.24731   0.25548   0.42862   0.00000  Uiso   1.00
C71    C     0.10904   0.04823   0.18760   0.00000  Uiso   1.00
H72    H     0.10939   0.08529   0.18834   0.00000  Uiso   1.00
H73    H     0.11513   0.03865   0.15305   0.00000  Uiso   1.00
H74    H     0.07697   0.03861   0.19372   0.00000  Uiso   1.00
C75    C     0.22427   0.28512   0.31244   0.00000  Uiso   1.00
H76    H     0.22396   0.24807   0.31164   0.00000  Uiso   1.00
H77    H     0.25634   0.29480   0.30640   0.00000  Uiso   1.00
H78    H     0.21810   0.29466   0.34697   0.00000  Uiso   1.00
C79    C     0.22449   0.04877   0.31237   0.00000  Uiso   1.00
H80    H     0.22445   0.08591   0.31196   0.00000  Uiso   1.00
H81    H     0.21849   0.03938   0.34690   0.00000  Uiso   1.00
H82    H     0.25648   0.03887   0.30612   0.00000  Uiso   1.00
C83    C     0.10888   0.28461   0.18762   0.00000  Uiso   1.00
H84    H     0.10894   0.24751   0.18817   0.00000  Uiso   1.00
H85    H     0.07688   0.29454   0.19379   0.00000  Uiso   1.00
H86    H     0.11496   0.29391   0.15309   0.00000  Uiso   1.00
O87    O     0.43988   0.20625   0.25000   0.00000  Uiso   1.00
O88    O     0.56012   0.12709   0.25001   0.00000  Uiso   1.00
O89    O     0.56012   0.20625   0.25001   0.00000  Uiso   1.00
O90    O     0.43988   0.12709   0.25000   0.00000  Uiso   1.00
C91    C     0.42084   0.16667   0.24961   0.00000  Uiso   1.00
C92    C     0.57915   0.16666   0.25027   0.00000  Uiso   1.00
O93    O     0.49999   0.20627   0.18513   0.00000  Uiso   1.00
O94    O     0.50001   0.12707   0.31487   0.00000  Uiso   1.00
O95    O     0.50001   0.20627   0.31487   0.00000  Uiso   1.00
O96    O     0.49999   0.12707   0.18513   0.00000  Uiso   1.00
C97    C     0.49937   0.16658   0.16471   0.00000  Uiso   1.00
C98    C     0.50037   0.16677   0.33529   0.00000  Uiso   1.00
Cu99   Cu    0.50000   0.21355   0.25000   0.00000  Uiso   1.00
Cu100  Cu    0.50000   0.11978   0.25000   0.00000  Uiso   1.00
C101   C     0.53509   0.17873   0.41058   0.00000  Uiso   1.00
C102   C     0.46185   0.15687   0.09014   0.00000  Uiso   1.00
C103   C     0.49905   0.16735   0.38351   0.00000  Uiso   1.00
C104   C     0.49895   0.16648   0.11633   0.00000  Uiso   1.00
C105   C     0.46211   0.15590   0.40237   0.00000  Uiso   1.00
C106   C     0.53484   0.17932   0.09632   0.00000  Uiso   1.00
C107   C     0.46215   0.15393   0.44926   0.00000  Uiso   1.00
C108   C     0.53207   0.18686   0.05001   0.00000  Uiso   1.00
C109   C     0.49714   0.17041   0.47629   0.00000  Uiso   1.00
C110   C     0.49720   0.16993   0.02323   0.00000  Uiso   1.00
C111   C     0.53224   0.18716   0.45646   0.00000  Uiso   1.00
C112   C     0.46292   0.15161   0.04346   0.00000  Uiso   1.00
C113   C     0.42862   0.13463   0.46988   0.00000  Uiso   1.00
C114   C     0.56346   0.21070   0.02971   0.00000  Uiso   1.00
C115   C     0.43087   0.12944   0.01627   0.00000  Uiso   1.00
C116   C     0.56298   0.21199   0.48312   0.00000  Uiso   1.00
C117   C     0.35467   0.12492   0.25002   0.00000  Uiso   1.00
C118   C     0.64531   0.20842   0.24974   0.00000  Uiso   1.00
C119   C     0.64541   0.12491   0.25031   0.00000  Uiso   1.00
C120   C     0.35457   0.20843   0.24945   0.00000  Uiso   1.00
H121   H     0.37069   0.09224   0.25019   0.00000  Uiso   1.00
H122   H     0.62929   0.24109   0.24959   0.00000  Uiso   1.00
H123   H     0.62947   0.09223   0.25061   0.00000  Uiso   1.00
H124   H     0.37051   0.24110   0.24915   0.00000  Uiso   1.00
C125   C     0.62386   0.16666   0.25018   0.00000  Uiso   1.00
C126   C     0.37613   0.16667   0.24961   0.00000  Uiso   1.00
C127   C     0.47306   0.02454   0.22089   0.00000  Uiso   1.00
C128   C     0.52694   0.30880   0.27912   0.00000  Uiso   1.00
C129   C     0.52697   0.02482   0.27911   0.00000  Uiso   1.00
C130   C     0.47304   0.30853   0.22089   0.00000  Uiso   1.00
N131   N     0.50000   0.28402   0.25000   0.00000  Uiso   1.00
N132   N     0.50000   0.04931   0.25000   0.00000  Uiso   1.00
C133   C     0.57668   0.17355   0.39156   0.00000  Uiso   1.00
H134   H     0.60229   0.16913   0.41807   0.00000  Uiso   1.00
H135   H     0.57700   0.14190   0.37090   0.00000  Uiso   1.00
H136   H     0.58304   0.20332   0.37046   0.00000  Uiso   1.00
C137   C     0.42120   0.16011   0.11141   0.00000  Uiso   1.00
H138   H     0.39515   0.16886   0.08657   0.00000  Uiso   1.00
H139   H     0.41459   0.12774   0.12860   0.00000  Uiso   1.00
H140   H     0.42217   0.18852   0.13615   0.00000  Uiso   1.00
O141   O     0.42660   0.14407   0.37591   0.00000  Uiso   1.00
H142   H     0.42745   0.15649   0.34550   0.00000  Uiso   1.00
O143   O     0.57273   0.18462   0.12085   0.00000  Uiso   1.00
H144   H     0.57232   0.16998   0.15040   0.00000  Uiso   1.00
O145   O     0.39429   0.11759   0.44517   0.00000  Uiso   1.00
H146   H     0.37866   0.14496   0.43354   0.00000  Uiso   1.00
O147   O     0.59363   0.23569   0.05440   0.00000  Uiso   1.00
H148   H     0.58015   0.25227   0.07808   0.00000  Uiso   1.00
C149   C     0.40157   0.09527   0.03466   0.00000  Uiso   1.00
H150   H     0.39742   0.06488   0.01221   0.00000  Uiso   1.00
H151   H     0.41418   0.08118   0.06720   0.00000  Uiso   1.00
H152   H     0.37081   0.11123   0.03732   0.00000  Uiso   1.00
C153   C     0.59152   0.24607   0.46330   0.00000  Uiso   1.00
H154   H     0.59211   0.27899   0.48219   0.00000  Uiso   1.00
H155   H     0.62346   0.23218   0.46486   0.00000  Uiso   1.00
H156   H     0.58065   0.25548   0.42862   0.00000  Uiso   1.00
C157   C     0.44237   0.04823   0.18760   0.00000  Uiso   1.00
H158   H     0.44272   0.08529   0.18834   0.00000  Uiso   1.00
H159   H     0.44846   0.03865   0.15305   0.00000  Uiso   1.00
H160   H     0.41031   0.03861   0.19372   0.00000  Uiso   1.00
C161   C     0.55760   0.28512   0.31244   0.00000  Uiso   1.00
H162   H     0.55729   0.24807   0.31164   0.00000  Uiso   1.00
H163   H     0.58967   0.29480   0.30640   0.00000  Uiso   1.00
H164   H     0.55143   0.29466   0.34697   0.00000  Uiso   1.00
C165   C     0.55782   0.04877   0.31237   0.00000  Uiso   1.00
H166   H     0.55779   0.08591   0.31196   0.00000  Uiso   1.00
H167   H     0.55182   0.03938   0.34690   0.00000  Uiso   1.00
H168   H     0.58981   0.03887   0.30612   0.00000  Uiso   1.00
C169   C     0.44222   0.28461   0.18762   0.00000  Uiso   1.00
H170   H     0.44227   0.24751   0.18817   0.00000  Uiso   1.00
H171   H     0.41021   0.29454   0.19379   0.00000  Uiso   1.00
H172   H     0.44829   0.29391   0.15309   0.00000  Uiso   1.00
O173   O     0.77321   0.20625   0.25000   0.00000  Uiso   1.00
O174   O     0.89345   0.12709   0.25001   0.00000  Uiso   1.00
O175   O     0.89345   0.20625   0.25001   0.00000  Uiso   1.00
O176   O     0.77321   0.12709   0.25000   0.00000  Uiso   1.00
C177   C     0.75417   0.16667   0.24961   0.00000  Uiso   1.00
C178   C     0.91249   0.16666   0.25027   0.00000  Uiso   1.00
O179   O     0.83332   0.20627   0.18513   0.00000  Uiso   1.00
O180   O     0.83334   0.12707   0.31487   0.00000  Uiso   1.00
O181   O     0.83334   0.20627   0.31487   0.00000  Uiso   1.00
O182   O     0.83332   0.12707   0.18513   0.00000  Uiso   1.00
C183   C     0.83271   0.16658   0.16471   0.00000  Uiso   1.00
C184   C     0.83371   0.16677   0.33529   0.00000  Uiso   1.00
Cu185  Cu    0.83333   0.21355   0.25000   0.00000  Uiso   1.00
Cu186  Cu    0.83333   0.11978   0.25000   0.00000  Uiso   1.00
C187   C     0.86842   0.17873   0.41058   0.00000  Uiso   1.00
C188   C     0.79519   0.15687   0.09014   0.00000  Uiso   1.00
C189   C     0.83238   0.16735   0.38351   0.00000  Uiso   1.00
C190   C     0.83229   0.16648   0.11633   0.00000  Uiso   1.00
C191   C     0.79545   0.15590   0.40237   0.00000  Uiso   1.00
C192   C     0.86817   0.17932   0.09632   0.00000  Uiso   1.00
C193   C     0.79549   0.15393   0.44926   0.00000  Uiso   1.00
C194   C     0.86540   0.18686   0.05001   0.00000  Uiso   1.00
C195   C     0.83048   0.17041   0.47629   0.00000  Uiso   1.00
C196   C     0.83053   0.16993   0.02323   0.00000  Uiso   1.00
C197   C     0.86558   0.18716   0.45646   0.00000  Uiso   1.00
C198   C     0.79625   0.15161   0.04346   0.00000  Uiso   1.00
C199   C     0.76195   0.13463   0.46988   0.00000  Uiso   1.00
C200   C     0.89680   0.21070   0.02971   0.00000  Uiso   1.00
C201   C     0.76420   0.12944   0.01627   0.00000  Uiso   1.00
C202   C     0.89631   0.21199   0.48312   0.00000  Uiso   1.00
C203   C     0.68801   0.12492   0.25002   0.00000  Uiso   1.00
C204   C     0.97864   0.20842   0.24974   0.00000  Uiso   1.00
C205   C     0.97874   0.12491   0.25031   0.00000  Uiso   1.00
C206   C     0.68791   0.20843   0.24945   0.00000  Uiso   1.00
H207   H     0.70402   0.09224   0.25019   0.00000  Uiso   1.00
H208   H     0.96263   0.24109   0.24959   0.00000  Uiso   1.00
H209   H     0.96280   0.09223   0.25061   0.00000  Uiso   1.00
H210   H     0.70385   0.24110   0.24915   0.00000  Uiso   1.00
C211   C     0.95719   0.16666   0.25018   0.00000  Uiso   1.00
C212   C     0.70946   0.16667   0.24961   0.00000  Uiso   1.00
C213   C     0.80640   0.02454   0.22089   0.00000  Uiso   1.00
C214   C     0.86027   0.30880   0.27912   0.00000  Uiso   1.00
C215   C     0.86030   0.02482   0.27911   0.00000  Uiso   1.00
C216   C     0.80637   0.30853   0.22089   0.00000  Uiso   1.00
N217   N     0.83333   0.28402   0.25000   0.00000  Uiso   1.00
N218   N     0.83333   0.04931   0.25000   0.00000  Uiso   1.00
C219   C     0.91001   0.17355   0.39156   0.00000  Uiso   1.00
H220   H     0.93562   0.16913   0.41807   0.00000  Uiso   1.00
H221   H     0.91033   0.14190   0.37090   0.00000  Uiso   1.00
H222   H     0.91637   0.20332   0.37046   0.00000  Uiso   1.00
C223   C     0.75453   0.16011   0.11141   0.00000  Uiso   1.00
H224   H     0.72849   0.16886   0.08657   0.00000  Uiso   1.00
H225   H     0.74792   0.12774   0.12860   0.00000  Uiso   1.00
H226   H     0.75550   0.18852   0.13615   0.00000  Uiso   1.00
O227   O     0.75993   0.14407   0.37591   0.00000  Uiso   1.00
H228   H     0.76079   0.15649   0.34550   0.00000  Uiso   1.00
O229   O     0.90607   0.18462   0.12085   0.00000  Uiso   1.00
H230   H     0.90565   0.16998   0.15040   0.00000  Uiso   1.00
O231   O     0.72762   0.11759   0.44517   0.00000  Uiso   1.00
H232   H     0.71199   0.14496   0.43354   0.00000  Uiso   1.00
O233   O     0.92696   0.23569   0.05440   0.00000  Uiso   1.00
H234   H     0.91349   0.25227   0.07808   0.00000  Uiso   1.00
C235   C     0.73490   0.09527   0.03466   0.00000  Uiso   1.00
H236   H     0.73075   0.06488   0.01221   0.00000  Uiso   1.00
H237   H     0.74752   0.08118   0.06720   0.00000  Uiso   1.00
H238   H     0.70414   0.11123   0.03732   0.00000  Uiso   1.00
C239   C     0.92485   0.24607   0.46330   0.00000  Uiso   1.00
H240   H     0.92544   0.27899   0.48219   0.00000  Uiso   1.00
H241   H     0.95680   0.23218   0.46486   0.00000  Uiso   1.00
H242   H     0.91398   0.25548   0.42862   0.00000  Uiso   1.00
C243   C     0.77570   0.04823   0.18760   0.00000  Uiso   1.00
H244   H     0.77605   0.08529   0.18834   0.00000  Uiso   1.00
H245   H     0.78180   0.03865   0.15305   0.00000  Uiso   1.00
H246   H     0.74364   0.03861   0.19372   0.00000  Uiso   1.00
C247   C     0.89094   0.28512   0.31244   0.00000  Uiso   1.00
H248   H     0.89063   0.24807   0.31164   0.00000  Uiso   1.00
H249   H     0.92301   0.29480   0.30640   0.00000  Uiso   1.00
H250   H     0.88476   0.29466   0.34697   0.00000  Uiso   1.00
C251   C     0.89116   0.04877   0.31237   0.00000  Uiso   1.00
H252   H     0.89112   0.08591   0.31196   0.00000  Uiso   1.00
H253   H     0.88515   0.03938   0.34690   0.00000  Uiso   1.00
H254   H     0.92315   0.03887   0.30612   0.00000  Uiso   1.00
C255   C     0.77555   0.28461   0.18762   0.00000  Uiso   1.00
H256   H     0.77560   0.24751   0.18817   0.00000  Uiso   1.00
H257   H     0.74355   0.29454   0.19379   0.00000  Uiso   1.00
H258   H     0.78163   0.29391   0.15309   0.00000  Uiso   1.00
O259   O     0.10655   0.53958   0.25000   0.00000  Uiso   1.00
O260   O     0.22679   0.46042   0.25001   0.00000  Uiso   1.00
O261   O     0.22679   0.53958   0.25001   0.00000  Uiso   1.00
O262   O     0.10655   0.46042   0.25000   0.00000  Uiso   1.00
C263   C     0.08750   0.50001   0.24961   0.00000  Uiso   1.00
C264   C     0.24582   0.49999   0.25027   0.00000  Uiso   1.00
O265   O     0.16666   0.53960   0.18513   0.00000  Uiso   1.00
O266   O     0.16668   0.46040   0.31487   0.00000  Uiso   1.00
O267   O     0.16668   0.53960   0.31487   0.00000  Uiso   1.00
O268   O     0.16666   0.46040   0.18513   0.00000  Uiso   1.00
C269   C     0.16604   0.49991   0.16471   0.00000  Uiso   1.00
C270   C     0.16704   0.50010   0.33529   0.00000  Uiso   1.00
Cu271  Cu    0.16667   0.54689   0.25000   0.00000  Uiso   1.00
Cu272  Cu    0.16667   0.45311   0.25000   0.00000  Uiso   1.00
C273   C     0.20175   0.51206   0.41058   0.00000  Uiso   1.00
C274   C     0.12852   0.49020   0.09014   0.00000  Uiso   1.00
C275   C     0.16572   0.50069   0.38351   0.00000  Uiso   1.00
C276   C     0.16562   0.49981   0.11633   0.00000  Uiso   1.00
C277   C     0.12878   0.48923   0.40237   0.00000  Uiso   1.00
C278   C     0.20151   0.51266   0.09632   0.00000  Uiso   1.00
C279   C     0.12882   0.48726   0.44926   0.00000  Uiso   1.00
C280   C     0.19873   0.52020   0.05001   0.00000  Uiso   1.00
C281   C     0.16381   0.50374   0.47629   0.00000  Uiso   1.00
C282   C     0.16387   0.50326   0.02323   0.00000  Uiso   1.00
C283   C     0.19891   0.52049   0.45646   0.00000  Uiso   1.00
C284   C     0.12959   0.48494   0.04346   0.00000  Uiso   1.00
C285   C     0.09529   0.46797   0.46988   0.00000  Uiso   1.00
C286   C     0.23013   0.54404   0.02971   0.00000  Uiso   1.00
C287   C     0.09754   0.46277   0.01627   0.00000  Uiso   1.00
C288   C     0.22964   0.54532   0.48312   0.00000  Uiso   1.00
C289   C     0.02134   0.45825   0.25002   0.00000  Uiso   1.00
C290   C     0.31198   0.54175   0.24974   0.00000  Uiso   1.00
C291   C     0.31207   0.45824   0.25031   0.00000  Uiso   1.00
C292   C     0.02124   0.54176   0.24945   0.00000  Uiso   1.00
H293   H     0.03736   0.42558   0.25019   0.00000  Uiso   1.00
H294   H     0.29596   0.57443   0.24959   0.00000  Uiso   1.00
H295   H     0.29614   0.42557   0.25061   0.00000  Uiso   1.00
H296   H     0.03718   0.57443   0.24915   0.00000  Uiso   1.00
C297   C     0.29052   0.49999   0.25018   0.00000  Uiso   1.00
C298   C     0.04279   0.50001   0.24961   0.00000  Uiso   1.00
C299   C     0.13973   0.35788   0.22089   0.00000  Uiso   1.00
C300   C     0.19360   0.64213   0.27912   0.00000  Uiso   1.00
C301   C     0.19364   0.35816   0.27911   0.00000  Uiso   1.00
C302   C     0.13970   0.64186   0.22089   0.00000  Uiso   1.00
N303   N     0.16667   0.61736   0.25000   0.00000  Uiso   1.00
N304   N     0.16667   0.38264   0.25000   0.00000  Uiso   1.00
C305   C     0.24335   0.50689   0.39156   0.00000  Uiso   1.00
H306   H     0.26896   0.50246   0.41807   0.00000  Uiso   1.00
H307   H     0.24366   0.47523   0.37090   0.00000  Uiso   1.00
H308   H     0.24971   0.53665   0.37046   0.00000  Uiso   1.00
C309   C     0.08786   0.49344   0.11141   0.00000  Uiso   1.00
H310   H     0.06182   0.50220   0.08657   0.00000  Uiso   1.00
H311   H     0.08125   0.46107   0.12860   0.00000  Uiso   1.00
H312   H     0.08883   0.52185   0.13615   0.00000  Uiso   1.00
O313   O     0.09327   0.47740   0.37591   0.00000  Uiso   1.00
H314   H     0.09412   0.48982   0.34550   0.00000  Uiso   1.00
O315   O     0.23940   0.51795   0.12085   0.00000  Uiso   1.00
H316   H     0.23898   0.50332   0.15040   0.00000  Uiso   1.00
O317   O     0.06096   0.45092   0.44517   0.00000  Uiso   1.00
H318   H     0.04532   0.47829   0.43354   0.00000  Uiso   1.00
O319   O     0.26030   0.56902   0.05440   0.00000  Uiso   1.00
H320   H     0.24682   0.58560   0.07808   0.00000  Uiso   1.00
C321   C     0.06823   0.42861   0.03466   0.00000  Uiso   1.00
H322   H     0.06408   0.39822   0.01221   0.00000  Uiso   1.00
H323   H     0.08085   0.41452   0.06720   0.00000  Uiso   1.00
H324   H     0.03747   0.44456   0.03732   0.00000  Uiso   1.00
C325   C     0.25818   0.57940   0.46330   0.00000  Uiso   1.00
H326   H     0.25878   0.61233   0.48219   0.00000  Uiso   1.00
H327   H     0.29013   0.56551   0.46486   0.00000  Uiso   1.00
H328   H     0.24731   0.58882   0.42862   0.00000  Uiso   1.00
C329   C     0.10904   0.38157   0.18760   0.00000  Uiso   1.00
H330   H     0.10939   0.41863   0.18834   0.00000  Uiso   1.00
H331   H     0.11513   0.37198   0.15305   0.00000  Uiso   1.00
H332   H     0.07697   0.37194   0.19372   0.00000  Uiso   1.00
C333   C     0.22427   0.61846   0.31244   0.00000  Uiso   1.00
H334   H     0.22396   0.58140   0.31164   0.00000  Uiso   1.00
H335   H     0.25634   0.62813   0.30640   0.00000  Uiso   1.00
H336   H     0.21810   0.62800   0.34697   0.00000  Uiso   1.00
C337   C     0.22449   0.38210   0.31237   0.00000  Uiso   1.00
H338   H     0.22445   0.41924   0.31196   0.00000  Uiso   1.00
H339   H     0.21849   0.37271   0.34690   0.00000  Uiso   1.00
H340   H     0.25648   0.37221   0.30612   0.00000  Uiso   1.00
C341   C     0.10888   0.61795   0.18762   0.00000  Uiso   1.00
H342   H     0.10894   0.58084   0.18817   0.00000  Uiso   1.00
H343   H     0.07688   0.62787   0.19379   0.00000  Uiso   1.00
H344   H     0.11496   0.62725   0.15309   0.00000  Uiso   1.00
O345   O     0.43988   0.53958   0.25000   0.00000  Uiso   1.00
O346   O     0.56012   0.46042   0.25001   0.00000  Uiso   1.00
O347   O     0.56012   0.53958   0.25001   0.00000  Uiso   1.00
O348   O     0.43988   0.46042   0.25000   0.00000  Uiso   1.00
C349   C     0.42084   0.50001   0.24961   0.00000  Uiso   1.00
C350   C     0.57915   0.49999   0.25027   0.00000  Uiso   1.00
O351   O     0.49999   0.53960   0.18513   0.00000  Uiso   1.00
O352   O     0.50001   0.46040   0.31487   0.00000  Uiso   1.00
O353   O     0.50001   0.53960   0.31487   0.00000  Uiso   1.00
O354   O     0.49999   0.46040   0.18513   0.00000  Uiso   1.00
C355   C     0.49937   0.49991   0.16471   0.00000  Uiso   1.00
C356   C     0.50037   0.50010   0.33529   0.00000  Uiso   1.00
Cu357  Cu    0.50000   0.54689   0.25000   0.00000  Uiso   1.00
Cu358  Cu    0.50000   0.45311   0.25000   0.00000  Uiso   1.00
C359   C     0.53509   0.51206   0.41058   0.00000  Uiso   1.00
C360   C     0.46185   0.49020   0.09014   0.00000  Uiso   1.00
C361   C     0.49905   0.50069   0.38351   0.00000  Uiso   1.00
C362   C     0.49895   0.49981   0.11633   0.00000  Uiso   1.00
C363   C     0.46211   0.48923   0.40237   0.00000  Uiso   1.00
C364   C     0.53484   0.51266   0.09632   0.00000  Uiso   1.00
C365   C     0.46215   0.48726   0.44926   0.00000  Uiso   1.00
C366   C     0.53207   0.52020   0.05001   0.00000  Uiso   1.00
C367   C     0.49714   0.50374   0.47629   0.00000  Uiso   1.00
C368   C     0.49720   0.50326   0.02323   0.00000  Uiso   1.00
C369   C     0.53224   0.52049   0.45646   0.00000  Uiso   1.00
C370   C     0.46292   0.48494   0.04346   0.00000  Uiso   1.00
C371   C     0.42862   0.46797   0.46988   0.00000  Uiso   1.00
C372   C     0.56346   0.54404   0.02971   0.00000  Uiso   1.00
C373   C     0.43087   0.46277   0.01627   0.00000  Uiso   1.00
C374   C     0.56298   0.54532   0.48312   0.00000  Uiso   1.00
C375   C     0.35467   0.45825   0.25002   0.00000  Uiso   1.00
C376   C     0.64531   0.54175   0.24974   0.00000  Uiso   1.00
C377   C     0.64541   0.45824   0.25031   0.00000  Uiso   1.00
C378   C     0.35457   0.54176   0.24945   0.00000  Uiso   1.00
H379   H     0.37069   0.42558   0.25019   0.00000  Uiso   1.00
H380   H     0.62929   0.57443   0.24959   0.00000  Uiso   1.00
H381   H     0.62947   0.42557   0.25061   0.00000  Uiso   1.00
H382   H     0.37051   0.57443   0.24915   0.00000  Uiso   1.00
C383   C     0.62386   0.49999   0.25018   0.00000  Uiso   1.00
C384   C     0.37613   0.50001   0.24961   0.00000  Uiso   1.00
C385   C     0.47306   0.35788   0.22089   0.00000  Uiso   1.00
C386   C     0.52694   0.64213   0.27912   0.00000  Uiso   1.00
C387   C     0.52697   0.35816   0.27911   0.00000  Uiso   1.00
C388   C     0.47304   0.64186   0.22089   0.00000  Uiso   1.00
N389   N     0.50000   0.61736   0.25000   0.00000  Uiso   1.00
N390   N     0.50000   0.38264   0.25000   0.00000  Uiso   1.00
C391   C     0.57668   0.50689   0.39156   0.00000  Uiso   1.00
H392   H     0.60229   0.50246   0.41807   0.00000  Uiso   1.00
H393   H     0.57700   0.47523   0.37090   0.00000  Uiso   1.00
H394   H     0.58304   0.53665   0.37046   0.00000  Uiso   1.00
C395   C     0.42120   0.49344   0.11141   0.00000  Uiso   1.00
H396   H     0.39515   0.50220   0.08657   0.00000  Uiso   1.00
H397   H     0.41459   0.46107   0.12860   0.00000  Uiso   1.00
H398   H     0.42217   0.52185   0.13615   0.00000  Uiso   1.00
O399   O     0.42660   0.47740   0.37591   0.00000  Uiso   1.00
H400   H     0.42745   0.48982   0.34550   0.00000  Uiso   1.00
O401   O     0.57273   0.51795   0.12085   0.00000  Uiso   1.00
H402   H     0.57232   0.50332   0.15040   0.00000  Uiso   1.00
O403   O     0.39429   0.45092   0.44517   0.00000  Uiso   1.00
H404   H     0.37866   0.47829   0.43354   0.00000  Uiso   1.00
O405   O     0.59363   0.56902   0.05440   0.00000  Uiso   1.00
H406   H     0.58015   0.58560   0.07808   0.00000  Uiso   1.00
C407   C     0.40157   0.42861   0.03466   0.00000  Uiso   1.00
H408   H     0.39742   0.39822   0.01221   0.00000  Uiso   1.00
H409   H     0.41418   0.41452   0.06720   0.00000  Uiso   1.00
H410   H     0.37081   0.44456   0.03732   0.00000  Uiso   1.00
C411   C     0.59152   0.57940   0.46330   0.00000  Uiso   1.00
H412   H     0.59211   0.61233   0.48219   0.00000  Uiso   1.00
H413   H     0.62346   0.56551   0.46486   0.00000  Uiso   1.00
H414   H     0.58065   0.58882   0.42862   0.00000  Uiso   1.00
C415   C     0.44237   0.38157   0.18760   0.00000  Uiso   1.00
H416   H     0.44272   0.41863   0.18834   0.00000  Uiso   1.00
H417   H     0.44846   0.37198   0.15305   0.00000  Uiso   1.00
H418   H     0.41031   0.37194   0.19372   0.00000  Uiso   1.00
C419   C     0.55760   0.61846   0.31244   0.00000  Uiso   1.00
H420   H     0.55729   0.58140   0.31164   0.00000  Uiso   1.00
H421   H     0.58967   0.62813   0.30640   0.00000  Uiso   1.00
H422   H     0.55143   0.62800   0.34697   0.00000  Uiso   1.00
C423   C     0.55782   0.38210   0.31237   0.00000  Uiso   1.00
H424   H     0.55779   0.41924   0.31196   0.00000  Uiso   1.00
H425   H     0.55182   0.37271   0.34690   0.00000  Uiso   1.00
H426   H     0.58981   0.37221   0.30612   0.00000  Uiso   1.00
C427   C     0.44222   0.61795   0.18762   0.00000  Uiso   1.00
H428   H     0.44227   0.58084   0.18817   0.00000  Uiso   1.00
H429   H     0.41021   0.62787   0.19379   0.00000  Uiso   1.00
H430   H     0.44829   0.62725   0.15309   0.00000  Uiso   1.00
O431   O     0.77321   0.53958   0.25000   0.00000  Uiso   1.00
O432   O     0.89345   0.46042   0.25001   0.00000  Uiso   1.00
O433   O     0.89345   0.53958   0.25001   0.00000  Uiso   1.00
O434   O     0.77321   0.46042   0.25000   0.00000  Uiso   1.00
C435   C     0.75417   0.50001   0.24961   0.00000  Uiso   1.00
C436   C     0.91249   0.49999   0.25027   0.00000  Uiso   1.00
O437   O     0.83332   0.53960   0.18513   0.00000  Uiso   1.00
O438   O     0.83334   0.46040   0.31487   0.00000  Uiso   1.00
O439   O     0.83334   0.53960   0.31487   0.00000  Uiso   1.00
O440   O     0.83332   0.46040   0.18513   0.00000  Uiso   1.00
C441   C     0.83271   0.49991   0.16471   0.00000  Uiso   1.00
C442   C     0.83371   0.50010   0.33529   0.00000  Uiso   1.00
Cu443  Cu    0.83333   0.54689   0.25000   0.00000  Uiso   1.00
Cu444  Cu    0.83333   0.45311   0.25000   0.00000  Uiso   1.00
C445   C     0.86842   0.51206   0.41058   0.00000  Uiso   1.00
C446   C     0.79519   0.49020   0.09014   0.00000  Uiso   1.00
C447   C     0.83238   0.50069   0.38351   0.00000  Uiso   1.00
C448   C     0.83229   0.49981   0.11633   0.00000  Uiso   1.00
C449   C     0.79545   0.48923   0.40237   0.00000  Uiso   1.00
C450   C     0.86817   0.51266   0.09632   0.00000  Uiso   1.00
C451   C     0.79549   0.48726   0.44926   0.00000  Uiso   1.00
C452   C     0.86540   0.52020   0.05001   0.00000  Uiso   1.00
C453   C     0.83048   0.50374   0.47629   0.00000  Uiso   1.00
C454   C     0.83053   0.50326   0.02323   0.00000  Uiso   1.00
C455   C     0.86558   0.52049   0.45646   0.00000  Uiso   1.00
C456   C     0.79625   0.48494   0.04346   0.00000  Uiso   1.00
C457   C     0.76195   0.46797   0.46988   0.00000  Uiso   1.00
C458   C     0.89680   0.54404   0.02971   0.00000  Uiso   1.00
C459   C     0.76420   0.46277   0.01627   0.00000  Uiso   1.00
C460   C     0.89631   0.54532   0.48312   0.00000  Uiso   1.00
C461   C     0.68801   0.45825   0.25002   0.00000  Uiso   1.00
C462   C     0.97864   0.54175   0.24974   0.00000  Uiso   1.00
C463   C     0.97874   0.45824   0.25031   0.00000  Uiso   1.00
C464   C     0.68791   0.54176   0.24945   0.00000  Uiso   1.00
H465   H     0.70402   0.42558   0.25019   0.00000  Uiso   1.00
H466   H     0.96263   0.57443   0.24959   0.00000  Uiso   1.00
H467   H     0.96280   0.42557   0.25061   0.00000  Uiso   1.00
H468   H     0.70385   0.57443   0.24915   0.00000  Uiso   1.00
C469   C     0.95719   0.49999   0.25018   0.00000  Uiso   1.00
C470   C     0.70946   0.50001   0.24961   0.00000  Uiso   1.00
C471   C     0.80640   0.35788   0.22089   0.00000  Uiso   1.00
C472   C     0.86027   0.64213   0.27912   0.00000  Uiso   1.00
C473   C     0.86030   0.35816   0.27911   0.00000  Uiso   1.00
C474   C     0.80637   0.64186   0.22089   0.00000  Uiso   1.00
N475   N     0.83333   0.61736   0.25000   0.00000  Uiso   1.00
N476   N     0.83333   0.38264   0.25000   0.00000  Uiso   1.00
C477   C     0.91001   0.50689   0.39156   0.00000  Uiso   1.00
H478   H     0.93562   0.50246   0.41807   0.00000  Uiso   1.00
H479   H     0.91033   0.47523   0.37090   0.00000  Uiso   1.00
H480   H     0.91637   0.53665   0.37046   0.00000  Uiso   1.00
C481   C     0.75453   0.49344   0.11141   0.00000  Uiso   1.00
H482   H     0.72849   0.50220   0.08657   0.00000  Uiso   1.00
H483   H     0.74792   0.46107   0.12860   0.00000  Uiso   1.00
H484   H     0.75550   0.52185   0.13615   0.00000  Uiso   1.00
O485   O     0.75993   0.47740   0.37591   0.00000  Uiso   1.00
H486   H     0.76079   0.48982   0.34550   0.00000  Uiso   1.00
O487   O     0.90607   0.51795   0.12085   0.00000  Uiso   1.00
H488   H     0.90565   0.50332   0.15040   0.00000  Uiso   1.00
O489   O     0.72762   0.45092   0.44517   0.00000  Uiso   1.00
H490   H     0.71199   0.47829   0.43354   0.00000  Uiso   1.00
O491   O     0.92696   0.56902   0.05440   0.00000  Uiso   1.00
H492   H     0.91349   0.58560   0.07808   0.00000  Uiso   1.00
C493   C     0.73490   0.42861   0.03466   0.00000  Uiso   1.00
H494   H     0.73075   0.39822   0.01221   0.00000  Uiso   1.00
H495   H     0.74752   0.41452   0.06720   0.00000  Uiso   1.00
H496   H     0.70414   0.44456   0.03732   0.00000  Uiso   1.00
C497   C     0.92485   0.57940   0.46330   0.00000  Uiso   1.00
H498   H     0.92544   0.61233   0.48219   0.00000  Uiso   1.00
H499   H     0.95680   0.56551   0.46486   0.00000  Uiso   1.00
H500   H     0.91398   0.58882   0.42862   0.00000  Uiso   1.00
C501   C     0.77570   0.38157   0.18760   0.00000  Uiso   1.00
H502   H     0.77605   0.41863   0.18834   0.00000  Uiso   1.00
H503   H     0.78180   0.37198   0.15305   0.00000  Uiso   1.00
H504   H     0.74364   0.37194   0.19372   0.00000  Uiso   1.00
C505   C     0.89094   0.61846   0.31244   0.00000  Uiso   1.00
H506   H     0.89063   0.58140   0.31164   0.00000  Uiso   1.00
H507   H     0.92301   0.62813   0.30640   0.00000  Uiso   1.00
H508   H     0.88476   0.62800   0.34697   0.00000  Uiso   1.00
C509   C     0.89116   0.38210   0.31237   0.00000  Uiso   1.00
H510   H     0.89112   0.41924   0.31196   0.00000  Uiso   1.00
H511   H     0.88515   0.37271   0.34690   0.00000  Uiso   1.00
H512   H     0.92315   0.37221   0.30612   0.00000  Uiso   1.00
C513   C     0.77555   0.61795   0.18762   0.00000  Uiso   1.00
H514   H     0.77560   0.58084   0.18817   0.00000  Uiso   1.00
H515   H     0.74355   0.62787   0.19379   0.00000  Uiso   1.00
H516   H     0.78163   0.62725   0.15309   0.00000  Uiso   1.00
O517   O     0.10655   0.87291   0.25000   0.00000  Uiso   1.00
O518   O     0.22679   0.79375   0.25001   0.00000  Uiso   1.00
O519   O     0.22679   0.87291   0.25001   0.00000  Uiso   1.00
O520   O     0.10655   0.79375   0.25000   0.00000  Uiso   1.00
C521   C     0.08750   0.83334   0.24961   0.00000  Uiso   1.00
C522   C     0.24582   0.83333   0.25027   0.00000  Uiso   1.00
O523   O     0.16666   0.87293   0.18513   0.00000  Uiso   1.00
O524   O     0.16668   0.79373   0.31487   0.00000  Uiso   1.00
O525   O     0.16668   0.87293   0.31487   0.00000  Uiso   1.00
O526   O     0.16666   0.79373   0.18513   0.00000  Uiso   1.00
C527   C     0.16604   0.83325   0.16471   0.00000  Uiso   1.00
C528   C     0.16704   0.83344   0.33529   0.00000  Uiso   1.00
Cu529  Cu    0.16667   0.88022   0.25000   0.00000  Uiso   1.00
Cu530  Cu    0.16667   0.78645   0.25000   0.00000  Uiso   1.00
C531   C     0.20175   0.84540   0.41058   0.00000  Uiso   1.00
C532   C     0.12852   0.82354   0.09014   0.00000  Uiso   1.00
C533   C     0.16572   0.83402   0.38351   0.00000  Uiso   1.00
C534   C     0.16562   0.83315   0.11633   0.00000  Uiso   1.00
C535   C     0.12878   0.82257   0.40237   0.00000  Uiso   1.00
C536   C     0.20151   0.84599   0.09632   0.00000  Uiso   1.00
C537   C     0.12882   0.82060   0.44926   0.00000  Uiso   1.00
C538   C     0.19873   0.85353   0.05001   0.00000  Uiso   1.00
C539   C     0.16381   0.83708   0.47629   0.00000  Uiso   1.00
C540   C     0.16387   0.83660   0.02323   0.00000  Uiso   1.00
C541   C     0.19891   0.85383   0.45646   0.00000  Uiso   1.00
C542   C     0.12959   0.81828   0.04346   0.00000  Uiso   1.00
C543   C     0.09529   0.80130   0.46988   0.00000  Uiso   1.00
C544   C     0.23013   0.87737   0.02971   0.00000  Uiso   1.00
C545   C     0.09754   0.79611   0.01627   0.00000  Uiso   1.00
C546   C     0.22964   0.87865   0.48312   0.00000  Uiso   1.00
C547   C     0.02134   0.79158   0.25002   0.00000  Uiso   1.00
C548   C     0.31198   0.87509   0.24974   0.00000  Uiso   1.00
C549   C     0.31207   0.79158   0.25031   0.00000  Uiso   1.00
C550   C     0.02124   0.87509   0.24945   0.00000  Uiso   1.00
H551   H     0.03736   0.75891   0.25019   0.00000  Uiso   1.00
H552   H     0.29596   0.90776   0.24959   0.00000  Uiso   1.00
H553   H     0.29614   0.75890   0.25061   0.00000  Uiso   1.00
H554   H     0.03718   0.90777   0.24915   0.00000  Uiso   1.00
C555   C     0.29052   0.83333   0.25018   0.00000  Uiso   1.00
C556   C     0.04279   0.83334   0.24961   0.00000  Uiso   1.00
C557   C     0.13973   0.69121   0.22089   0.00000  Uiso   1.00
C558   C     0.19360   0.97547   0.27912   0.00000  Uiso   1.00
C559   C     0.19364   0.69149   0.27911   0.00000  Uiso   1.00
C560   C     0.13970   0.97520   0.22089   0.00000  Uiso   1.00
N561   N     0.16667   0.95069   0.25000   0.00000  Uiso   1.00
N562   N     0.16667   0.71598   0.25000   0.00000  Uiso   1.00
C563   C     0.24335   0.84022   0.39156   0.00000  Uiso   1.00
H564   H     0.26896   0.83580   0.41807   0.00000  Uiso   1.00
H565   H     0.24366   0.80856   0.37090   0.00000  Uiso   1.00
H566   H     0.24971   0.86999   0.37046   0.00000  Uiso   1.00
C567   C     0.08786   0.82678   0.11141   0.00000  Uiso   1.00
H568   H     0.06182   0.83553   0.08657   0.00000  Uiso   1.00
H569   H     0.08125   0.79441   0.12860   0.00000  Uiso   1.00
H570   H     0.08883   0.85519   0.13615   0.00000  Uiso   1.00
O571   O     0.09327   0.81073   0.37591   0.00000  Uiso   1.00
H572   H     0.09412   0.82316   0.34550   0.00000  Uiso   1.00
O573   O     0.23940   0.85129   0.12085   0.00000  Uiso   1.00
H574   H     0.23898   0.83665   0.15040   0.00000  Uiso   1.00
O575   O     0.06096   0.78425   0.44517   0.00000  Uiso   1.00
H576   H     0.04532   0.81163   0.43354   0.00000  Uiso   1.00
O577   O     0.26030   0.90236   0.05440   0.00000  Uiso   1.00
H578   H     0.24682   0.91894   0.07808   0.00000  Uiso   1.00
C579   C     0.06823   0.76194   0.03466   0.00000  Uiso   1.00
H580   H     0.06408   0.73155   0.01221   0.00000  Uiso   1.00
H581   H     0.08085   0.74785   0.06720   0.00000  Uiso   1.00
H582   H     0.03747   0.77789   0.03732   0.00000  Uiso   1.00
C583   C     0.25818   0.91274   0.46330   0.00000  Uiso   1.00
H584   H     0.25878   0.94566   0.48219   0.00000  Uiso   1.00
H585   H     0.29013   0.89885   0.46486   0.00000  Uiso   1.00
H586   H     0.24731   0.92215   0.42862   0.00000  Uiso   1.00
C587   C     0.10904   0.71490   0.18760   0.00000  Uiso   1.00
H588   H     0.10939   0.75196   0.18834   0.00000  Uiso   1.00
H589   H     0.11513   0.70531   0.15305   0.00000  Uiso   1.00
H590   H     0.07697   0.70527   0.19372   0.00000  Uiso   1.00
C591   C     0.22427   0.95179   0.31244   0.00000  Uiso   1.00
H592   H     0.22396   0.91473   0.31164   0.00000  Uiso   1.00
H593   H     0.25634   0.96147   0.30640   0.00000  Uiso   1.00
H594   H     0.21810   0.96133   0.34697   0.00000  Uiso   1.00
C595   C     0.22449   0.71544   0.31237   0.00000  Uiso   1.00
H596   H     0.22445   0.75258   0.31196   0.00000  Uiso   1.00
H597   H     0.21849   0.70605   0.34690   0.00000  Uiso   1.00
H598   H     0.25648   0.70554   0.30612   0.00000  Uiso   1.00
C599   C     0.10888   0.95128   0.18762   0.00000  Uiso   1.00
H600   H     0.10894   0.91418   0.18817   0.00000  Uiso   1.00
H601   H     0.07688   0.96120   0.19379   0.00000  Uiso   1.00
H602   H     0.11496   0.96058   0.15309   0.00000  Uiso   1.00
O603   O     0.43988   0.87291   0.25000   0.00000  Uiso   1.00
O604   O     0.56012   0.79375   0.25001   0.00000  Uiso   1.00
O605   O     0.56012   0.87291   0.25001   0.00000  Uiso   1.00
O606   O     0.43988   0.79375   0.25000   0.00000  Uiso   1.00
C607   C     0.42084   0.83334   0.24961   0.00000  Uiso   1.00
C608   C     0.57915   0.83333   0.25027   0.00000  Uiso   1.00
O609   O     0.49999   0.87293   0.18513   0.00000  Uiso   1.00
O610   O     0.50001   0.79373   0.31487   0.00000  Uiso   1.00
O611   O     0.50001   0.87293   0.31487   0.00000  Uiso   1.00
O612   O     0.49999   0.79373   0.18513   0.00000  Uiso   1.00
C613   C     0.49937   0.83325   0.16471   0.00000  Uiso   1.00
C614   C     0.50037   0.83344   0.33529   0.00000  Uiso   1.00
Cu615  Cu    0.50000   0.88022   0.25000   0.00000  Uiso   1.00
Cu616  Cu    0.50000   0.78645   0.25000   0.00000  Uiso   1.00
C617   C     0.53509   0.84540   0.41058   0.00000  Uiso   1.00
C618   C     0.46185   0.82354   0.09014   0.00000  Uiso   1.00
C619   C     0.49905   0.83402   0.38351   0.00000  Uiso   1.00
C620   C     0.49895   0.83315   0.11633   0.00000  Uiso   1.00
C621   C     0.46211   0.82257   0.40237   0.00000  Uiso   1.00
C622   C     0.53484   0.84599   0.09632   0.00000  Uiso   1.00
C623   C     0.46215   0.82060   0.44926   0.00000  Uiso   1.00
C624   C     0.53207   0.85353   0.05001   0.00000  Uiso   1.00
C625   C     0.49714   0.83708   0.47629   0.00000  Uiso   1.00
C626   C     0.49720   0.83660   0.02323   0.00000  Uiso   1.00
C627   C     0.53224   0.85383   0.45646   0.00000  Uiso   1.00
C628   C     0.46292   0.81828   0.04346   0.00000  Uiso   1.00
C629   C     0.42862   0.80130   0.46988   0.00000  Uiso   1.00
C630   C     0.56346   0.87737   0.02971   0.00000  Uiso   1.00
C631   C     0.43087   0.79611   0.01627   0.00000  Uiso   1.00
C632   C     0.56298   0.87865   0.48312   0.00000  Uiso   1.00
C633   C     0.35467   0.79158   0.25002   0.00000  Uiso   1.00
C634   C     0.64531   0.87509   0.24974   0.00000  Uiso   1.00
C635   C     0.64541   0.79158   0.25031   0.00000  Uiso   1.00
C636   C     0.35457   0.87509   0.24945   0.00000  Uiso   1.00
H637   H     0.37069   0.75891   0.25019   0.00000  Uiso   1.00
H638   H     0.62929   0.90776   0.24959   0.00000  Uiso   1.00
H639   H     0.62947   0.75890   0.25061   0.00000  Uiso   1.00
H640   H     0.37051   0.90777   0.24915   0.00000  Uiso   1.00
C641   C     0.62386   0.83333   0.25018   0.00000  Uiso   1.00
C642   C     0.37613   0.83334   0.24961   0.00000  Uiso   1.00
C643   C     0.47306   0.69121   0.22089   0.00000  Uiso   1.00
C644   C     0.52694   0.97547   0.27912   0.00000  Uiso   1.00
C645   C     0.52697   0.69149   0.27911   0.00000  Uiso   1.00
C646   C     0.47304   0.97520   0.22089   0.00000  Uiso   1.00
N647   N     0.50000   0.95069   0.25000   0.00000  Uiso   1.00
N648   N     0.50000   0.71598   0.25000   0.00000  Uiso   1.00
C649   C     0.57668   0.84022   0.39156   0.00000  Uiso   1.00
H650   H     0.60229   0.83580   0.41807   0.00000  Uiso   1.00
H651   H     0.57700   0.80856   0.37090   0.00000  Uiso   1.00
H652   H     0.58304   0.86999   0.37046   0.00000  Uiso   1.00
C653   C     0.42120   0.82678   0.11141   0.00000  Uiso   1.00
H654   H     0.39515   0.83553   0.08657   0.00000  Uiso   1.00
H655   H     0.41459   0.79441   0.12860   0.00000  Uiso   1.00
H656   H     0.42217   0.85519   0.13615   0.00000  Uiso   1.00
O657   O     0.42660   0.81073   0.37591   0.00000  Uiso   1.00
H658   H     0.42745   0.82316   0.34550   0.00000  Uiso   1.00
O659   O     0.57273   0.85129   0.12085   0.00000  Uiso   1.00
H660   H     0.57232   0.83665   0.15040   0.00000  Uiso   1.00
O661   O     0.39429   0.78425   0.44517   0.00000  Uiso   1.00
H662   H     0.37866   0.81163   0.43354   0.00000  Uiso   1.00
O663   O     0.59363   0.90236   0.05440   0.00000  Uiso   1.00
H664   H     0.58015   0.91894   0.07808   0.00000  Uiso   1.00
C665   C     0.40157   0.76194   0.03466   0.00000  Uiso   1.00
H666   H     0.39742   0.73155   0.01221   0.00000  Uiso   1.00
H667   H     0.41418   0.74785   0.06720   0.00000  Uiso   1.00
H668   H     0.37081   0.77789   0.03732   0.00000  Uiso   1.00
C669   C     0.59152   0.91274   0.46330   0.00000  Uiso   1.00
H670   H     0.59211   0.94566   0.48219   0.00000  Uiso   1.00
H671   H     0.62346   0.89885   0.46486   0.00000  Uiso   1.00
H672   H     0.58065   0.92215   0.42862   0.00000  Uiso   1.00
C673   C     0.44237   0.71490   0.18760   0.00000  Uiso   1.00
H674   H     0.44272   0.75196   0.18834   0.00000  Uiso   1.00
H675   H     0.44846   0.70531   0.15305   0.00000  Uiso   1.00
H676   H     0.41031   0.70527   0.19372   0.00000  Uiso   1.00
C677   C     0.55760   0.95179   0.31244   0.00000  Uiso   1.00
H678   H     0.55729   0.91473   0.31164   0.00000  Uiso   1.00
H679   H     0.58967   0.96147   0.30640   0.00000  Uiso   1.00
H680   H     0.55143   0.96133   0.34697   0.00000  Uiso   1.00
C681   C     0.55782   0.71544   0.31237   0.00000  Uiso   1.00
H682   H     0.55779   0.75258   0.31196   0.00000  Uiso   1.00
H683   H     0.55182   0.70605   0.34690   0.00000  Uiso   1.00
H684   H     0.58981   0.70554   0.30612   0.00000  Uiso   1.00
C685   C     0.44222   0.95128   0.18762   0.00000  Uiso   1.00
H686   H     0.44227   0.91418   0.18817   0.00000  Uiso   1.00
H687   H     0.41021   0.96120   0.19379   0.00000  Uiso   1.00
H688   H     0.44829   0.96058   0.15309   0.00000  Uiso   1.00
O689   O     0.77321   0.87291   0.25000   0.00000  Uiso   1.00
O690   O     0.89345   0.79375   0.25001   0.00000  Uiso   1.00
O691   O     0.89345   0.87291   0.25001   0.00000  Uiso   1.00
O692   O     0.77321   0.79375   0.25000   0.00000  Uiso   1.00
C693   C     0.75417   0.83334   0.24961   0.00000  Uiso   1.00
C694   C     0.91249   0.83333   0.25027   0.00000  Uiso   1.00
O695   O     0.83332   0.87293   0.18513   0.00000  Uiso   1.00
O696   O     0.83334   0.79373   0.31487   0.00000  Uiso   1.00
O697   O     0.83334   0.87293   0.31487   0.00000  Uiso   1.00
O698   O     0.83332   0.79373   0.18513   0.00000  Uiso   1.00
C699   C     0.83271   0.83325   0.16471   0.00000  Uiso   1.00
C700   C     0.83371   0.83344   0.33529   0.00000  Uiso   1.00
Cu701  Cu    0.83333   0.88022   0.25000   0.00000  Uiso   1.00
Cu702  Cu    0.83333   0.78645   0.25000   0.00000  Uiso   1.00
C703   C     0.86842   0.84540   0.41058   0.00000  Uiso   1.00
C704   C     0.79519   0.82354   0.09014   0.00000  Uiso   1.00
C705   C     0.83238   0.83402   0.38351   0.00000  Uiso   1.00
C706   C     0.83229   0.83315   0.11633   0.00000  Uiso   1.00
C707   C     0.79545   0.82257   0.40237   0.00000  Uiso   1.00
C708   C     0.86817   0.84599   0.09632   0.00000  Uiso   1.00
C709   C     0.79549   0.82060   0.44926   0.00000  Uiso   1.00
C710   C     0.86540   0.85353   0.05001   0.00000  Uiso   1.00
C711   C     0.83048   0.83708   0.47629   0.00000  Uiso   1.00
C712   C     0.83053   0.83660   0.02323   0.00000  Uiso   1.00
C713   C     0.86558   0.85383   0.45646   0.00000  Uiso   1.00
C714   C     0.79625   0.81828   0.04346   0.00000  Uiso   1.00
C715   C     0.76195   0.80130   0.46988   0.00000  Uiso   1.00
C716   C     0.89680   0.87737   0.02971   0.00000  Uiso   1.00
C717   C     0.76420   0.79611   0.01627   0.00000  Uiso   1.00
C718   C     0.89631   0.87865   0.48312   0.00000  Uiso   1.00
C719   C     0.68801   0.79158   0.25002   0.00000  Uiso   1.00
C720   C     0.97864   0.87509   0.24974   0.00000  Uiso   1.00
C721   C     0.97874   0.79158   0.25031   0.00000  Uiso   1.00
C722   C     0.68791   0.87509   0.24945   0.00000  Uiso   1.00
H723   H     0.70402   0.75891   0.25019   0.00000  Uiso   1.00
H724   H     0.96263   0.90776   0.24959   0.00000  Uiso   1.00
H725   H     0.96280   0.75890   0.25061   0.00000  Uiso   1.00
H726   H     0.70385   0.90777   0.24915   0.00000  Uiso   1.00
C727   C     0.95719   0.83333   0.25018   0.00000  Uiso   1.00
C728   C     0.70946   0.83334   0.24961   0.00000  Uiso   1.00
C729   C     0.80640   0.69121   0.22089   0.00000  Uiso   1.00
C730   C     0.86027   0.97547   0.27912   0.00000  Uiso   1.00
C731   C     0.86030   0.69149   0.27911   0.00000  Uiso   1.00
C732   C     0.80637   0.97520   0.22089   0.00000  Uiso   1.00
N733   N     0.83333   0.95069   0.25000   0.00000  Uiso   1.00
N734   N     0.83333   0.71598   0.25000   0.00000  Uiso   1.00
C735   C     0.91001   0.84022   0.39156   0.00000  Uiso   1.00
H736   H     0.93562   0.83580   0.41807   0.00000  Uiso   1.00
H737   H     0.91033   0.80856   0.37090   0.00000  Uiso   1.00
H738   H     0.91637   0.86999   0.37046   0.00000  Uiso   1.00
C739   C     0.75453   0.82678   0.11141   0.00000  Uiso   1.00
H740   H     0.72849   0.83553   0.08657   0.00000  Uiso   1.00
H741   H     0.74792   0.79441   0.12860   0.00000  Uiso   1.00
H742   H     0.75550   0.85519   0.13615   0.00000  Uiso   1.00
O743   O     0.75993   0.81073   0.37591   0.00000  Uiso   1.00
H744   H     0.76079   0.82316   0.34550   0.00000  Uiso   1.00
O745   O     0.90607   0.85129   0.12085   0.00000  Uiso   1.00
H746   H     0.90565   0.83665   0.15040   0.00000  Uiso   1.00
O747   O     0.72762   0.78425   0.44517   0.00000  Uiso   1.00
H748   H     0.71199   0.81163   0.43354   0.00000  Uiso   1.00
O749   O     0.92696   0.90236   0.05440   0.00000  Uiso   1.00
H750   H     0.91349   0.91894   0.07808   0.00000  Uiso   1.00
C751   C     0.73490   0.76194   0.03466   0.00000  Uiso   1.00
H752   H     0.73075   0.73155   0.01221   0.00000  Uiso   1.00
H753   H     0.74752   0.74785   0.06720   0.00000  Uiso   1.00
H754   H     0.70414   0.77789   0.03732   0.00000  Uiso   1.00
C755   C     0.92485   0.91274   0.46330   0.00000  Uiso   1.00
H756   H     0.92544   0.94566   0.48219   0.00000  Uiso   1.00
H757   H     0.95680   0.89885   0.46486   0.00000  Uiso   1.00
H758   H     0.91398   0.92215   0.42862   0.00000  Uiso   1.00
C759   C     0.77570   0.71490   0.18760   0.00000  Uiso   1.00
H760   H     0.77605   0.75196   0.18834   0.00000  Uiso   1.00
H761   H     0.78180   0.70531   0.15305   0.00000  Uiso   1.00
H762   H     0.74364   0.70527   0.19372   0.00000  Uiso   1.00
C763   C     0.89094   0.95179   0.31244   0.00000  Uiso   1.00
H764   H     0.89063   0.91473   0.31164   0.00000  Uiso   1.00
H765   H     0.92301   0.96147   0.30640   0.00000  Uiso   1.00
H766   H     0.88476   0.96133   0.34697   0.00000  Uiso   1.00
C767   C     0.89116   0.71544   0.31237   0.00000  Uiso   1.00
H768   H     0.89112   0.75258   0.31196   0.00000  Uiso   1.00
H769   H     0.88515   0.70605   0.34690   0.00000  Uiso   1.00
H770   H     0.92315   0.70554   0.30612   0.00000  Uiso   1.00
C771   C     0.77555   0.95128   0.18762   0.00000  Uiso   1.00
H772   H     0.77560   0.91418   0.18817   0.00000  Uiso   1.00
H773   H     0.74355   0.96120   0.19379   0.00000  Uiso   1.00
H774   H     0.78163   0.96058   0.15309   0.00000  Uiso   1.00
O775   O     0.10655   0.20625   0.75000   0.00000  Uiso   1.00
O776   O     0.22679   0.12709   0.75001   0.00000  Uiso   1.00
O777   O     0.22679   0.20625   0.75001   0.00000  Uiso   1.00
O778   O     0.10655   0.12709   0.75000   0.00000  Uiso   1.00
C779   C     0.08750   0.16667   0.74961   0.00000  Uiso   1.00
C780   C     0.24582   0.16666   0.75027   0.00000  Uiso   1.00
O781   O     0.16666   0.20627   0.68513   0.00000  Uiso   1.00
O782   O     0.16668   0.12707   0.81487   0.00000  Uiso   1.00
O783   O     0.16668   0.20627   0.81487   0.00000  Uiso   1.00
O784   O     0.16666   0.12707   0.68513   0.00000  Uiso   1.00
C785   C     0.16604   0.16658   0.66471   0.00000  Uiso   1.00
C786   C     0.16704   0.16677   0.83529   0.00000  Uiso   1.00
Cu787  Cu    0.16667   0.21355   0.75000   0.00000  Uiso   1.00
Cu788  Cu    0.16667   0.11978   0.75000   0.00000  Uiso   1.00
C789   C     0.20175   0.17873   0.91058   0.00000  Uiso   1.00
C790   C     0.12852   0.15687   0.59014   0.00000  Uiso   1.00
C791   C     0.16572   0.16735   0.88351   0.00000  Uiso   1.00
C792   C     0.16562   0.16648   0.61633   0.00000  Uiso   1.00
C793   C     0.12878   0.15590   0.90237   0.00000  Uiso   1.00
C794   C     0.20151   0.17932   0.59632   0.00000  Uiso   1.00
C795   C     0.12882   0.15393   0.94926   0.00000  Uiso   1.00
C796   C     0.19873   0.18686   0.55001   0.00000  Uiso   1.00
C797   C     0.16381   0.17041   0.97629   0.00000  Uiso   1.00
C798   C     0.16387   0.16993   0.52323   0.00000  Uiso   1.00
C799   C     0.19891   0.18716   0.95646   0.00000  Uiso   1.00
C800   C     0.12959   0.15161   0.54346   0.00000  Uiso   1.00
C801   C     0.09529   0.13463   0.96988   0.00000  Uiso   1.00
C802   C     0.23013   0.21070   0.52971   0.00000  Uiso   1.00
C803   C     0.09754   0.12944   0.51627   0.00000  Uiso   1.00
C804   C     0.22964   0.21199   0.98312   0.00000  Uiso   1.00
C805   C     0.02134   0.12492   0.75002   0.00000  Uiso   1.00
C806   C     0.31198   0.20842   0.74974   0.00000  Uiso   1.00
C807   C     0.31207   0.12491   0.75031   0.00000  Uiso   1.00
C808   C     0.02124   0.20843   0.74945   0.00000  Uiso   1.00
H809   H     0.03736   0.09224   0.75019   0.00000  Uiso   1.00
H810   H     0.29596   0.24109   0.74959   0.00000  Uiso   1.00
H811   H     0.29614   0.09223   0.75061   0.00000  Uiso   1.00
H812   H     0.03718   0.24110   0.74915   0.00000  Uiso   1.00
C813   C     0.29052   0.16666   0.75018   0.00000  Uiso   1.00
C814   C     0.04279   0.16667   0.74961   0.00000  Uiso   1.00
C815   C     0.13973   0.02454   0.72089   0.00000  Uiso   1.00
C816   C     0.19360   0.30880   0.77912   0.00000  Uiso   1.00
C817   C     0.19364   0.02482   0.77911   0.00000  Uiso   1.00
C818   C     0.13970   0.30853   0.72089   0.00000  Uiso   1.00
N819   N     0.16667   0.28402   0.75000   0.00000  Uiso   1.00
N820   N     0.16667   0.04931   0.75000   0.00000  Uiso   1.00
C821   C     0.24335   0.17355   0.89156   0.00000  Uiso   1.00
H822   H     0.26896   0.16913   0.91807   0.00000  Uiso   1.00
H823   H     0.24366   0.14190   0.87090   0.00000  Uiso   1.00
H824   H     0.24971   0.20332   0.87046   0.00000  Uiso   1.00
C825   C     0.08786   0.16011   0.61141   0.00000  Uiso   1.00
H826   H     0.06182   0.16886   0.58657   0.00000  Uiso   1.00
H827   H     0.08125   0.12774   0.62860   0.00000  Uiso   1.00
H828   H     0.08883   0.18852   0.63615   0.00000  Uiso   1.00
O829   O     0.09327   0.14407   0.87591   0.00000  Uiso   1.00
H830   H     0.09412   0.15649   0.84550   0.00000  Uiso   1.00
O831   O     0.23940   0.18462   0.62085   0.00000  Uiso   1.00
H832   H     0.23898   0.16998   0.65040   0.00000  Uiso   1.00
O833   O     0.06096   0.11759   0.94517   0.00000  Uiso   1.00
H834   H     0.04532   0.14496   0.93354   0.00000  Uiso   1.00
O835   O     0.26030   0.23569   0.55440   0.00000  Uiso   1.00
H836   H     0.24682   0.25227   0.57808   0.00000  Uiso   1.00
C837   C     0.06823   0.09527   0.53466   0.00000  Uiso   1.00
H838   H     0.06408   0.06488   0.51221   0.00000  Uiso   1.00
H839   H     0.08085   0.08118   0.56720   0.00000  Uiso   1.00
H840   H     0.03747   0.11123   0.53732   0.00000  Uiso   1.00
C841   C     0.25818   0.24607   0.96330   0.00000  Uiso   1.00
H842   H     0.25878   0.27899   0.98219   0.00000  Uiso   1.00
H843   H     0.29013   0.23218   0.96486   0.00000  Uiso   1.00
H844   H     0.24731   0.25548   0.92862   0.00000  Uiso   1.00
C845   C     0.10904   0.04823   0.68760   0.00000  Uiso   1.00
H846   H     0.10939   0.08529   0.68834   0.00000  Uiso   1.00
H847   H     0.11513   0.03865   0.65305   0.00000  Uiso   1.00
H848   H     0.07697   0.03861   0.69372   0.00000  Uiso   1.00
C849   C     0.22427   0.28512   0.81244   0.00000  Uiso   1.00
H850   H     0.22396   0.24807   0.81164   0.00000  Uiso   1.00
H851   H     0.25634   0.29480   0.80640   0.00000  Uiso   1.00
H852   H     0.21810   0.29466   0.84697   0.00000  Uiso   1.00
C853   C     0.22449   0.04877   0.81237   0.00000  Uiso   1.00
H854   H     0.22445   0.08591   0.81196   0.00000  Uiso   1.00
H855   H     0.21849   0.03938   0.84690   0.00000  Uiso   1.00
H856   H     0.25648   0.03887   0.80612   0.00000  Uiso   1.00
C857   C     0.10888   0.28461   0.68762   0.00000  Uiso   1.00
H858   H     0.10894   0.24751   0.68817   0.00000  Uiso   1.00
H859   H     0.07688   0.29454   0.69379   0.00000  Uiso   1.00
H860   H     0.11496   0.29391   0.65309   0.00000  Uiso   1.00
O861   O     0.43988   0.20625   0.75000   0.00000  Uiso   1.00
O862   O     0.56012   0.12709   0.75001   0.00000  Uiso   1.00
O863   O     0.56012   0.20625   0.75001   0.00000  Uiso   1.00
O864   O     0.43988   0.12709   0.75000   0.00000  Uiso   1.00
C865   C     0.42084   0.16667   0.74961   0.00000  Uiso   1.00
C866   C     0.57915   0.16666   0.75027   0.00000  Uiso   1.00
O867   O     0.49999   0.20627   0.68513   0.00000  Uiso   1.00
O868   O     0.50001   0.12707   0.81487   0.00000  Uiso   1.00
O869   O     0.50001   0.20627   0.81487   0.00000  Uiso   1.00
O870   O     0.49999   0.12707   0.68513   0.00000  Uiso   1.00
C871   C     0.49937   0.16658   0.66471   0.00000  Uiso   1.00
C872   C     0.50037   0.16677   0.83529   0.00000  Uiso   1.00
Cu873  Cu    0.50000   0.21355   0.75000   0.00000  Uiso   1.00
Cu874  Cu    0.50000   0.11978   0.75000   0.00000  Uiso   1.00
C875   C     0.53509   0.17873   0.91058   0.00000  Uiso   1.00
C876   C     0.46185   0.15687   0.59014   0.00000  Uiso   1.00
C877   C     0.49905   0.16735   0.88351   0.00000  Uiso   1.00
C878   C     0.49895   0.16648   0.61633   0.00000  Uiso   1.00
C879   C     0.46211   0.15590   0.90237   0.00000  Uiso   1.00
C880   C     0.53484   0.17932   0.59632   0.00000  Uiso   1.00
C881   C     0.46215   0.15393   0.94926   0.00000  Uiso   1.00
C882   C     0.53207   0.18686   0.55001   0.00000  Uiso   1.00
C883   C     0.49714   0.17041   0.97629   0.00000  Uiso   1.00
C884   C     0.49720   0.16993   0.52323   0.00000  Uiso   1.00
C885   C     0.53224   0.18716   0.95646   0.00000  Uiso   1.00
C886   C     0.46292   0.15161   0.54346   0.00000  Uiso   1.00
C887   C     0.42862   0.13463   0.96988   0.00000  Uiso   1.00
C888   C     0.56346   0.21070   0.52971   0.00000  Uiso   1.00
C889   C     0.43087   0.12944   0.51627   0.00000  Uiso   1.00
C890   C     0.56298   0.21199   0.98312   0.00000  Uiso   1.00
C891   C     0.35467   0.12492   0.75002   0.00000  Uiso   1.00
C892   C     0.64531   0.20842   0.74974   0.00000  Uiso   1.00
C893   C     0.64541   0.12491   0.75031   0.00000  Uiso   1.00
C894   C     0.35457   0.20843   0.74945   0.00000  Uiso   1.00
H895   H     0.37069   0.09224   0.75019   0.00000  Uiso   1.00
H896   H     0.62929   0.24109   0.74959   0.00000  Uiso   1.00
H897   H     0.62947   0.09223   0.75061   0.00000  Uiso   1.00
H898   H     0.37051   0.24110   0.74915   0.00000  Uiso   1.00
C899   C     0.62386   0.16666   0.75018   0.00000  Uiso   1.00
C900   C     0.37613   0.16667   0.74961   0.00000  Uiso   1.00
C901   C     0.47306   0.02454   0.72089   0.00000  Uiso   1.00
C902   C     0.52694   0.30880   0.77912   0.00000  Uiso   1.00
C903   C     0.52697   0.02482   0.77911   0.00000  Uiso   1.00
C904   C     0.47304   0.30853   0.72089   0.00000  Uiso   1.00
N905   N     0.50000   0.28402   0.75000   0.00000  Uiso   1.00
N906   N     0.50000   0.04931   0.75000   0.00000  Uiso   1.00
C907   C     0.57668   0.17355   0.89156   0.00000  Uiso   1.00
H908   H     0.60229   0.16913   0.91807   0.00000  Uiso   1.00
H909   H     0.57700   0.14190   0.87090   0.00000  Uiso   1.00
H910   H     0.58304   0.20332   0.87046   0.00000  Uiso   1.00
C911   C     0.42120   0.16011   0.61141   0.00000  Uiso   1.00
H912   H     0.39515   0.16886   0.58657   0.00000  Uiso   1.00
H913   H     0.41459   0.12774   0.62860   0.00000  Uiso   1.00
H914   H     0.42217   0.18852   0.63615   0.00000  Uiso   1.00
O915   O     0.42660   0.14407   0.87591   0.00000  Uiso   1.00
H916   H     0.42745   0.15649   0.84550   0.00000  Uiso   1.00
O917   O     0.57273   0.18462   0.62085   0.00000  Uiso   1.00
H918   H     0.57232   0.16998   0.65040   0.00000  Uiso   1.00
O919   O     0.39429   0.11759   0.94517   0.00000  Uiso   1.00
H920   H     0.37866   0.14496   0.93354   0.00000  Uiso   1.00
O921   O     0.59363   0.23569   0.55440   0.00000  Uiso   1.00
H922   H     0.58015   0.25227   0.57808   0.00000  Uiso   1.00
C923   C     0.40157   0.09527   0.53466   0.00000  Uiso   1.00
H924   H     0.39742   0.06488   0.51221   0.00000  Uiso   1.00
H925   H     0.41418   0.08118   0.56720   0.00000  Uiso   1.00
H926   H     0.37081   0.11123   0.53732   0.00000  Uiso   1.00
C927   C     0.59152   0.24607   0.96330   0.00000  Uiso   1.00
H928   H     0.59211   0.27899   0.98219   0.00000  Uiso   1.00
H929   H     0.62346   0.23218   0.96486   0.00000  Uiso   1.00
H930   H     0.58065   0.25548   0.92862   0.00000  Uiso   1.00
C931   C     0.44237   0.04823   0.68760   0.00000  Uiso   1.00
H932   H     0.44272   0.08529   0.68834   0.00000  Uiso   1.00
H933   H     0.44846   0.03865   0.65305   0.00000  Uiso   1.00
H934   H     0.41031   0.03861   0.69372   0.00000  Uiso   1.00
C935   C     0.55760   0.28512   0.81244   0.00000  Uiso   1.00
H936   H     0.55729   0.24807   0.81164   0.00000  Uiso   1.00
H937   H     0.58967   0.29480   0.80640   0.00000  Uiso   1.00
H938   H     0.55143   0.29466   0.84697   0.00000  Uiso   1.00
C939   C     0.55782   0.04877   0.81237   0.00000  Uiso   1.00
H940   H     0.55779   0.08591   0.81196   0.00000  Uiso   1.00
H941   H     0.55182   0.03938   0.84690   0.00000  Uiso   1.00
H942   H     0.58981   0.03887   0.80612   0.00000  Uiso   1.00
C943   C     0.44222   0.28461   0.68762   0.00000  Uiso   1.00
H944   H     0.44227   0.24751   0.68817   0.00000  Uiso   1.00
H945   H     0.41021   0.29454   0.69379   0.00000  Uiso   1.00
H946   H     0.44829   0.29391   0.65309   0.00000  Uiso   1.00
O947   O     0.77321   0.20625   0.75000   0.00000  Uiso   1.00
O948   O     0.89345   0.12709   0.75001   0.00000  Uiso   1.00
O949   O     0.89345   0.20625   0.75001   0.00000  Uiso   1.00
O950   O     0.77321   0.12709   0.75000   0.00000  Uiso   1.00
C951   C     0.75417   0.16667   0.74961   0.00000  Uiso   1.00
C952   C     0.91249   0.16666   0.75027   0.00000  Uiso   1.00
O953   O     0.83332   0.20627   0.68513   0.00000  Uiso   1.00
O954   O     0.83334   0.12707   0.81487   0.00000  Uiso   1.00
O955   O     0.83334   0.20627   0.81487   0.00000  Uiso   1.00
O956   O     0.83332   0.12707   0.68513   0.00000  Uiso   1.00
C957   C     0.83271   0.16658   0.66471   0.00000  Uiso   1.00
C958   C     0.83371   0.16677   0.83529   0.00000  Uiso   1.00
Cu959  Cu    0.83333   0.21355   0.75000   0.00000  Uiso   1.00
Cu960  Cu    0.83333   0.11978   0.75000   0.00000  Uiso   1.00
C961   C     0.86842   0.17873   0.91058   0.00000  Uiso   1.00
C962   C     0.79519   0.15687   0.59014   0.00000  Uiso   1.00
C963   C     0.83238   0.16735   0.88351   0.00000  Uiso   1.00
C964   C     0.83229   0.16648   0.61633   0.00000  Uiso   1.00
C965   C     0.79545   0.15590   0.90237   0.00000  Uiso   1.00
C966   C     0.86817   0.17932   0.59632   0.00000  Uiso   1.00
C967   C     0.79549   0.15393   0.94926   0.00000  Uiso   1.00
C968   C     0.86540   0.18686   0.55001   0.00000  Uiso   1.00
C969   C     0.83048   0.17041   0.97629   0.00000  Uiso   1.00
C970   C     0.83053   0.16993   0.52323   0.00000  Uiso   1.00
C971   C     0.86558   0.18716   0.95646   0.00000  Uiso   1.00
C972   C     0.79625   0.15161   0.54346   0.00000  Uiso   1.00
C973   C     0.76195   0.13463   0.96988   0.00000  Uiso   1.00
C974   C     0.89680   0.21070   0.52971   0.00000  Uiso   1.00
C975   C     0.76420   0.12944   0.51627   0.00000  Uiso   1.00
C976   C     0.89631   0.21199   0.98312   0.00000  Uiso   1.00
C977   C     0.68801   0.12492   0.75002   0.00000  Uiso   1.00
C978   C     0.97864   0.20842   0.74974   0.00000  Uiso   1.00
C979   C     0.97874   0.12491   0.75031   0.00000  Uiso   1.00
C980   C     0.68791   0.20843   0.74945   0.00000  Uiso   1.00
H981   H     0.70402   0.09224   0.75019   0.00000  Uiso   1.00
H982   H     0.96263   0.24109   0.74959   0.00000  Uiso   1.00
H983   H     0.96280   0.09223   0.75061   0.00000  Uiso   1.00
H984   H     0.70385   0.24110   0.74915   0.00000  Uiso   1.00
C985   C     0.95719   0.16666   0.75018   0.00000  Uiso   1.00
C986   C     0.70946   0.16667   0.74961   0.00000  Uiso   1.00
C987   C     0.80640   0.02454   0.72089   0.00000  Uiso   1.00
C988   C     0.86027   0.30880   0.77912   0.00000  Uiso   1.00
C989   C     0.86030   0.02482   0.77911   0.00000  Uiso   1.00
C990   C     0.80637   0.30853   0.72089   0.00000  Uiso   1.00
N991   N     0.83333   0.28402   0.75000   0.00000  Uiso   1.00
N992   N     0.83333   0.04931   0.75000   0.00000  Uiso   1.00
C993   C     0.91001   0.17355   0.89156   0.00000  Uiso   1.00
H994   H     0.93562   0.16913   0.91807   0.00000  Uiso   1.00
H995   H     0.91033   0.14190   0.87090   0.00000  Uiso   1.00
H996   H     0.91637   0.20332   0.87046   0.00000  Uiso   1.00
C997   C     0.75453   0.16011   0.61141   0.00000  Uiso   1.00
H998   H     0.72849   0.16886   0.58657   0.00000  Uiso   1.00
H999   H     0.74792   0.12774   0.62860   0.00000  Uiso   1.00
H1000  H     0.75550   0.18852   0.63615   0.00000  Uiso   1.00
O1001  O     0.75993   0.14407   0.87591   0.00000  Uiso   1.00
H1002  H     0.76079   0.15649   0.84550   0.00000  Uiso   1.00
O1003  O     0.90607   0.18462   0.62085   0.00000  Uiso   1.00
H1004  H     0.90565   0.16998   0.65040   0.00000  Uiso   1.00
O1005  O     0.72762   0.11759   0.94517   0.00000  Uiso   1.00
H1006  H     0.71199   0.14496   0.93354   0.00000  Uiso   1.00
O1007  O     0.92696   0.23569   0.55440   0.00000  Uiso   1.00
H1008  H     0.91349   0.25227   0.57808   0.00000  Uiso   1.00
C1009  C     0.73490   0.09527   0.53466   0.00000  Uiso   1.00
H1010  H     0.73075   0.06488   0.51221   0.00000  Uiso   1.00
H1011  H     0.74752   0.08118   0.56720   0.00000  Uiso   1.00
H1012  H     0.70414   0.11123   0.53732   0.00000  Uiso   1.00
C1013  C     0.92485   0.24607   0.96330   0.00000  Uiso   1.00
H1014  H     0.92544   0.27899   0.98219   0.00000  Uiso   1.00
H1015  H     0.95680   0.23218   0.96486   0.00000  Uiso   1.00
H1016  H     0.91398   0.25548   0.92862   0.00000  Uiso   1.00
C1017  C     0.77570   0.04823   0.68760   0.00000  Uiso   1.00
H1018  H     0.77605   0.08529   0.68834   0.00000  Uiso   1.00
H1019  H     0.78180   0.03865   0.65305   0.00000  Uiso   1.00
H1020  H     0.74364   0.03861   0.69372   0.00000  Uiso   1.00
C1021  C     0.89094   0.28512   0.81244   0.00000  Uiso   1.00
H1022  H     0.89063   0.24807   0.81164   0.00000  Uiso   1.00
H1023  H     0.92301   0.29480   0.80640   0.00000  Uiso   1.00
H1024  H     0.88476   0.29466   0.84697   0.00000  Uiso   1.00
C1025  C     0.89116   0.04877   0.81237   0.00000  Uiso   1.00
H1026  H     0.89112   0.08591   0.81196   0.00000  Uiso   1.00
H1027  H     0.88515   0.03938   0.84690   0.00000  Uiso   1.00
H1028  H     0.92315   0.03887   0.80612   0.00000  Uiso   1.00
C1029  C     0.77555   0.28461   0.68762   0.00000  Uiso   1.00
H1030  H     0.77560   0.24751   0.68817   0.00000  Uiso   1.00
H1031  H     0.74355   0.29454   0.69379   0.00000  Uiso   1.00
H1032  H     0.78163   0.29391   0.65309   0.00000  Uiso   1.00
O1033  O     0.10655   0.53958   0.75000   0.00000  Uiso   1.00
O1034  O     0.22679   0.46042   0.75001   0.00000  Uiso   1.00
O1035  O     0.22679   0.53958   0.75001   0.00000  Uiso   1.00
O1036  O     0.10655   0.46042   0.75000   0.00000  Uiso   1.00
C1037  C     0.08750   0.50001   0.74961   0.00000  Uiso   1.00
C1038  C     0.24582   0.49999   0.75027   0.00000  Uiso   1.00
O1039  O     0.16666   0.53960   0.68513   0.00000  Uiso   1.00
O1040  O     0.16668   0.46040   0.81487   0.00000  Uiso   1.00
O1041  O     0.16668   0.53960   0.81487   0.00000  Uiso   1.00
O1042  O     0.16666   0.46040   0.68513   0.00000  Uiso   1.00
C1043  C     0.16604   0.49991   0.66471   0.00000  Uiso   1.00
C1044  C     0.16704   0.50010   0.83529   0.00000  Uiso   1.00
Cu1045 Cu    0.16667   0.54689   0.75000   0.00000  Uiso   1.00
Cu1046 Cu    0.16667   0.45311   0.75000   0.00000  Uiso   1.00
C1047  C     0.20175   0.51206   0.91058   0.00000  Uiso   1.00
C1048  C     0.12852   0.49020   0.59014   0.00000  Uiso   1.00
C1049  C     0.16572   0.50069   0.88351   0.00000  Uiso   1.00
C1050  C     0.16562   0.49981   0.61633   0.00000  Uiso   1.00
C1051  C     0.12878   0.48923   0.90237   0.00000  Uiso   1.00
C1052  C     0.20151   0.51266   0.59632   0.00000  Uiso   1.00
C1053  C     0.12882   0.48726   0.94926   0.00000  Uiso   1.00
C1054  C     0.19873   0.52020   0.55001   0.00000  Uiso   1.00
C1055  C     0.16381   0.50374   0.97629   0.00000  Uiso   1.00
C1056  C     0.16387   0.50326   0.52323   0.00000  Uiso   1.00
C1057  C     0.19891   0.52049   0.95646   0.00000  Uiso   1.00
C1058  C     0.12959   0.48494   0.54346   0.00000  Uiso   1.00
C1059  C     0.09529   0.46797   0.96988   0.00000  Uiso   1.00
C1060  C     0.23013   0.54404   0.52971   0.00000  Uiso   1.00
C1061  C     0.09754   0.46277   0.51627   0.00000  Uiso   1.00
C1062  C     0.22964   0.54532   0.98312   0.00000  Uiso   1.00
C1063  C     0.02134   0.45825   0.75002   0.00000  Uiso   1.00
C1064  C     0.31198   0.54175   0.74974   0.00000  Uiso   1.00
C1065  C     0.31207   0.45824   0.75031   0.00000  Uiso   1.00
C1066  C     0.02124   0.54176   0.74945   0.00000  Uiso   1.00
H1067  H     0.03736   0.42558   0.75019   0.00000  Uiso   1.00
H1068  H     0.29596   0.57443   0.74959   0.00000  Uiso   1.00
H1069  H     0.29614   0.42557   0.75061   0.00000  Uiso   1.00
H1070  H     0.03718   0.57443   0.74915   0.00000  Uiso   1.00
C1071  C     0.29052   0.49999   0.75018   0.00000  Uiso   1.00
C1072  C     0.04279   0.50001   0.74961   0.00000  Uiso   1.00
C1073  C     0.13973   0.35788   0.72089   0.00000  Uiso   1.00
C1074  C     0.19360   0.64213   0.77912   0.00000  Uiso   1.00
C1075  C     0.19364   0.35816   0.77911   0.00000  Uiso   1.00
C1076  C     0.13970   0.64186   0.72089   0.00000  Uiso   1.00
N1077  N     0.16667   0.61736   0.75000   0.00000  Uiso   1.00
N1078  N     0.16667   0.38264   0.75000   0.00000  Uiso   1.00
C1079  C     0.24335   0.50689   0.89156   0.00000  Uiso   1.00
H1080  H     0.26896   0.50246   0.91807   0.00000  Uiso   1.00
H1081  H     0.24366   0.47523   0.87090   0.00000  Uiso   1.00
H1082  H     0.24971   0.53665   0.87046   0.00000  Uiso   1.00
C1083  C     0.08786   0.49344   0.61141   0.00000  Uiso   1.00
H1084  H     0.06182   0.50220   0.58657   0.00000  Uiso   1.00
H1085  H     0.08125   0.46107   0.62860   0.00000  Uiso   1.00
H1086  H     0.08883   0.52185   0.63615   0.00000  Uiso   1.00
O1087  O     0.09327   0.47740   0.87591   0.00000  Uiso   1.00
H1088  H     0.09412   0.48982   0.84550   0.00000  Uiso   1.00
O1089  O     0.23940   0.51795   0.62085   0.00000  Uiso   1.00
H1090  H     0.23898   0.50332   0.65040   0.00000  Uiso   1.00
O1091  O     0.06096   0.45092   0.94517   0.00000  Uiso   1.00
H1092  H     0.04532   0.47829   0.93354   0.00000  Uiso   1.00
O1093  O     0.26030   0.56902   0.55440   0.00000  Uiso   1.00
H1094  H     0.24682   0.58560   0.57808   0.00000  Uiso   1.00
C1095  C     0.06823   0.42861   0.53466   0.00000  Uiso   1.00
H1096  H     0.06408   0.39822   0.51221   0.00000  Uiso   1.00
H1097  H     0.08085   0.41452   0.56720   0.00000  Uiso   1.00
H1098  H     0.03747   0.44456   0.53732   0.00000  Uiso   1.00
C1099  C     0.25818   0.57940   0.96330   0.00000  Uiso   1.00
H1100  H     0.25878   0.61233   0.98219   0.00000  Uiso   1.00
H1101  H     0.29013   0.56551   0.96486   0.00000  Uiso   1.00
H1102  H     0.24731   0.58882   0.92862   0.00000  Uiso   1.00
C1103  C     0.10904   0.38157   0.68760   0.00000  Uiso   1.00
H1104  H     0.10939   0.41863   0.68834   0.00000  Uiso   1.00
H1105  H     0.11513   0.37198   0.65305   0.00000  Uiso   1.00
H1106  H     0.07697   0.37194   0.69372   0.00000  Uiso   1.00
C1107  C     0.22427   0.61846   0.81244   0.00000  Uiso   1.00
H1108  H     0.22396   0.58140   0.81164   0.00000  Uiso   1.00
H1109  H     0.25634   0.62813   0.80640   0.00000  Uiso   1.00
H1110  H     0.21810   0.62800   0.84697   0.00000  Uiso   1.00
C1111  C     0.22449   0.38210   0.81237   0.00000  Uiso   1.00
H1112  H     0.22445   0.41924   0.81196   0.00000  Uiso   1.00
H1113  H     0.21849   0.37271   0.84690   0.00000  Uiso   1.00
H1114  H     0.25648   0.37221   0.80612   0.00000  Uiso   1.00
C1115  C     0.10888   0.61795   0.68762   0.00000  Uiso   1.00
H1116  H     0.10894   0.58084   0.68817   0.00000  Uiso   1.00
H1117  H     0.07688   0.62787   0.69379   0.00000  Uiso   1.00
H1118  H     0.11496   0.62725   0.65309   0.00000  Uiso   1.00
O1119  O     0.43988   0.53958   0.75000   0.00000  Uiso   1.00
O1120  O     0.56012   0.46042   0.75001   0.00000  Uiso   1.00
O1121  O     0.56012   0.53958   0.75001   0.00000  Uiso   1.00
O1122  O     0.43988   0.46042   0.75000   0.00000  Uiso   1.00
C1123  C     0.42084   0.50001   0.74961   0.00000  Uiso   1.00
C1124  C     0.57915   0.49999   0.75027   0.00000  Uiso   1.00
O1125  O     0.49999   0.53960   0.68513   0.00000  Uiso   1.00
O1126  O     0.50001   0.46040   0.81487   0.00000  Uiso   1.00
O1127  O     0.50001   0.53960   0.81487   0.00000  Uiso   1.00
O1128  O     0.49999   0.46040   0.68513   0.00000  Uiso   1.00
C1129  C     0.49937   0.49991   0.66471   0.00000  Uiso   1.00
C1130  C     0.50037   0.50010   0.83529   0.00000  Uiso   1.00
Cu1131 Cu    0.50000   0.54689   0.75000   0.00000  Uiso   1.00
Cu1132 Cu    0.50000   0.45311   0.75000   0.00000  Uiso   1.00
C1133  C     0.53509   0.51206   0.91058   0.00000  Uiso   1.00
C1134  C     0.46185   0.49020   0.59014   0.00000  Uiso   1.00
C1135  C     0.49905   0.50069   0.88351   0.00000  Uiso   1.00
C1136  C     0.49895   0.49981   0.61633   0.00000  Uiso   1.00
C1137  C     0.46211   0.48923   0.90237   0.00000  Uiso   1.00
C1138  C     0.53484   0.51266   0.59632   0.00000  Uiso   1.00
C1139  C     0.46215   0.48726   0.94926   0.00000  Uiso   1.00
C1140  C     0.53207   0.52020   0.55001   0.00000  Uiso   1.00
C1141  C     0.49714   0.50374   0.97629   0.00000  Uiso   1.00
C1142  C     0.49720   0.50326   0.52323   0.00000  Uiso   1.00
C1143  C     0.53224   0.52049   0.95646   0.00000  Uiso   1.00
C1144  C     0.46292   0.48494   0.54346   0.00000  Uiso   1.00
C1145  C     0.42862   0.46797   0.96988   0.00000  Uiso   1.00
C1146  C     0.56346   0.54404   0.52971   0.00000  Uiso   1.00
C1147  C     0.43087   0.46277   0.51627   0.00000  Uiso   1.00
C1148  C     0.56298   0.54532   0.98312   0.00000  Uiso   1.00
C1149  C     0.35467   0.45825   0.75002   0.00000  Uiso   1.00
C1150  C     0.64531   0.54175   0.74974   0.00000  Uiso   1.00
C1151  C     0.64541   0.45824   0.75031   0.00000  Uiso   1.00
C1152  C     0.35457   0.54176   0.74945   0.00000  Uiso   1.00
H1153  H     0.37069   0.42558   0.75019   0.00000  Uiso   1.00
H1154  H     0.62929   0.57443   0.74959   0.00000  Uiso   1.00
H1155  H     0.62947   0.42557   0.75061   0.00000  Uiso   1.00
H1156  H     0.37051   0.57443   0.74915   0.00000  Uiso   1.00
C1157  C     0.62386   0.49999   0.75018   0.00000  Uiso   1.00
C1158  C     0.37613   0.50001   0.74961   0.00000  Uiso   1.00
C1159  C     0.47306   0.35788   0.72089   0.00000  Uiso   1.00
C1160  C     0.52694   0.64213   0.77912   0.00000  Uiso   1.00
C1161  C     0.52697   0.35816   0.77911   0.00000  Uiso   1.00
C1162  C     0.47304   0.64186   0.72089   0.00000  Uiso   1.00
N1163  N     0.50000   0.61736   0.75000   0.00000  Uiso   1.00
N1164  N     0.50000   0.38264   0.75000   0.00000  Uiso   1.00
C1165  C     0.57668   0.50689   0.89156   0.00000  Uiso   1.00
H1166  H     0.60229   0.50246   0.91807   0.00000  Uiso   1.00
H1167  H     0.57700   0.47523   0.87090   0.00000  Uiso   1.00
H1168  H     0.58304   0.53665   0.87046   0.00000  Uiso   1.00
C1169  C     0.42120   0.49344   0.61141   0.00000  Uiso   1.00
H1170  H     0.39515   0.50220   0.58657   0.00000  Uiso   1.00
H1171  H     0.41459   0.46107   0.62860   0.00000  Uiso   1.00
H1172  H     0.42217   0.52185   0.63615   0.00000  Uiso   1.00
O1173  O     0.42660   0.47740   0.87591   0.00000  Uiso   1.00
H1174  H     0.42745   0.48982   0.84550   0.00000  Uiso   1.00
O1175  O     0.57273   0.51795   0.62085   0.00000  Uiso   1.00
H1176  H     0.57232   0.50332   0.65040   0.00000  Uiso   1.00
O1177  O     0.39429   0.45092   0.94517   0.00000  Uiso   1.00
H1178  H     0.37866   0.47829   0.93354   0.00000  Uiso   1.00
O1179  O     0.59363   0.56902   0.55440   0.00000  Uiso   1.00
H1180  H     0.58015   0.58560   0.57808   0.00000  Uiso   1.00
C1181  C     0.40157   0.42861   0.53466   0.00000  Uiso   1.00
H1182  H     0.39742   0.39822   0.51221   0.00000  Uiso   1.00
H1183  H     0.41418   0.41452   0.56720   0.00000  Uiso   1.00
H1184  H     0.37081   0.44456   0.53732   0.00000  Uiso   1.00
C1185  C     0.59152   0.57940   0.96330   0.00000  Uiso   1.00
H1186  H     0.59211   0.61233   0.98219   0.00000  Uiso   1.00
H1187  H     0.62346   0.56551   0.96486   0.00000  Uiso   1.00
H1188  H     0.58065   0.58882   0.92862   0.00000  Uiso   1.00
C1189  C     0.44237   0.38157   0.68760   0.00000  Uiso   1.00
H1190  H     0.44272   0.41863   0.68834   0.00000  Uiso   1.00
H1191  H     0.44846   0.37198   0.65305   0.00000  Uiso   1.00
H1192  H     0.41031   0.37194   0.69372   0.00000  Uiso   1.00
C1193  C     0.55760   0.61846   0.81244   0.00000  Uiso   1.00
H1194  H     0.55729   0.58140   0.81164   0.00000  Uiso   1.00
H1195  H     0.58967   0.62813   0.80640   0.00000  Uiso   1.00
H1196  H     0.55143   0.62800   0.84697   0.00000  Uiso   1.00
C1197  C     0.55782   0.38210   0.81237   0.00000  Uiso   1.00
H1198  H     0.55779   0.41924   0.81196   0.00000  Uiso   1.00
H1199  H     0.55182   0.37271   0.84690   0.00000  Uiso   1.00
H1200  H     0.58981   0.37221   0.80612   0.00000  Uiso   1.00
C1201  C     0.44222   0.61795   0.68762   0.00000  Uiso   1.00
H1202  H     0.44227   0.58084   0.68817   0.00000  Uiso   1.00
H1203  H     0.41021   0.62787   0.69379   0.00000  Uiso   1.00
H1204  H     0.44829   0.62725   0.65309   0.00000  Uiso   1.00
O1205  O     0.77321   0.53958   0.75000   0.00000  Uiso   1.00
O1206  O     0.89345   0.46042   0.75001   0.00000  Uiso   1.00
O1207  O     0.89345   0.53958   0.75001   0.00000  Uiso   1.00
O1208  O     0.77321   0.46042   0.75000   0.00000  Uiso   1.00
C1209  C     0.75417   0.50001   0.74961   0.00000  Uiso   1.00
C1210  C     0.91249   0.49999   0.75027   0.00000  Uiso   1.00
O1211  O     0.83332   0.53960   0.68513   0.00000  Uiso   1.00
O1212  O     0.83334   0.46040   0.81487   0.00000  Uiso   1.00
O1213  O     0.83334   0.53960   0.81487   0.00000  Uiso   1.00
O1214  O     0.83332   0.46040   0.68513   0.00000  Uiso   1.00
C1215  C     0.83271   0.49991   0.66471   0.00000  Uiso   1.00
C1216  C     0.83371   0.50010   0.83529   0.00000  Uiso   1.00
Cu1217 Cu    0.83333   0.54689   0.75000   0.00000  Uiso   1.00
Cu1218 Cu    0.83333   0.45311   0.75000   0.00000  Uiso   1.00
C1219  C     0.86842   0.51206   0.91058   0.00000  Uiso   1.00
C1220  C     0.79519   0.49020   0.59014   0.00000  Uiso   1.00
C1221  C     0.83238   0.50069   0.88351   0.00000  Uiso   1.00
C1222  C     0.83229   0.49981   0.61633   0.00000  Uiso   1.00
C1223  C     0.79545   0.48923   0.90237   0.00000  Uiso   1.00
C1224  C     0.86817   0.51266   0.59632   0.00000  Uiso   1.00
C1225  C     0.79549   0.48726   0.94926   0.00000  Uiso   1.00
C1226  C     0.86540   0.52020   0.55001   0.00000  Uiso   1.00
C1227  C     0.83048   0.50374   0.97629   0.00000  Uiso   1.00
C1228  C     0.83053   0.50326   0.52323   0.00000  Uiso   1.00
C1229  C     0.86558   0.52049   0.95646   0.00000  Uiso   1.00
C1230  C     0.79625   0.48494   0.54346   0.00000  Uiso   1.00
C1231  C     0.76195   0.46797   0.96988   0.00000  Uiso   1.00
C1232  C     0.89680   0.54404   0.52971   0.00000  Uiso   1.00
C1233  C     0.76420   0.46277   0.51627   0.00000  Uiso   1.00
C1234  C     0.89631   0.54532   0.98312   0.00000  Uiso   1.00
C1235  C     0.68801   0.45825   0.75002   0.00000  Uiso   1.00
C1236  C     0.97864   0.54175   0.74974   0.00000  Uiso   1.00
C1237  C     0.97874   0.45824   0.75031   0.00000  Uiso   1.00
C1238  C     0.68791   0.54176   0.74945   0.00000  Uiso   1.00
H1239  H     0.70402   0.42558   0.75019   0.00000  Uiso   1.00
H1240  H     0.96263   0.57443   0.74959   0.00000  Uiso   1.00
H1241  H     0.96280   0.42557   0.75061   0.00000  Uiso   1.00
H1242  H     0.70385   0.57443   0.74915   0.00000  Uiso   1.00
C1243  C     0.95719   0.49999   0.75018   0.00000  Uiso   1.00
C1244  C     0.70946   0.50001   0.74961   0.00000  Uiso   1.00
C1245  C     0.80640   0.35788   0.72089   0.00000  Uiso   1.00
C1246  C     0.86027   0.64213   0.77912   0.00000  Uiso   1.00
C1247  C     0.86030   0.35816   0.77911   0.00000  Uiso   1.00
C1248  C     0.80637   0.64186   0.72089   0.00000  Uiso   1.00
N1249  N     0.83333   0.61736   0.75000   0.00000  Uiso   1.00
N1250  N     0.83333   0.38264   0.75000   0.00000  Uiso   1.00
C1251  C     0.91001   0.50689   0.89156   0.00000  Uiso   1.00
H1252  H     0.93562   0.50246   0.91807   0.00000  Uiso   1.00
H1253  H     0.91033   0.47523   0.87090   0.00000  Uiso   1.00
H1254  H     0.91637   0.53665   0.87046   0.00000  Uiso   1.00
C1255  C     0.75453   0.49344   0.61141   0.00000  Uiso   1.00
H1256  H     0.72849   0.50220   0.58657   0.00000  Uiso   1.00
H1257  H     0.74792   0.46107   0.62860   0.00000  Uiso   1.00
H1258  H     0.75550   0.52185   0.63615   0.00000  Uiso   1.00
O1259  O     0.75993   0.47740   0.87591   0.00000  Uiso   1.00
H1260  H     0.76079   0.48982   0.84550   0.00000  Uiso   1.00
O1261  O     0.90607   0.51795   0.62085   0.00000  Uiso   1.00
H1262  H     0.90565   0.50332   0.65040   0.00000  Uiso   1.00
O1263  O     0.72762   0.45092   0.94517   0.00000  Uiso   1.00
H1264  H     0.71199   0.47829   0.93354   0.00000  Uiso   1.00
O1265  O     0.92696   0.56902   0.55440   0.00000  Uiso   1.00
H1266  H     0.91349   0.58560   0.57808   0.00000  Uiso   1.00
C1267  C     0.73490   0.42861   0.53466   0.00000  Uiso   1.00
H1268  H     0.73075   0.39822   0.51221   0.00000  Uiso   1.00
H1269  H     0.74752   0.41452   0.56720   0.00000  Uiso   1.00
H1270  H     0.70414   0.44456   0.53732   0.00000  Uiso   1.00
C1271  C     0.92485   0.57940   0.96330   0.00000  Uiso   1.00
H1272  H     0.92544   0.61233   0.98219   0.00000  Uiso   1.00
H1273  H     0.95680   0.56551   0.96486   0.00000  Uiso   1.00
H1274  H     0.91398   0.58882   0.92862   0.00000  Uiso   1.00
C1275  C     0.77570   0.38157   0.68760   0.00000  Uiso   1.00
H1276  H     0.77605   0.41863   0.68834   0.00000  Uiso   1.00
H1277  H     0.78180   0.37198   0.65305   0.00000  Uiso   1.00
H1278  H     0.74364   0.37194   0.69372   0.00000  Uiso   1.00
C1279  C     0.89094   0.61846   0.81244   0.00000  Uiso   1.00
H1280  H     0.89063   0.58140   0.81164   0.00000  Uiso   1.00
H1281  H     0.92301   0.62813   0.80640   0.00000  Uiso   1.00
H1282  H     0.88476   0.62800   0.84697   0.00000  Uiso   1.00
C1283  C     0.89116   0.38210   0.81237   0.00000  Uiso   1.00
H1284  H     0.89112   0.41924   0.81196   0.00000  Uiso   1.00
H1285  H     0.88515   0.37271   0.84690   0.00000  Uiso   1.00
H1286  H     0.92315   0.37221   0.80612   0.00000  Uiso   1.00
C1287  C     0.77555   0.61795   0.68762   0.00000  Uiso   1.00
H1288  H     0.77560   0.58084   0.68817   0.00000  Uiso   1.00
H1289  H     0.74355   0.62787   0.69379   0.00000  Uiso   1.00
H1290  H     0.78163   0.62725   0.65309   0.00000  Uiso   1.00
O1291  O     0.10655   0.87291   0.75000   0.00000  Uiso   1.00
O1292  O     0.22679   0.79375   0.75001   0.00000  Uiso   1.00
O1293  O     0.22679   0.87291   0.75001   0.00000  Uiso   1.00
O1294  O     0.10655   0.79375   0.75000   0.00000  Uiso   1.00
C1295  C     0.08750   0.83334   0.74961   0.00000  Uiso   1.00
C1296  C     0.24582   0.83333   0.75027   0.00000  Uiso   1.00
O1297  O     0.16666   0.87293   0.68513   0.00000  Uiso   1.00
O1298  O     0.16668   0.79373   0.81487   0.00000  Uiso   1.00
O1299  O     0.16668   0.87293   0.81487   0.00000  Uiso   1.00
O1300  O     0.16666   0.79373   0.68513   0.00000  Uiso   1.00
C1301  C     0.16604   0.83325   0.66471   0.00000  Uiso   1.00
C1302  C     0.16704   0.83344   0.83529   0.00000  Uiso   1.00
Cu1303 Cu    0.16667   0.88022   0.75000   0.00000  Uiso   1.00
Cu1304 Cu    0.16667   0.78645   0.75000   0.00000  Uiso   1.00
C1305  C     0.20175   0.84540   0.91058   0.00000  Uiso   1.00
C1306  C     0.12852   0.82354   0.59014   0.00000  Uiso   1.00
C1307  C     0.16572   0.83402   0.88351   0.00000  Uiso   1.00
C1308  C     0.16562   0.83315   0.61633   0.00000  Uiso   1.00
C1309  C     0.12878   0.82257   0.90237   0.00000  Uiso   1.00
C1310  C     0.20151   0.84599   0.59632   0.00000  Uiso   1.00
C1311  C     0.12882   0.82060   0.94926   0.00000  Uiso   1.00
C1312  C     0.19873   0.85353   0.55001   0.00000  Uiso   1.00
C1313  C     0.16381   0.83708   0.97629   0.00000  Uiso   1.00
C1314  C     0.16387   0.83660   0.52323   0.00000  Uiso   1.00
C1315  C     0.19891   0.85383   0.95646   0.00000  Uiso   1.00
C1316  C     0.12959   0.81828   0.54346   0.00000  Uiso   1.00
C1317  C     0.09529   0.80130   0.96988   0.00000  Uiso   1.00
C1318  C     0.23013   0.87737   0.52971   0.00000  Uiso   1.00
C1319  C     0.09754   0.79611   0.51627   0.00000  Uiso   1.00
C1320  C     0.22964   0.87865   0.98312   0.00000  Uiso   1.00
C1321  C     0.02134   0.79158   0.75002   0.00000  Uiso   1.00
C1322  C     0.31198   0.87509   0.74974   0.00000  Uiso   1.00
C1323  C     0.31207   0.79158   0.75031   0.00000  Uiso   1.00
C1324  C     0.02124   0.87509   0.74945   0.00000  Uiso   1.00
H1325  H     0.03736   0.75891   0.75019   0.00000  Uiso   1.00
H1326  H     0.29596   0.90776   0.74959   0.00000  Uiso   1.00
H1327  H     0.29614   0.75890   0.75061   0.00000  Uiso   1.00
H1328  H     0.03718   0.90777   0.74915   0.00000  Uiso   1.00
C1329  C     0.29052   0.83333   0.75018   0.00000  Uiso   1.00
C1330  C     0.04279   0.83334   0.74961   0.00000  Uiso   1.00
C1331  C     0.13973   0.69121   0.72089   0.00000  Uiso   1.00
C1332  C     0.19360   0.97547   0.77912   0.00000  Uiso   1.00
C1333  C     0.19364   0.69149   0.77911   0.00000  Uiso   1.00
C1334  C     0.13970   0.97520   0.72089   0.00000  Uiso   1.00
N1335  N     0.16667   0.95069   0.75000   0.00000  Uiso   1.00
N1336  N     0.16667   0.71598   0.75000   0.00000  Uiso   1.00
C1337  C     0.24335   0.84022   0.89156   0.00000  Uiso   1.00
H1338  H     0.26896   0.83580   0.91807   0.00000  Uiso   1.00
H1339  H     0.24366   0.80856   0.87090   0.00000  Uiso   1.00
H1340  H     0.24971   0.86999   0.87046   0.00000  Uiso   1.00
C1341  C     0.08786   0.82678   0.61141   0.00000  Uiso   1.00
H1342  H     0.06182   0.83553   0.58657   0.00000  Uiso   1.00
H1343  H     0.08125   0.79441   0.62860   0.00000  Uiso   1.00
H1344  H     0.08883   0.85519   0.63615   0.00000  Uiso   1.00
O1345  O     0.09327   0.81073   0.87591   0.00000  Uiso   1.00
H1346  H     0.09412   0.82316   0.84550   0.00000  Uiso   1.00
O1347  O     0.23940   0.85129   0.62085   0.00000  Uiso   1.00
H1348  H     0.23898   0.83665   0.65040   0.00000  Uiso   1.00
O1349  O     0.06096   0.78425   0.94517   0.00000  Uiso   1.00
H1350  H     0.04532   0.81163   0.93354   0.00000  Uiso   1.00
O1351  O     0.26030   0.90236   0.55440   0.00000  Uiso   1.00
H1352  H     0.24682   0.91894   0.57808   0.00000  Uiso   1.00
C1353  C     0.06823   0.76194   0.53466   0.00000  Uiso   1.00
H1354  H     0.06408   0.73155   0.51221   0.00000  Uiso   1.00
H1355  H     0.08085   0.74785   0.56720   0.00000  Uiso   1.00
H1356  H     0.03747   0.77789   0.53732   0.00000  Uiso   1.00
C1357  C     0.25818   0.91274   0.96330   0.00000  Uiso   1.00
H1358  H     0.25878   0.94566   0.98219   0.00000  Uiso   1.00
H1359  H     0.29013   0.89885   0.96486   0.00000  Uiso   1.00
H1360  H     0.24731   0.92215   0.92862   0.00000  Uiso   1.00
C1361  C     0.10904   0.71490   0.68760   0.00000  Uiso   1.00
H1362  H     0.10939   0.75196   0.68834   0.00000  Uiso   1.00
H1363  H     0.11513   0.70531   0.65305   0.00000  Uiso   1.00
H1364  H     0.07697   0.70527   0.69372   0.00000  Uiso   1.00
C1365  C     0.22427   0.95179   0.81244   0.00000  Uiso   1.00
H1366  H     0.22396   0.91473   0.81164   0.00000  Uiso   1.00
H1367  H     0.25634   0.96147   0.80640   0.00000  Uiso   1.00
H1368  H     0.21810   0.96133   0.84697   0.00000  Uiso   1.00
C1369  C     0.22449   0.71544   0.81237   0.00000  Uiso   1.00
H1370  H     0.22445   0.75258   0.81196   0.00000  Uiso   1.00
H1371  H     0.21849   0.70605   0.84690   0.00000  Uiso   1.00
H1372  H     0.25648   0.70554   0.80612   0.00000  Uiso   1.00
C1373  C     0.10888   0.95128   0.68762   0.00000  Uiso   1.00
H1374  H     0.10894   0.91418   0.68817   0.00000  Uiso   1.00
H1375  H     0.07688   0.96120   0.69379   0.00000  Uiso   1.00
H1376  H     0.11496   0.96058   0.65309   0.00000  Uiso   1.00
O1377  O     0.43988   0.87291   0.75000   0.00000  Uiso   1.00
O1378  O     0.56012   0.79375   0.75001   0.00000  Uiso   1.00
O1379  O     0.56012   0.87291   0.75001   0.00000  Uiso   1.00
O1380  O     0.43988   0.79375   0.75000   0.00000  Uiso   1.00
C1381  C     0.42084   0.83334   0.74961   0.00000  Uiso   1.00
C1382  C     0.57915   0.83333   0.75027   0.00000  Uiso   1.00
O1383  O     0.49999   0.87293   0.68513   0.00000  Uiso   1.00
O1384  O     0.50001   0.79373   0.81487   0.00000  Uiso   1.00
O1385  O     0.50001   0.87293   0.81487   0.00000  Uiso   1.00
O1386  O     0.49999   0.79373   0.68513   0.00000  Uiso   1.00
C1387  C     0.49937   0.83325   0.66471   0.00000  Uiso   1.00
C1388  C     0.50037   0.83344   0.83529   0.00000  Uiso   1.00
Cu1389 Cu    0.50000   0.88022   0.75000   0.00000  Uiso   1.00
Cu1390 Cu    0.50000   0.78645   0.75000   0.00000  Uiso   1.00
C1391  C     0.53509   0.84540   0.91058   0.00000  Uiso   1.00
C1392  C     0.46185   0.82354   0.59014   0.00000  Uiso   1.00
C1393  C     0.49905   0.83402   0.88351   0.00000  Uiso   1.00
C1394  C     0.49895   0.83315   0.61633   0.00000  Uiso   1.00
C1395  C     0.46211   0.82257   0.90237   0.00000  Uiso   1.00
C1396  C     0.53484   0.84599   0.59632   0.00000  Uiso   1.00
C1397  C     0.46215   0.82060   0.94926   0.00000  Uiso   1.00
C1398  C     0.53207   0.85353   0.55001   0.00000  Uiso   1.00
C1399  C     0.49714   0.83708   0.97629   0.00000  Uiso   1.00
C1400  C     0.49720   0.83660   0.52323   0.00000  Uiso   1.00
C1401  C     0.53224   0.85383   0.95646   0.00000  Uiso   1.00
C1402  C     0.46292   0.81828   0.54346   0.00000  Uiso   1.00
C1403  C     0.42862   0.80130   0.96988   0.00000  Uiso   1.00
C1404  C     0.56346   0.87737   0.52971   0.00000  Uiso   1.00
C1405  C     0.43087   0.79611   0.51627   0.00000  Uiso   1.00
C1406  C     0.56298   0.87865   0.98312   0.00000  Uiso   1.00
C1407  C     0.35467   0.79158   0.75002   0.00000  Uiso   1.00
C1408  C     0.64531   0.87509   0.74974   0.00000  Uiso   1.00
C1409  C     0.64541   0.79158   0.75031   0.00000  Uiso   1.00
C1410  C     0.35457   0.87509   0.74945   0.00000  Uiso   1.00
H1411  H     0.37069   0.75891   0.75019   0.00000  Uiso   1.00
H1412  H     0.62929   0.90776   0.74959   0.00000  Uiso   1.00
H1413  H     0.62947   0.75890   0.75061   0.00000  Uiso   1.00
H1414  H     0.37051   0.90777   0.74915   0.00000  Uiso   1.00
C1415  C     0.62386   0.83333   0.75018   0.00000  Uiso   1.00
C1416  C     0.37613   0.83334   0.74961   0.00000  Uiso   1.00
C1417  C     0.47306   0.69121   0.72089   0.00000  Uiso   1.00
C1418  C     0.52694   0.97547   0.77912   0.00000  Uiso   1.00
C1419  C     0.52697   0.69149   0.77911   0.00000  Uiso   1.00
C1420  C     0.47304   0.97520   0.72089   0.00000  Uiso   1.00
N1421  N     0.50000   0.95069   0.75000   0.00000  Uiso   1.00
N1422  N     0.50000   0.71598   0.75000   0.00000  Uiso   1.00
C1423  C     0.57668   0.84022   0.89156   0.00000  Uiso   1.00
H1424  H     0.60229   0.83580   0.91807   0.00000  Uiso   1.00
H1425  H     0.57700   0.80856   0.87090   0.00000  Uiso   1.00
H1426  H     0.58304   0.86999   0.87046   0.00000  Uiso   1.00
C1427  C     0.42120   0.82678   0.61141   0.00000  Uiso   1.00
H1428  H     0.39515   0.83553   0.58657   0.00000  Uiso   1.00
H1429  H     0.41459   0.79441   0.62860   0.00000  Uiso   1.00
H1430  H     0.42217   0.85519   0.63615   0.00000  Uiso   1.00
O1431  O     0.42660   0.81073   0.87591   0.00000  Uiso   1.00
H1432  H     0.42745   0.82316   0.84550   0.00000  Uiso   1.00
O1433  O     0.57273   0.85129   0.62085   0.00000  Uiso   1.00
H1434  H     0.57232   0.83665   0.65040   0.00000  Uiso   1.00
O1435  O     0.39429   0.78425   0.94517   0.00000  Uiso   1.00
H1436  H     0.37866   0.81163   0.93354   0.00000  Uiso   1.00
O1437  O     0.59363   0.90236   0.55440   0.00000  Uiso   1.00
H1438  H     0.58015   0.91894   0.57808   0.00000  Uiso   1.00
C1439  C     0.40157   0.76194   0.53466   0.00000  Uiso   1.00
H1440  H     0.39742   0.73155   0.51221   0.00000  Uiso   1.00
H1441  H     0.41418   0.74785   0.56720   0.00000  Uiso   1.00
H1442  H     0.37081   0.77789   0.53732   0.00000  Uiso   1.00
C1443  C     0.59152   0.91274   0.96330   0.00000  Uiso   1.00
H1444  H     0.59211   0.94566   0.98219   0.00000  Uiso   1.00
H1445  H     0.62346   0.89885   0.96486   0.00000  Uiso   1.00
H1446  H     0.58065   0.92215   0.92862   0.00000  Uiso   1.00
C1447  C     0.44237   0.71490   0.68760   0.00000  Uiso   1.00
H1448  H     0.44272   0.75196   0.68834   0.00000  Uiso   1.00
H1449  H     0.44846   0.70531   0.65305   0.00000  Uiso   1.00
H1450  H     0.41031   0.70527   0.69372   0.00000  Uiso   1.00
C1451  C     0.55760   0.95179   0.81244   0.00000  Uiso   1.00
H1452  H     0.55729   0.91473   0.81164   0.00000  Uiso   1.00
H1453  H     0.58967   0.96147   0.80640   0.00000  Uiso   1.00
H1454  H     0.55143   0.96133   0.84697   0.00000  Uiso   1.00
C1455  C     0.55782   0.71544   0.81237   0.00000  Uiso   1.00
H1456  H     0.55779   0.75258   0.81196   0.00000  Uiso   1.00
H1457  H     0.55182   0.70605   0.84690   0.00000  Uiso   1.00
H1458  H     0.58981   0.70554   0.80612   0.00000  Uiso   1.00
C1459  C     0.44222   0.95128   0.68762   0.00000  Uiso   1.00
H1460  H     0.44227   0.91418   0.68817   0.00000  Uiso   1.00
H1461  H     0.41021   0.96120   0.69379   0.00000  Uiso   1.00
H1462  H     0.44829   0.96058   0.65309   0.00000  Uiso   1.00
O1463  O     0.77321   0.87291   0.75000   0.00000  Uiso   1.00
O1464  O     0.89345   0.79375   0.75001   0.00000  Uiso   1.00
O1465  O     0.89345   0.87291   0.75001   0.00000  Uiso   1.00
O1466  O     0.77321   0.79375   0.75000   0.00000  Uiso   1.00
C1467  C     0.75417   0.83334   0.74961   0.00000  Uiso   1.00
C1468  C     0.91249   0.83333   0.75027   0.00000  Uiso   1.00
O1469  O     0.83332   0.87293   0.68513   0.00000  Uiso   1.00
O1470  O     0.83334   0.79373   0.81487   0.00000  Uiso   1.00
O1471  O     0.83334   0.87293   0.81487   0.00000  Uiso   1.00
O1472  O     0.83332   0.79373   0.68513   0.00000  Uiso   1.00
C1473  C     0.83271   0.83325   0.66471   0.00000  Uiso   1.00
C1474  C     0.83371   0.83344   0.83529   0.00000  Uiso   1.00
Cu1475 Cu    0.83333   0.88022   0.75000   0.00000  Uiso   1.00
Cu1476 Cu    0.83333   0.78645   0.75000   0.00000  Uiso   1.00
C1477  C     0.86842   0.84540   0.91058   0.00000  Uiso   1.00
C1478  C     0.79519   0.82354   0.59014   0.00000  Uiso   1.00
C1479  C     0.83238   0.83402   0.88351   0.00000  Uiso   1.00
C1480  C     0.83229   0.83315   0.61633   0.00000  Uiso   1.00
C1481  C     0.79545   0.82257   0.90237   0.00000  Uiso   1.00
C1482  C     0.86817   0.84599   0.59632   0.00000  Uiso   1.00
C1483  C     0.79549   0.82060   0.94926   0.00000  Uiso   1.00
C1484  C     0.86540   0.85353   0.55001   0.00000  Uiso   1.00
C1485  C     0.83048   0.83708   0.97629   0.00000  Uiso   1.00
C1486  C     0.83053   0.83660   0.52323   0.00000  Uiso   1.00
C1487  C     0.86558   0.85383   0.95646   0.00000  Uiso   1.00
C1488  C     0.79625   0.81828   0.54346   0.00000  Uiso   1.00
C1489  C     0.76195   0.80130   0.96988   0.00000  Uiso   1.00
C1490  C     0.89680   0.87737   0.52971   0.00000  Uiso   1.00
C1491  C     0.76420   0.79611   0.51627   0.00000  Uiso   1.00
C1492  C     0.89631   0.87865   0.98312   0.00000  Uiso   1.00
C1493  C     0.68801   0.79158   0.75002   0.00000  Uiso   1.00
C1494  C     0.97864   0.87509   0.74974   0.00000  Uiso   1.00
C1495  C     0.97874   0.79158   0.75031   0.00000  Uiso   1.00
C1496  C     0.68791   0.87509   0.74945   0.00000  Uiso   1.00
H1497  H     0.70402   0.75891   0.75019   0.00000  Uiso   1.00
H1498  H     0.96263   0.90776   0.74959   0.00000  Uiso   1.00
H1499  H     0.96280   0.75890   0.75061   0.00000  Uiso   1.00
H1500  H     0.70385   0.90777   0.74915   0.00000  Uiso   1.00
C1501  C     0.95719   0.83333   0.75018   0.00000  Uiso   1.00
C1502  C     0.70946   0.83334   0.74961   0.00000  Uiso   1.00
C1503  C     0.80640   0.69121   0.72089   0.00000  Uiso   1.00
C1504  C     0.86027   0.97547   0.77912   0.00000  Uiso   1.00
C1505  C     0.86030   0.69149   0.77911   0.00000  Uiso   1.00
C1506  C     0.80637   0.97520   0.72089   0.00000  Uiso   1.00
N1507  N     0.83333   0.95069   0.75000   0.00000  Uiso   1.00
N1508  N     0.83333   0.71598   0.75000   0.00000  Uiso   1.00
C1509  C     0.91001   0.84022   0.89156   0.00000  Uiso   1.00
H1510  H     0.93562   0.83580   0.91807   0.00000  Uiso   1.00
H1511  H     0.91033   0.80856   0.87090   0.00000  Uiso   1.00
H1512  H     0.91637   0.86999   0.87046   0.00000  Uiso   1.00
C1513  C     0.75453   0.82678   0.61141   0.00000  Uiso   1.00
H1514  H     0.72849   0.83553   0.58657   0.00000  Uiso   1.00
H1515  H     0.74792   0.79441   0.62860   0.00000  Uiso   1.00
H1516  H     0.75550   0.85519   0.63615   0.00000  Uiso   1.00
O1517  O     0.75993   0.81073   0.87591   0.00000  Uiso   1.00
H1518  H     0.76079   0.82316   0.84550   0.00000  Uiso   1.00
O1519  O     0.90607   0.85129   0.62085   0.00000  Uiso   1.00
H1520  H     0.90565   0.83665   0.65040   0.00000  Uiso   1.00
O1521  O     0.72762   0.78425   0.94517   0.00000  Uiso   1.00
H1522  H     0.71199   0.81163   0.93354   0.00000  Uiso   1.00
O1523  O     0.92696   0.90236   0.55440   0.00000  Uiso   1.00
H1524  H     0.91349   0.91894   0.57808   0.00000  Uiso   1.00
C1525  C     0.73490   0.76194   0.53466   0.00000  Uiso   1.00
H1526  H     0.73075   0.73155   0.51221   0.00000  Uiso   1.00
H1527  H     0.74752   0.74785   0.56720   0.00000  Uiso   1.00
H1528  H     0.70414   0.77789   0.53732   0.00000  Uiso   1.00
C1529  C     0.92485   0.91274   0.96330   0.00000  Uiso   1.00
H1530  H     0.92544   0.94566   0.98219   0.00000  Uiso   1.00
H1531  H     0.95680   0.89885   0.96486   0.00000  Uiso   1.00
H1532  H     0.91398   0.92215   0.92862   0.00000  Uiso   1.00
C1533  C     0.77570   0.71490   0.68760   0.00000  Uiso   1.00
H1534  H     0.77605   0.75196   0.68834   0.00000  Uiso   1.00
H1535  H     0.78180   0.70531   0.65305   0.00000  Uiso   1.00
H1536  H     0.74364   0.70527   0.69372   0.00000  Uiso   1.00
C1537  C     0.89094   0.95179   0.81244   0.00000  Uiso   1.00
H1538  H     0.89063   0.91473   0.81164   0.00000  Uiso   1.00
H1539  H     0.92301   0.96147   0.80640   0.00000  Uiso   1.00
H1540  H     0.88476   0.96133   0.84697   0.00000  Uiso   1.00
C1541  C     0.89116   0.71544   0.81237   0.00000  Uiso   1.00
H1542  H     0.89112   0.75258   0.81196   0.00000  Uiso   1.00
H1543  H     0.88515   0.70605   0.84690   0.00000  Uiso   1.00
H1544  H     0.92315   0.70554   0.80612   0.00000  Uiso   1.00
C1545  C     0.77555   0.95128   0.68762   0.00000  Uiso   1.00
H1546  H     0.77560   0.91418   0.68817   0.00000  Uiso   1.00
H1547  H     0.74355   0.96120   0.69379   0.00000  Uiso   1.00
H1548  H     0.78163   0.96058   0.65309   0.00000  Uiso   1.00
loop_
_geom_bond_atom_site_label_1
_geom_bond_atom_site_label_2
_geom_bond_distance
_geom_bond_site_symmetry_2
_ccdc_geom_bond_type
O1     Cu13    1.963   .     S
O1     C5      1.307   .     A
O2     C6      1.307   .     A
O2     Cu14    1.963   .     S
O3     Cu13    1.963   .     S
O3     C6      1.306   .     A
O4     C5      1.306   .     A
O4     Cu14    1.963   .     S
C5     C40     1.451   .     S
C6     C39     1.451   .     S
O7     C11     1.305   .     A
O7     Cu13    1.963   .     S
O8     C12     1.305   .     A
O8     Cu14    1.963   .     S
O9     Cu13    1.965   .     S
O9     C12     1.305   .     A
O10    Cu14    1.965   .     S
O10    C11     1.305   .     A
C11    C18     1.455   .     S
C12    C17     1.456   .     S
Cu13   Cu14    2.728   .     S
Cu13   N45     2.050   .     S
Cu14   N46     2.050   .     S
C15    C47     1.519   .     S
C15    C25     1.412   .     A
C15    C17     1.405   .     A
C16    C51     1.519   .     S
C16    C26     1.416   .     A
C16    C18     1.408   .     A
C17    C19     1.412   .     A
C18    C20     1.409   .     A
C19    C21     1.412   .     A
C19    O55     1.385   .     S
C20    C22     1.407   .     A
C20    O57     1.386   .     S
C21    C27     1.417   .     A
C21    C23     1.420   .     A
C22    C24     1.418   .     A
C22    C28     1.417   .     A
C23    C25     1.419   .     A
C23    C798    1.412   .     S
C24    C26     1.420   .     A
C24    C797    1.412   1_554 S
C25    C30     1.420   .     A
C26    C29     1.419   .     A
C27    O59     1.376   .     S
C27    C803    1.400   .     S
C28    O61     1.381   .     S
C28    C804    1.401   1_554 S
C29    C63     1.516   .     S
C29    C801    1.400   1_554 S
C30    C67     1.517   .     S
C30    C802    1.401   .     S
C31    C40     1.401   .     A
C31    H35     1.083   .     S
C31    C205    1.384   1_455 S
C32    H36     1.083   .     S
C32    C39     1.401   .     A
C32    C120    1.384   .     S
C33    C39     1.401   .     A
C33    H37     1.083   .     S
C33    C117    1.384   .     S
C34    C40     1.401   .     A
C34    H38     1.083   .     S
C34    C204    1.384   1_455 S
C41    N46     1.383   .     A
C41    C71     1.517   .     S
C41    C560    1.436   1_545 S
C42    C75     1.517   .     S
C42    N45     1.383   .     A
C42    C301    1.436   .     S
C43    C79     1.519   .     S
C43    N46     1.383   .     A
C43    C558    1.436   1_545 S
C44    C83     1.519   .     S
C44    N45     1.383   .     A
C44    C299    1.436   .     S
C47    H50     1.106   .     S
C47    H49     1.109   .     S
C47    H48     1.108   .     S
C51    H52     1.108   .     S
C51    H54     1.109   .     S
C51    H53     1.107   .     S
O55    H56     0.988   .     S
O57    H58     0.989   .     S
O59    H60     0.993   .     S
O61    H62     0.992   .     S
C63    H65     1.108   .     S
C63    H66     1.110   .     S
C63    H64     1.111   .     S
C67    H68     1.111   .     S
C67    H69     1.110   .     S
C67    H70     1.107   .     S
C71    H73     1.110   .     S
C71    H74     1.109   .     S
C71    H72     1.078   .     S
C75    H76     1.078   .     S
C75    H77     1.109   .     S
C75    H78     1.109   .     S
C79    H82     1.109   .     S
C79    H81     1.109   .     S
C79    H80     1.081   .     S
C83    H84     1.080   .     S
C83    H85     1.109   .     S
C83    H86     1.109   .     S
O87    Cu99    1.963   .     S
O87    C91     1.307   .     A
O88    C92     1.307   .     A
O88    Cu100   1.963   .     S
O89    Cu99    1.963   .     S
O89    C92     1.306   .     A
O90    C91     1.306   .     A
O90    Cu100   1.963   .     S
C91    C126    1.451   .     S
C92    C125    1.451   .     S
O93    C97     1.305   .     A
O93    Cu99    1.963   .     S
O94    C98     1.305   .     A
O94    Cu100   1.963   .     S
O95    Cu99    1.965   .     S
O95    C98     1.305   .     A
O96    Cu100   1.965   .     S
O96    C97     1.305   .     A
C97    C104    1.455   .     S
C98    C103    1.456   .     S
Cu99   Cu100   2.728   .     S
Cu99   N131    2.050   .     S
Cu100  N132    2.050   .     S
C101   C133    1.519   .     S
C101   C111    1.412   .     A
C101   C103    1.405   .     A
C102   C137    1.519   .     S
C102   C112    1.416   .     A
C102   C104    1.408   .     A
C103   C105    1.412   .     A
C104   C106    1.409   .     A
C105   C107    1.412   .     A
C105   O141    1.385   .     S
C106   C108    1.407   .     A
C106   O143    1.386   .     S
C107   C113    1.417   .     A
C107   C109    1.420   .     A
C108   C110    1.418   .     A
C108   C114    1.417   .     A
C109   C111    1.419   .     A
C109   C884    1.412   .     S
C110   C112    1.420   .     A
C110   C883    1.412   1_554 S
C111   C116    1.420   .     A
C112   C115    1.419   .     A
C113   O145    1.376   .     S
C113   C889    1.400   .     S
C114   O147    1.381   .     S
C114   C890    1.401   1_554 S
C115   C149    1.516   .     S
C115   C887    1.400   1_554 S
C116   C153    1.517   .     S
C116   C888    1.401   .     S
C117   C126    1.401   .     A
C117   H121    1.083   .     S
C118   H122    1.083   .     S
C118   C125    1.401   .     A
C118   C206    1.384   .     S
C119   C125    1.401   .     A
C119   H123    1.083   .     S
C119   C203    1.384   .     S
C120   C126    1.401   .     A
C120   H124    1.083   .     S
C127   N132    1.383   .     A
C127   C157    1.517   .     S
C127   C646    1.436   1_545 S
C128   C161    1.517   .     S
C128   N131    1.383   .     A
C128   C387    1.436   .     S
C129   C165    1.519   .     S
C129   N132    1.383   .     A
C129   C644    1.436   1_545 S
C130   C169    1.519   .     S
C130   N131    1.383   .     A
C130   C385    1.436   .     S
C133   H136    1.106   .     S
C133   H135    1.109   .     S
C133   H134    1.108   .     S
C137   H138    1.108   .     S
C137   H140    1.109   .     S
C137   H139    1.107   .     S
O141   H142    0.988   .     S
O143   H144    0.989   .     S
O145   H146    0.993   .     S
O147   H148    0.992   .     S
C149   H151    1.108   .     S
C149   H152    1.110   .     S
C149   H150    1.111   .     S
C153   H154    1.111   .     S
C153   H155    1.110   .     S
C153   H156    1.107   .     S
C157   H159    1.110   .     S
C157   H160    1.109   .     S
C157   H158    1.078   .     S
C161   H162    1.078   .     S
C161   H163    1.109   .     S
C161   H164    1.109   .     S
C165   H168    1.109   .     S
C165   H167    1.109   .     S
C165   H166    1.081   .     S
C169   H170    1.080   .     S
C169   H171    1.109   .     S
C169   H172    1.109   .     S
O173   Cu185   1.963   .     S
O173   C177    1.307   .     A
O174   C178    1.307   .     A
O174   Cu186   1.963   .     S
O175   Cu185   1.963   .     S
O175   C178    1.306   .     A
O176   C177    1.306   .     A
O176   Cu186   1.963   .     S
C177   C212    1.451   .     S
C178   C211    1.451   .     S
O179   C183    1.305   .     A
O179   Cu185   1.963   .     S
O180   C184    1.305   .     A
O180   Cu186   1.963   .     S
O181   Cu185   1.965   .     S
O181   C184    1.305   .     A
O182   Cu186   1.965   .     S
O182   C183    1.305   .     A
C183   C190    1.455   .     S
C184   C189    1.456   .     S
Cu185  Cu186   2.728   .     S
Cu185  N217    2.050   .     S
Cu186  N218    2.050   .     S
C187   C219    1.519   .     S
C187   C197    1.412   .     A
C187   C189    1.405   .     A
C188   C223    1.519   .     S
C188   C198    1.416   .     A
C188   C190    1.408   .     A
C189   C191    1.412   .     A
C190   C192    1.409   .     A
C191   C193    1.412   .     A
C191   O227    1.385   .     S
C192   C194    1.407   .     A
C192   O229    1.386   .     S
C193   C199    1.417   .     A
C193   C195    1.420   .     A
C194   C196    1.418   .     A
C194   C200    1.417   .     A
C195   C197    1.419   .     A
C195   C970    1.412   .     S
C196   C198    1.420   .     A
C196   C969    1.412   1_554 S
C197   C202    1.420   .     A
C198   C201    1.419   .     A
C199   O231    1.376   .     S
C199   C975    1.400   .     S
C200   O233    1.381   .     S
C200   C976    1.401   1_554 S
C201   C235    1.516   .     S
C201   C973    1.400   1_554 S
C202   C239    1.517   .     S
C202   C974    1.401   .     S
C203   C212    1.401   .     A
C203   H207    1.083   .     S
C204   H208    1.083   .     S
C204   C211    1.401   .     A
C204   C34     1.384   1_655 S
C205   C211    1.401   .     A
C205   H209    1.083   .     S
C205   C31     1.384   1_655 S
C206   C212    1.401   .     A
C206   H210    1.083   .     S
C213   N218    1.383   .     A
C213   C243    1.517   .     S
C213   C732    1.436   1_545 S
C214   C247    1.517   .     S
C214   N217    1.383   .     A
C214   C473    1.436   .     S
C215   C251    1.519   .     S
C215   N218    1.383   .     A
C215   C730    1.436   1_545 S
C216   C255    1.519   .     S
C216   N217    1.383   .     A
C216   C471    1.436   .     S
C219   H222    1.106   .     S
C219   H221    1.109   .     S
C219   H220    1.108   .     S
C223   H224    1.108   .     S
C223   H226    1.109   .     S
C223   H225    1.107   .     S
O227   H228    0.988   .     S
O229   H230    0.989   .     S
O231   H232    0.993   .     S
O233   H234    0.992   .     S
C235   H237    1.108   .     S
C235   H238    1.110   .     S
C235   H236    1.111   .     S
C239   H240    1.111   .     S
C239   H241    1.110   .     S
C239   H242    1.107   .     S
C243   H245    1.110   .     S
C243   H246    1.109   .     S
C243   H244    1.078   .     S
C247   H248    1.078   .     S
C247   H249    1.109   .     S
C247   H250    1.109   .     S
C251   H254    1.109   .     S
C251   H253    1.109   .     S
C251   H252    1.081   .     S
C255   H256    1.080   .     S
C255   H257    1.109   .     S
C255   H258    1.109   .     S
O259   Cu271   1.963   .     S
O259   C263    1.307   .     A
O260   C264    1.307   .     A
O260   Cu272   1.963   .     S
O261   Cu271   1.963   .     S
O261   C264    1.306   .     A
O262   C263    1.306   .     A
O262   Cu272   1.963   .     S
C263   C298    1.451   .     S
C264   C297    1.451   .     S
O265   C269    1.305   .     A
O265   Cu271   1.963   .     S
O266   C270    1.305   .     A
O266   Cu272   1.963   .     S
O267   Cu271   1.965   .     S
O267   C270    1.305   .     A
O268   Cu272   1.965   .     S
O268   C269    1.305   .     A
C269   C276    1.455   .     S
C270   C275    1.456   .     S
Cu271  Cu272   2.728   .     S
Cu271  N303    2.050   .     S
Cu272  N304    2.050   .     S
C273   C305    1.519   .     S
C273   C283    1.412   .     A
C273   C275    1.405   .     A
C274   C309    1.519   .     S
C274   C284    1.416   .     A
C274   C276    1.408   .     A
C275   C277    1.412   .     A
C276   C278    1.409   .     A
C277   C279    1.412   .     A
C277   O313    1.385   .     S
C278   C280    1.407   .     A
C278   O315    1.386   .     S
C279   C285    1.417   .     A
C279   C281    1.420   .     A
C280   C282    1.418   .     A
C280   C286    1.417   .     A
C281   C283    1.419   .     A
C281   C1056   1.412   .     S
C282   C284    1.420   .     A
C282   C1055   1.412   1_554 S
C283   C288    1.420   .     A
C284   C287    1.419   .     A
C285   O317    1.376   .     S
C285   C1061   1.400   .     S
C286   O319    1.381   .     S
C286   C1062   1.401   1_554 S
C287   C321    1.516   .     S
C287   C1059   1.400   1_554 S
C288   C325    1.517   .     S
C288   C1060   1.401   .     S
C289   C298    1.401   .     A
C289   H293    1.083   .     S
C289   C463    1.384   1_455 S
C290   H294    1.083   .     S
C290   C297    1.401   .     A
C290   C378    1.384   .     S
C291   C297    1.401   .     A
C291   H295    1.083   .     S
C291   C375    1.384   .     S
C292   C298    1.401   .     A
C292   H296    1.083   .     S
C292   C462    1.384   1_455 S
C299   N304    1.383   .     A
C299   C329    1.517   .     S
C300   C333    1.517   .     S
C300   N303    1.383   .     A
C300   C559    1.436   .     S
C301   C337    1.519   .     S
C301   N304    1.383   .     A
C302   C341    1.519   .     S
C302   N303    1.383   .     A
C302   C557    1.436   .     S
C305   H308    1.106   .     S
C305   H307    1.109   .     S
C305   H306    1.108   .     S
C309   H310    1.108   .     S
C309   H312    1.109   .     S
C309   H311    1.107   .     S
O313   H314    0.988   .     S
O315   H316    0.989   .     S
O317   H318    0.993   .     S
O319   H320    0.992   .     S
C321   H323    1.108   .     S
C321   H324    1.110   .     S
C321   H322    1.111   .     S
C325   H326    1.111   .     S
C325   H327    1.110   .     S
C325   H328    1.107   .     S
C329   H331    1.110   .     S
C329   H332    1.109   .     S
C329   H330    1.078   .     S
C333   H334    1.078   .     S
C333   H335    1.109   .     S
C333   H336    1.109   .     S
C337   H340    1.109   .     S
C337   H339    1.109   .     S
C337   H338    1.081   .     S
C341   H342    1.080   .     S
C341   H343    1.109   .     S
C341   H344    1.109   .     S
O345   Cu357   1.963   .     S
O345   C349    1.307   .     A
O346   C350    1.307   .     A
O346   Cu358   1.963   .     S
O347   Cu357   1.963   .     S
O347   C350    1.306   .     A
O348   C349    1.306   .     A
O348   Cu358   1.963   .     S
C349   C384    1.451   .     S
C350   C383    1.451   .     S
O351   C355    1.305   .     A
O351   Cu357   1.963   .     S
O352   C356    1.305   .     A
O352   Cu358   1.963   .     S
O353   Cu357   1.965   .     S
O353   C356    1.305   .     A
O354   Cu358   1.965   .     S
O354   C355    1.305   .     A
C355   C362    1.455   .     S
C356   C361    1.456   .     S
Cu357  Cu358   2.728   .     S
Cu357  N389    2.050   .     S
Cu358  N390    2.050   .     S
C359   C391    1.519   .     S
C359   C369    1.412   .     A
C359   C361    1.405   .     A
C360   C395    1.519   .     S
C360   C370    1.416   .     A
C360   C362    1.408   .     A
C361   C363    1.412   .     A
C362   C364    1.409   .     A
C363   C365    1.412   .     A
C363   O399    1.385   .     S
C364   C366    1.407   .     A
C364   O401    1.386   .     S
C365   C371    1.417   .     A
C365   C367    1.420   .     A
C366   C368    1.418   .     A
C366   C372    1.417   .     A
C367   C369    1.419   .     A
C367   C1142   1.412   .     S
C368   C370    1.420   .     A
C368   C1141   1.412   1_554 S
C369   C374    1.420   .     A
C370   C373    1.419   .     A
C371   O403    1.376   .     S
C371   C1147   1.400   .     S
C372   O405    1.381   .     S
C372   C1148   1.401   1_554 S
C373   C407    1.516   .     S
C373   C1145   1.400   1_554 S
C374   C411    1.517   .     S
C374   C1146   1.401   .     S
C375   C384    1.401   .     A
C375   H379    1.083   .     S
C376   H380    1.083   .     S
C376   C383    1.401   .     A
C376   C464    1.384   .     S
C377   C383    1.401   .     A
C377   H381    1.083   .     S
C377   C461    1.384   .     S
C378   C384    1.401   .     A
C378   H382    1.083   .     S
C385   N390    1.383   .     A
C385   C415    1.517   .     S
C386   C419    1.517   .     S
C386   N389    1.383   .     A
C386   C645    1.436   .     S
C387   C423    1.519   .     S
C387   N390    1.383   .     A
C388   C427    1.519   .     S
C388   N389    1.383   .     A
C388   C643    1.436   .     S
C391   H394    1.106   .     S
C391   H393    1.109   .     S
C391   H392    1.108   .     S
C395   H396    1.108   .     S
C395   H398    1.109   .     S
C395   H397    1.107   .     S
O399   H400    0.988   .     S
O401   H402    0.989   .     S
O403   H404    0.993   .     S
O405   H406    0.992   .     S
C407   H409    1.108   .     S
C407   H410    1.110   .     S
C407   H408    1.111   .     S
C411   H412    1.111   .     S
C411   H413    1.110   .     S
C411   H414    1.107   .     S
C415   H417    1.110   .     S
C415   H418    1.109   .     S
C415   H416    1.078   .     S
C419   H420    1.078   .     S
C419   H421    1.109   .     S
C419   H422    1.109   .     S
C423   H426    1.109   .     S
C423   H425    1.109   .     S
C423   H424    1.081   .     S
C427   H428    1.080   .     S
C427   H429    1.109   .     S
C427   H430    1.109   .     S
O431   Cu443   1.963   .     S
O431   C435    1.307   .     A
O432   C436    1.307   .     A
O432   Cu444   1.963   .     S
O433   Cu443   1.963   .     S
O433   C436    1.306   .     A
O434   C435    1.306   .     A
O434   Cu444   1.963   .     S
C435   C470    1.451   .     S
C436   C469    1.451   .     S
O437   C441    1.305   .     A
O437   Cu443   1.963   .     S
O438   C442    1.305   .     A
O438   Cu444   1.963   .     S
O439   Cu443   1.965   .     S
O439   C442    1.305   .     A
O440   Cu444   1.965   .     S
O440   C441    1.305   .     A
C441   C448    1.455   .     S
C442   C447    1.456   .     S
Cu443  Cu444   2.728   .     S
Cu443  N475    2.050   .     S
Cu444  N476    2.050   .     S
C445   C477    1.519   .     S
C445   C455    1.412   .     A
C445   C447    1.405   .     A
C446   C481    1.519   .     S
C446   C456    1.416   .     A
C446   C448    1.408   .     A
C447   C449    1.412   .     A
C448   C450    1.409   .     A
C449   C451    1.412   .     A
C449   O485    1.385   .     S
C450   C452    1.407   .     A
C450   O487    1.386   .     S
C451   C457    1.417   .     A
C451   C453    1.420   .     A
C452   C454    1.418   .     A
C452   C458    1.417   .     A
C453   C455    1.419   .     A
C453   C1228   1.412   .     S
C454   C456    1.420   .     A
C454   C1227   1.412   1_554 S
C455   C460    1.420   .     A
C456   C459    1.419   .     A
C457   O489    1.376   .     S
C457   C1233   1.400   .     S
C458   O491    1.381   .     S
C458   C1234   1.401   1_554 S
C459   C493    1.516   .     S
C459   C1231   1.400   1_554 S
C460   C497    1.517   .     S
C460   C1232   1.401   .     S
C461   C470    1.401   .     A
C461   H465    1.083   .     S
C462   H466    1.083   .     S
C462   C469    1.401   .     A
C462   C292    1.384   1_655 S
C463   C469    1.401   .     A
C463   H467    1.083   .     S
C463   C289    1.384   1_655 S
C464   C470    1.401   .     A
C464   H468    1.083   .     S
C471   N476    1.383   .     A
C471   C501    1.517   .     S
C472   C505    1.517   .     S
C472   N475    1.383   .     A
C472   C731    1.436   .     S
C473   C509    1.519   .     S
C473   N476    1.383   .     A
C474   C513    1.519   .     S
C474   N475    1.383   .     A
C474   C729    1.436   .     S
C477   H480    1.106   .     S
C477   H479    1.109   .     S
C477   H478    1.108   .     S
C481   H482    1.108   .     S
C481   H484    1.109   .     S
C481   H483    1.107   .     S
O485   H486    0.988   .     S
O487   H488    0.989   .     S
O489   H490    0.993   .     S
O491   H492    0.992   .     S
C493   H495    1.108   .     S
C493   H496    1.110   .     S
C493   H494    1.111   .     S
C497   H498    1.111   .     S
C497   H499    1.110   .     S
C497   H500    1.107   .     S
C501   H503    1.110   .     S
C501   H504    1.109   .     S
C501   H502    1.078   .     S
C505   H506    1.078   .     S
C505   H507    1.109   .     S
C505   H508    1.109   .     S
C509   H512    1.109   .     S
C509   H511    1.109   .     S
C509   H510    1.081   .     S
C513   H514    1.080   .     S
C513   H515    1.109   .     S
C513   H516    1.109   .     S
O517   Cu529   1.963   .     S
O517   C521    1.307   .     A
O518   C522    1.307   .     A
O518   Cu530   1.963   .     S
O519   Cu529   1.963   .     S
O519   C522    1.306   .     A
O520   C521    1.306   .     A
O520   Cu530   1.963   .     S
C521   C556    1.451   .     S
C522   C555    1.451   .     S
O523   C527    1.305   .     A
O523   Cu529   1.963   .     S
O524   C528    1.305   .     A
O524   Cu530   1.963   .     S
O525   Cu529   1.965   .     S
O525   C528    1.305   .     A
O526   Cu530   1.965   .     S
O526   C527    1.305   .     A
C527   C534    1.455   .     S
C528   C533    1.456   .     S
Cu529  Cu530   2.728   .     S
Cu529  N561    2.050   .     S
Cu530  N562    2.050   .     S
C531   C563    1.519   .     S
C531   C541    1.412   .     A
C531   C533    1.405   .     A
C532   C567    1.519   .     S
C532   C542    1.416   .     A
C532   C534    1.408   .     A
C533   C535    1.412   .     A
C534   C536    1.409   .     A
C535   C537    1.412   .     A
C535   O571    1.385   .     S
C536   C538    1.407   .     A
C536   O573    1.386   .     S
C537   C543    1.417   .     A
C537   C539    1.420   .     A
C538   C540    1.418   .     A
C538   C544    1.417   .     A
C539   C541    1.419   .     A
C539   C1314   1.412   .     S
C540   C542    1.420   .     A
C540   C1313   1.412   1_554 S
C541   C546    1.420   .     A
C542   C545    1.419   .     A
C543   O575    1.376   .     S
C543   C1319   1.400   .     S
C544   O577    1.381   .     S
C544   C1320   1.401   1_554 S
C545   C579    1.516   .     S
C545   C1317   1.400   1_554 S
C546   C583    1.517   .     S
C546   C1318   1.401   .     S
C547   C556    1.401   .     A
C547   H551    1.083   .     S
C547   C721    1.384   1_455 S
C548   H552    1.083   .     S
C548   C555    1.401   .     A
C548   C636    1.384   .     S
C549   C555    1.401   .     A
C549   H553    1.083   .     S
C549   C633    1.384   .     S
C550   C556    1.401   .     A
C550   H554    1.083   .     S
C550   C720    1.384   1_455 S
C557   N562    1.383   .     A
C557   C587    1.517   .     S
C558   C591    1.517   .     S
C558   N561    1.383   .     A
C558   C43     1.436   1_565 S
C559   C595    1.519   .     S
C559   N562    1.383   .     A
C560   C599    1.519   .     S
C560   N561    1.383   .     A
C560   C41     1.436   1_565 S
C563   H566    1.106   .     S
C563   H565    1.109   .     S
C563   H564    1.108   .     S
C567   H568    1.108   .     S
C567   H570    1.109   .     S
C567   H569    1.107   .     S
O571   H572    0.988   .     S
O573   H574    0.989   .     S
O575   H576    0.993   .     S
O577   H578    0.992   .     S
C579   H581    1.108   .     S
C579   H582    1.110   .     S
C579   H580    1.111   .     S
C583   H584    1.111   .     S
C583   H585    1.110   .     S
C583   H586    1.107   .     S
C587   H589    1.110   .     S
C587   H590    1.109   .     S
C587   H588    1.078   .     S
C591   H592    1.078   .     S
C591   H593    1.109   .     S
C591   H594    1.109   .     S
C595   H598    1.109   .     S
C595   H597    1.109   .     S
C595   H596    1.081   .     S
C599   H600    1.080   .     S
C599   H601    1.109   .     S
C599   H602    1.109   .     S
O603   Cu615   1.963   .     S
O603   C607    1.307   .     A
O604   C608    1.307   .     A
O604   Cu616   1.963   .     S
O605   Cu615   1.963   .     S
O605   C608    1.306   .     A
O606   C607    1.306   .     A
O606   Cu616   1.963   .     S
C607   C642    1.451   .     S
C608   C641    1.451   .     S
O609   C613    1.305   .     A
O609   Cu615   1.963   .     S
O610   C614    1.305   .     A
O610   Cu616   1.963   .     S
O611   Cu615   1.965   .     S
O611   C614    1.305   .     A
O612   Cu616   1.965   .     S
O612   C613    1.305   .     A
C613   C620    1.455   .     S
C614   C619    1.456   .     S
Cu615  Cu616   2.728   .     S
Cu615  N647    2.050   .     S
Cu616  N648    2.050   .     S
C617   C649    1.519   .     S
C617   C627    1.412   .     A
C617   C619    1.405   .     A
C618   C653    1.519   .     S
C618   C628    1.416   .     A
C618   C620    1.408   .     A
C619   C621    1.412   .     A
C620   C622    1.409   .     A
C621   C623    1.412   .     A
C621   O657    1.385   .     S
C622   C624    1.407   .     A
C622   O659    1.386   .     S
C623   C629    1.417   .     A
C623   C625    1.420   .     A
C624   C626    1.418   .     A
C624   C630    1.417   .     A
C625   C627    1.419   .     A
C625   C1400   1.412   .     S
C626   C628    1.420   .     A
C626   C1399   1.412   1_554 S
C627   C632    1.420   .     A
C628   C631    1.419   .     A
C629   O661    1.376   .     S
C629   C1405   1.400   .     S
C630   O663    1.381   .     S
C630   C1406   1.401   1_554 S
C631   C665    1.516   .     S
C631   C1403   1.400   1_554 S
C632   C669    1.517   .     S
C632   C1404   1.401   .     S
C633   C642    1.401   .     A
C633   H637    1.083   .     S
C634   H638    1.083   .     S
C634   C641    1.401   .     A
C634   C722    1.384   .     S
C635   C641    1.401   .     A
C635   H639    1.083   .     S
C635   C719    1.384   .     S
C636   C642    1.401   .     A
C636   H640    1.083   .     S
C643   N648    1.383   .     A
C643   C673    1.517   .     S
C644   C677    1.517   .     S
C644   N647    1.383   .     A
C644   C129    1.436   1_565 S
C645   C681    1.519   .     S
C645   N648    1.383   .     A
C646   C685    1.519   .     S
C646   N647    1.383   .     A
C646   C127    1.436   1_565 S
C649   H652    1.106   .     S
C649   H651    1.109   .     S
C649   H650    1.108   .     S
C653   H654    1.108   .     S
C653   H656    1.109   .     S
C653   H655    1.107   .     S
O657   H658    0.988   .     S
O659   H660    0.989   .     S
O661   H662    0.993   .     S
O663   H664    0.992   .     S
C665   H667    1.108   .     S
C665   H668    1.110   .     S
C665   H666    1.111   .     S
C669   H670    1.111   .     S
C669   H671    1.110   .     S
C669   H672    1.107   .     S
C673   H675    1.110   .     S
C673   H676    1.109   .     S
C673   H674    1.078   .     S
C677   H678    1.078   .     S
C677   H679    1.109   .     S
C677   H680    1.109   .     S
C681   H684    1.109   .     S
C681   H683    1.109   .     S
C681   H682    1.081   .     S
C685   H686    1.080   .     S
C685   H687    1.109   .     S
C685   H688    1.109   .     S
O689   Cu701   1.963   .     S
O689   C693    1.307   .     A
O690   C694    1.307   .     A
O690   Cu702   1.963   .     S
O691   Cu701   1.963   .     S
O691   C694    1.306   .     A
O692   C693    1.306   .     A
O692   Cu702   1.963   .     S
C693   C728    1.451   .     S
C694   C727    1.451   .     S
O695   C699    1.305   .     A
O695   Cu701   1.963   .     S
O696   C700    1.305   .     A
O696   Cu702   1.963   .     S
O697   Cu701   1.965   .     S
O697   C700    1.305   .     A
O698   Cu702   1.965   .     S
O698   C699    1.305   .     A
C699   C706    1.455   .     S
C700   C705    1.456   .     S
Cu701  Cu702   2.728   .     S
Cu701  N733    2.050   .     S
Cu702  N734    2.050   .     S
C703   C735    1.519   .     S
C703   C713    1.412   .     A
C703   C705    1.405   .     A
C704   C739    1.519   .     S
C704   C714    1.416   .     A
C704   C706    1.408   .     A
C705   C707    1.412   .     A
C706   C708    1.409   .     A
C707   C709    1.412   .     A
C707   O743    1.385   .     S
C708   C710    1.407   .     A
C708   O745    1.386   .     S
C709   C715    1.417   .     A
C709   C711    1.420   .     A
C710   C712    1.418   .     A
C710   C716    1.417   .     A
C711   C713    1.419   .     A
C711   C1486   1.412   .     S
C712   C714    1.420   .     A
C712   C1485   1.412   1_554 S
C713   C718    1.420   .     A
C714   C717    1.419   .     A
C715   O747    1.376   .     S
C715   C1491   1.400   .     S
C716   O749    1.381   .     S
C716   C1492   1.401   1_554 S
C717   C751    1.516   .     S
C717   C1489   1.400   1_554 S
C718   C755    1.517   .     S
C718   C1490   1.401   .     S
C719   C728    1.401   .     A
C719   H723    1.083   .     S
C720   H724    1.083   .     S
C720   C727    1.401   .     A
C720   C550    1.384   1_655 S
C721   C727    1.401   .     A
C721   H725    1.083   .     S
C721   C547    1.384   1_655 S
C722   C728    1.401   .     A
C722   H726    1.083   .     S
C729   N734    1.383   .     A
C729   C759    1.517   .     S
C730   C763    1.517   .     S
C730   N733    1.383   .     A
C730   C215    1.436   1_565 S
C731   C767    1.519   .     S
C731   N734    1.383   .     A
C732   C771    1.519   .     S
C732   N733    1.383   .     A
C732   C213    1.436   1_565 S
C735   H738    1.106   .     S
C735   H737    1.109   .     S
C735   H736    1.108   .     S
C739   H740    1.108   .     S
C739   H742    1.109   .     S
C739   H741    1.107   .     S
O743   H744    0.988   .     S
O745   H746    0.989   .     S
O747   H748    0.993   .     S
O749   H750    0.992   .     S
C751   H753    1.108   .     S
C751   H754    1.110   .     S
C751   H752    1.111   .     S
C755   H756    1.111   .     S
C755   H757    1.110   .     S
C755   H758    1.107   .     S
C759   H761    1.110   .     S
C759   H762    1.109   .     S
C759   H760    1.078   .     S
C763   H764    1.078   .     S
C763   H765    1.109   .     S
C763   H766    1.109   .     S
C767   H770    1.109   .     S
C767   H769    1.109   .     S
C767   H768    1.081   .     S
C771   H772    1.080   .     S
C771   H773    1.109   .     S
C771   H774    1.109   .     S
O775   Cu787   1.963   .     S
O775   C779    1.307   .     A
O776   C780    1.307   .     A
O776   Cu788   1.963   .     S
O777   Cu787   1.963   .     S
O777   C780    1.306   .     A
O778   C779    1.306   .     A
O778   Cu788   1.963   .     S
C779   C814    1.451   .     S
C780   C813    1.451   .     S
O781   C785    1.305   .     A
O781   Cu787   1.963   .     S
O782   C786    1.305   .     A
O782   Cu788   1.963   .     S
O783   Cu787   1.965   .     S
O783   C786    1.305   .     A
O784   Cu788   1.965   .     S
O784   C785    1.305   .     A
C785   C792    1.455   .     S
C786   C791    1.456   .     S
Cu787  Cu788   2.728   .     S
Cu787  N819    2.050   .     S
Cu788  N820    2.050   .     S
C789   C821    1.519   .     S
C789   C799    1.412   .     A
C789   C791    1.405   .     A
C790   C825    1.519   .     S
C790   C800    1.416   .     A
C790   C792    1.408   .     A
C791   C793    1.412   .     A
C792   C794    1.409   .     A
C793   C795    1.412   .     A
C793   O829    1.385   .     S
C794   C796    1.407   .     A
C794   O831    1.386   .     S
C795   C801    1.417   .     A
C795   C797    1.420   .     A
C796   C798    1.418   .     A
C796   C802    1.417   .     A
C797   C799    1.419   .     A
C797   C24     1.412   1_556 S
C798   C800    1.420   .     A
C799   C804    1.420   .     A
C800   C803    1.419   .     A
C801   O833    1.376   .     S
C801   C29     1.400   1_556 S
C802   O835    1.381   .     S
C803   C837    1.516   .     S
C804   C841    1.517   .     S
C804   C28     1.401   1_556 S
C805   C814    1.401   .     A
C805   H809    1.083   .     S
C805   C979    1.384   1_455 S
C806   H810    1.083   .     S
C806   C813    1.401   .     A
C806   C894    1.384   .     S
C807   C813    1.401   .     A
C807   H811    1.083   .     S
C807   C891    1.384   .     S
C808   C814    1.401   .     A
C808   H812    1.083   .     S
C808   C978    1.384   1_455 S
C815   N820    1.383   .     A
C815   C845    1.517   .     S
C815   C1334   1.436   1_545 S
C816   C849    1.517   .     S
C816   N819    1.383   .     A
C816   C1075   1.436   .     S
C817   C853    1.519   .     S
C817   N820    1.383   .     A
C817   C1332   1.436   1_545 S
C818   C857    1.519   .     S
C818   N819    1.383   .     A
C818   C1073   1.436   .     S
C821   H824    1.106   .     S
C821   H823    1.109   .     S
C821   H822    1.108   .     S
C825   H826    1.108   .     S
C825   H828    1.109   .     S
C825   H827    1.107   .     S
O829   H830    0.988   .     S
O831   H832    0.989   .     S
O833   H834    0.993   .     S
O835   H836    0.992   .     S
C837   H839    1.108   .     S
C837   H840    1.110   .     S
C837   H838    1.111   .     S
C841   H842    1.111   .     S
C841   H843    1.110   .     S
C841   H844    1.107   .     S
C845   H847    1.110   .     S
C845   H848    1.109   .     S
C845   H846    1.078   .     S
C849   H850    1.078   .     S
C849   H851    1.109   .     S
C849   H852    1.109   .     S
C853   H856    1.109   .     S
C853   H855    1.109   .     S
C853   H854    1.081   .     S
C857   H858    1.080   .     S
C857   H859    1.109   .     S
C857   H860    1.109   .     S
O861   Cu873   1.963   .     S
O861   C865    1.307   .     A
O862   C866    1.307   .     A
O862   Cu874   1.963   .     S
O863   Cu873   1.963   .     S
O863   C866    1.306   .     A
O864   C865    1.306   .     A
O864   Cu874   1.963   .     S
C865   C900    1.451   .     S
C866   C899    1.451   .     S
O867   C871    1.305   .     A
O867   Cu873   1.963   .     S
O868   C872    1.305   .     A
O868   Cu874   1.963   .     S
O869   Cu873   1.965   .     S
O869   C872    1.305   .     A
O870   Cu874   1.965   .     S
O870   C871    1.305   .     A
C871   C878    1.455   .     S
C872   C877    1.456   .     S
Cu873  Cu874   2.728   .     S
Cu873  N905    2.050   .     S
Cu874  N906    2.050   .     S
C875   C907    1.519   .     S
C875   C885    1.412   .     A
C875   C877    1.405   .     A
C876   C911    1.519   .     S
C876   C886    1.416   .     A
C876   C878    1.408   .     A
C877   C879    1.412   .     A
C878   C880    1.409   .     A
C879   C881    1.412   .     A
C879   O915    1.385   .     S
C880   C882    1.407   .     A
C880   O917    1.386   .     S
C881   C887    1.417   .     A
C881   C883    1.420   .     A
C882   C884    1.418   .     A
C882   C888    1.417   .     A
C883   C885    1.419   .     A
C883   C110    1.412   1_556 S
C884   C886    1.420   .     A
C885   C890    1.420   .     A
C886   C889    1.419   .     A
C887   O919    1.376   .     S
C887   C115    1.400   1_556 S
C888   O921    1.381   .     S
C889   C923    1.516   .     S
C890   C927    1.517   .     S
C890   C114    1.401   1_556 S
C891   C900    1.401   .     A
C891   H895    1.083   .     S
C892   H896    1.083   .     S
C892   C899    1.401   .     A
C892   C980    1.384   .     S
C893   C899    1.401   .     A
C893   H897    1.083   .     S
C893   C977    1.384   .     S
C894   C900    1.401   .     A
C894   H898    1.083   .     S
C901   N906    1.383   .     A
C901   C931    1.517   .     S
C901   C1420   1.436   1_545 S
C902   C935    1.517   .     S
C902   N905    1.383   .     A
C902   C1161   1.436   .     S
C903   C939    1.519   .     S
C903   N906    1.383   .     A
C903   C1418   1.436   1_545 S
C904   C943    1.519   .     S
C904   N905    1.383   .     A
C904   C1159   1.436   .     S
C907   H910    1.106   .     S
C907   H909    1.109   .     S
C907   H908    1.108   .     S
C911   H912    1.108   .     S
C911   H914    1.109   .     S
C911   H913    1.107   .     S
O915   H916    0.988   .     S
O917   H918    0.989   .     S
O919   H920    0.993   .     S
O921   H922    0.992   .     S
C923   H925    1.108   .     S
C923   H926    1.110   .     S
C923   H924    1.111   .     S
C927   H928    1.111   .     S
C927   H929    1.110   .     S
C927   H930    1.107   .     S
C931   H933    1.110   .     S
C931   H934    1.109   .     S
C931   H932    1.078   .     S
C935   H936    1.078   .     S
C935   H937    1.109   .     S
C935   H938    1.109   .     S
C939   H942    1.109   .     S
C939   H941    1.109   .     S
C939   H940    1.081   .     S
C943   H944    1.080   .     S
C943   H945    1.109   .     S
C943   H946    1.109   .     S
O947   Cu959   1.963   .     S
O947   C951    1.307   .     A
O948   C952    1.307   .     A
O948   Cu960   1.963   .     S
O949   Cu959   1.963   .     S
O949   C952    1.306   .     A
O950   C951    1.306   .     A
O950   Cu960   1.963   .     S
C951   C986    1.451   .     S
C952   C985    1.451   .     S
O953   C957    1.305   .     A
O953   Cu959   1.963   .     S
O954   C958    1.305   .     A
O954   Cu960   1.963   .     S
O955   Cu959   1.965   .     S
O955   C958    1.305   .     A
O956   Cu960   1.965   .     S
O956   C957    1.305   .     A
C957   C964    1.455   .     S
C958   C963    1.456   .     S
Cu959  Cu960   2.728   .     S
Cu959  N991    2.050   .     S
Cu960  N992    2.050   .     S
C961   C993    1.519   .     S
C961   C971    1.412   .     A
C961   C963    1.405   .     A
C962   C997    1.519   .     S
C962   C972    1.416   .     A
C962   C964    1.408   .     A
C963   C965    1.412   .     A
C964   C966    1.409   .     A
C965   C967    1.412   .     A
C965   O1001   1.385   .     S
C966   C968    1.407   .     A
C966   O1003   1.386   .     S
C967   C973    1.417   .     A
C967   C969    1.420   .     A
C968   C970    1.418   .     A
C968   C974    1.417   .     A
C969   C971    1.419   .     A
C969   C196    1.412   1_556 S
C970   C972    1.420   .     A
C971   C976    1.420   .     A
C972   C975    1.419   .     A
C973   O1005   1.376   .     S
C973   C201    1.400   1_556 S
C974   O1007   1.381   .     S
C975   C1009   1.516   .     S
C976   C1013   1.517   .     S
C976   C200    1.401   1_556 S
C977   C986    1.401   .     A
C977   H981    1.083   .     S
C978   H982    1.083   .     S
C978   C985    1.401   .     A
C978   C808    1.384   1_655 S
C979   C985    1.401   .     A
C979   H983    1.083   .     S
C979   C805    1.384   1_655 S
C980   C986    1.401   .     A
C980   H984    1.083   .     S
C987   N992    1.383   .     A
C987   C1017   1.517   .     S
C987   C1506   1.436   1_545 S
C988   C1021   1.517   .     S
C988   N991    1.383   .     A
C988   C1247   1.436   .     S
C989   C1025   1.519   .     S
C989   N992    1.383   .     A
C989   C1504   1.436   1_545 S
C990   C1029   1.519   .     S
C990   N991    1.383   .     A
C990   C1245   1.436   .     S
C993   H996    1.106   .     S
C993   H995    1.109   .     S
C993   H994    1.108   .     S
C997   H998    1.108   .     S
C997   H1000   1.109   .     S
C997   H999    1.107   .     S
O1001  H1002   0.988   .     S
O1003  H1004   0.989   .     S
O1005  H1006   0.993   .     S
O1007  H1008   0.992   .     S
C1009  H1011   1.108   .     S
C1009  H1012   1.110   .     S
C1009  H1010   1.111   .     S
C1013  H1014   1.111   .     S
C1013  H1015   1.110   .     S
C1013  H1016   1.107   .     S
C1017  H1019   1.110   .     S
C1017  H1020   1.109   .     S
C1017  H1018   1.078   .     S
C1021  H1022   1.078   .     S
C1021  H1023   1.109   .     S
C1021  H1024   1.109   .     S
C1025  H1028   1.109   .     S
C1025  H1027   1.109   .     S
C1025  H1026   1.081   .     S
C1029  H1030   1.080   .     S
C1029  H1031   1.109   .     S
C1029  H1032   1.109   .     S
O1033  Cu1045  1.963   .     S
O1033  C1037   1.307   .     A
O1034  C1038   1.307   .     A
O1034  Cu1046  1.963   .     S
O1035  Cu1045  1.963   .     S
O1035  C1038   1.306   .     A
O1036  C1037   1.306   .     A
O1036  Cu1046  1.963   .     S
C1037  C1072   1.451   .     S
C1038  C1071   1.451   .     S
O1039  C1043   1.305   .     A
O1039  Cu1045  1.963   .     S
O1040  C1044   1.305   .     A
O1040  Cu1046  1.963   .     S
O1041  Cu1045  1.965   .     S
O1041  C1044   1.305   .     A
O1042  Cu1046  1.965   .     S
O1042  C1043   1.305   .     A
C1043  C1050   1.455   .     S
C1044  C1049   1.456   .     S
Cu1045 Cu1046  2.728   .     S
Cu1045 N1077   2.050   .     S
Cu1046 N1078   2.050   .     S
C1047  C1079   1.519   .     S
C1047  C1057   1.412   .     A
C1047  C1049   1.405   .     A
C1048  C1083   1.519   .     S
C1048  C1058   1.416   .     A
C1048  C1050   1.408   .     A
C1049  C1051   1.412   .     A
C1050  C1052   1.409   .     A
C1051  C1053   1.412   .     A
C1051  O1087   1.385   .     S
C1052  C1054   1.407   .     A
C1052  O1089   1.386   .     S
C1053  C1059   1.417   .     A
C1053  C1055   1.420   .     A
C1054  C1056   1.418   .     A
C1054  C1060   1.417   .     A
C1055  C1057   1.419   .     A
C1055  C282    1.412   1_556 S
C1056  C1058   1.420   .     A
C1057  C1062   1.420   .     A
C1058  C1061   1.419   .     A
C1059  O1091   1.376   .     S
C1059  C287    1.400   1_556 S
C1060  O1093   1.381   .     S
C1061  C1095   1.516   .     S
C1062  C1099   1.517   .     S
C1062  C286    1.401   1_556 S
C1063  C1072   1.401   .     A
C1063  H1067   1.083   .     S
C1063  C1237   1.384   1_455 S
C1064  H1068   1.083   .     S
C1064  C1071   1.401   .     A
C1064  C1152   1.384   .     S
C1065  C1071   1.401   .     A
C1065  H1069   1.083   .     S
C1065  C1149   1.384   .     S
C1066  C1072   1.401   .     A
C1066  H1070   1.083   .     S
C1066  C1236   1.384   1_455 S
C1073  N1078   1.383   .     A
C1073  C1103   1.517   .     S
C1074  C1107   1.517   .     S
C1074  N1077   1.383   .     A
C1074  C1333   1.436   .     S
C1075  C1111   1.519   .     S
C1075  N1078   1.383   .     A
C1076  C1115   1.519   .     S
C1076  N1077   1.383   .     A
C1076  C1331   1.436   .     S
C1079  H1082   1.106   .     S
C1079  H1081   1.109   .     S
C1079  H1080   1.108   .     S
C1083  H1084   1.108   .     S
C1083  H1086   1.109   .     S
C1083  H1085   1.107   .     S
O1087  H1088   0.988   .     S
O1089  H1090   0.989   .     S
O1091  H1092   0.993   .     S
O1093  H1094   0.992   .     S
C1095  H1097   1.108   .     S
C1095  H1098   1.110   .     S
C1095  H1096   1.111   .     S
C1099  H1100   1.111   .     S
C1099  H1101   1.110   .     S
C1099  H1102   1.107   .     S
C1103  H1105   1.110   .     S
C1103  H1106   1.109   .     S
C1103  H1104   1.078   .     S
C1107  H1108   1.078   .     S
C1107  H1109   1.109   .     S
C1107  H1110   1.109   .     S
C1111  H1114   1.109   .     S
C1111  H1113   1.109   .     S
C1111  H1112   1.081   .     S
C1115  H1116   1.080   .     S
C1115  H1117   1.109   .     S
C1115  H1118   1.109   .     S
O1119  Cu1131  1.963   .     S
O1119  C1123   1.307   .     A
O1120  C1124   1.307   .     A
O1120  Cu1132  1.963   .     S
O1121  Cu1131  1.963   .     S
O1121  C1124   1.306   .     A
O1122  C1123   1.306   .     A
O1122  Cu1132  1.963   .     S
C1123  C1158   1.451   .     S
C1124  C1157   1.451   .     S
O1125  C1129   1.305   .     A
O1125  Cu1131  1.963   .     S
O1126  C1130   1.305   .     A
O1126  Cu1132  1.963   .     S
O1127  Cu1131  1.965   .     S
O1127  C1130   1.305   .     A
O1128  Cu1132  1.965   .     S
O1128  C1129   1.305   .     A
C1129  C1136   1.455   .     S
C1130  C1135   1.456   .     S
Cu1131 Cu1132  2.728   .     S
Cu1131 N1163   2.050   .     S
Cu1132 N1164   2.050   .     S
C1133  C1165   1.519   .     S
C1133  C1143   1.412   .     A
C1133  C1135   1.405   .     A
C1134  C1169   1.519   .     S
C1134  C1144   1.416   .     A
C1134  C1136   1.408   .     A
C1135  C1137   1.412   .     A
C1136  C1138   1.409   .     A
C1137  C1139   1.412   .     A
C1137  O1173   1.385   .     S
C1138  C1140   1.407   .     A
C1138  O1175   1.386   .     S
C1139  C1145   1.417   .     A
C1139  C1141   1.420   .     A
C1140  C1142   1.418   .     A
C1140  C1146   1.417   .     A
C1141  C1143   1.419   .     A
C1141  C368    1.412   1_556 S
C1142  C1144   1.420   .     A
C1143  C1148   1.420   .     A
C1144  C1147   1.419   .     A
C1145  O1177   1.376   .     S
C1145  C373    1.400   1_556 S
C1146  O1179   1.381   .     S
C1147  C1181   1.516   .     S
C1148  C1185   1.517   .     S
C1148  C372    1.401   1_556 S
C1149  C1158   1.401   .     A
C1149  H1153   1.083   .     S
C1150  H1154   1.083   .     S
C1150  C1157   1.401   .     A
C1150  C1238   1.384   .     S
C1151  C1157   1.401   .     A
C1151  H1155   1.083   .     S
C1151  C1235   1.384   .     S
C1152  C1158   1.401   .     A
C1152  H1156   1.083   .     S
C1159  N1164   1.383   .     A
C1159  C1189   1.517   .     S
C1160  C1193   1.517   .     S
C1160  N1163   1.383   .     A
C1160  C1419   1.436   .     S
C1161  C1197   1.519   .     S
C1161  N1164   1.383   .     A
C1162  C1201   1.519   .     S
C1162  N1163   1.383   .     A
C1162  C1417   1.436   .     S
C1165  H1168   1.106   .     S
C1165  H1167   1.109   .     S
C1165  H1166   1.108   .     S
C1169  H1170   1.108   .     S
C1169  H1172   1.109   .     S
C1169  H1171   1.107   .     S
O1173  H1174   0.988   .     S
O1175  H1176   0.989   .     S
O1177  H1178   0.993   .     S
O1179  H1180   0.992   .     S
C1181  H1183   1.108   .     S
C1181  H1184   1.110   .     S
C1181  H1182   1.111   .     S
C1185  H1186   1.111   .     S
C1185  H1187   1.110   .     S
C1185  H1188   1.107   .     S
C1189  H1191   1.110   .     S
C1189  H1192   1.109   .     S
C1189  H1190   1.078   .     S
C1193  H1194   1.078   .     S
C1193  H1195   1.109   .     S
C1193  H1196   1.109   .     S
C1197  H1200   1.109   .     S
C1197  H1199   1.109   .     S
C1197  H1198   1.081   .     S
C1201  H1202   1.080   .     S
C1201  H1203   1.109   .     S
C1201  H1204   1.109   .     S
O1205  Cu1217  1.963   .     S
O1205  C1209   1.307   .     A
O1206  C1210   1.307   .     A
O1206  Cu1218  1.963   .     S
O1207  Cu1217  1.963   .     S
O1207  C1210   1.306   .     A
O1208  C1209   1.306   .     A
O1208  Cu1218  1.963   .     S
C1209  C1244   1.451   .     S
C1210  C1243   1.451   .     S
O1211  C1215   1.305   .     A
O1211  Cu1217  1.963   .     S
O1212  C1216   1.305   .     A
O1212  Cu1218  1.963   .     S
O1213  Cu1217  1.965   .     S
O1213  C1216   1.305   .     A
O1214  Cu1218  1.965   .     S
O1214  C1215   1.305   .     A
C1215  C1222   1.455   .     S
C1216  C1221   1.456   .     S
Cu1217 Cu1218  2.728   .     S
Cu1217 N1249   2.050   .     S
Cu1218 N1250   2.050   .     S
C1219  C1251   1.519   .     S
C1219  C1229   1.412   .     A
C1219  C1221   1.405   .     A
C1220  C1255   1.519   .     S
C1220  C1230   1.416   .     A
C1220  C1222   1.408   .     A
C1221  C1223   1.412   .     A
C1222  C1224   1.409   .     A
C1223  C1225   1.412   .     A
C1223  O1259   1.385   .     S
C1224  C1226   1.407   .     A
C1224  O1261   1.386   .     S
C1225  C1231   1.417   .     A
C1225  C1227   1.420   .     A
C1226  C1228   1.418   .     A
C1226  C1232   1.417   .     A
C1227  C1229   1.419   .     A
C1227  C454    1.412   1_556 S
C1228  C1230   1.420   .     A
C1229  C1234   1.420   .     A
C1230  C1233   1.419   .     A
C1231  O1263   1.376   .     S
C1231  C459    1.400   1_556 S
C1232  O1265   1.381   .     S
C1233  C1267   1.516   .     S
C1234  C1271   1.517   .     S
C1234  C458    1.401   1_556 S
C1235  C1244   1.401   .     A
C1235  H1239   1.083   .     S
C1236  H1240   1.083   .     S
C1236  C1243   1.401   .     A
C1236  C1066   1.384   1_655 S
C1237  C1243   1.401   .     A
C1237  H1241   1.083   .     S
C1237  C1063   1.384   1_655 S
C1238  C1244   1.401   .     A
C1238  H1242   1.083   .     S
C1245  N1250   1.383   .     A
C1245  C1275   1.517   .     S
C1246  C1279   1.517   .     S
C1246  N1249   1.383   .     A
C1246  C1505   1.436   .     S
C1247  C1283   1.519   .     S
C1247  N1250   1.383   .     A
C1248  C1287   1.519   .     S
C1248  N1249   1.383   .     A
C1248  C1503   1.436   .     S
C1251  H1254   1.106   .     S
C1251  H1253   1.109   .     S
C1251  H1252   1.108   .     S
C1255  H1256   1.108   .     S
C1255  H1258   1.109   .     S
C1255  H1257   1.107   .     S
O1259  H1260   0.988   .     S
O1261  H1262   0.989   .     S
O1263  H1264   0.993   .     S
O1265  H1266   0.992   .     S
C1267  H1269   1.108   .     S
C1267  H1270   1.110   .     S
C1267  H1268   1.111   .     S
C1271  H1272   1.111   .     S
C1271  H1273   1.110   .     S
C1271  H1274   1.107   .     S
C1275  H1277   1.110   .     S
C1275  H1278   1.109   .     S
C1275  H1276   1.078   .     S
C1279  H1280   1.078   .     S
C1279  H1281   1.109   .     S
C1279  H1282   1.109   .     S
C1283  H1286   1.109   .     S
C1283  H1285   1.109   .     S
C1283  H1284   1.081   .     S
C1287  H1288   1.080   .     S
C1287  H1289   1.109   .     S
C1287  H1290   1.109   .     S
O1291  Cu1303  1.963   .     S
O1291  C1295   1.307   .     A
O1292  C1296   1.307   .     A
O1292  Cu1304  1.963   .     S
O1293  Cu1303  1.963   .     S
O1293  C1296   1.306   .     A
O1294  C1295   1.306   .     A
O1294  Cu1304  1.963   .     S
C1295  C1330   1.451   .     S
C1296  C1329   1.451   .     S
O1297  C1301   1.305   .     A
O1297  Cu1303  1.963   .     S
O1298  C1302   1.305   .     A
O1298  Cu1304  1.963   .     S
O1299  Cu1303  1.965   .     S
O1299  C1302   1.305   .     A
O1300  Cu1304  1.965   .     S
O1300  C1301   1.305   .     A
C1301  C1308   1.455   .     S
C1302  C1307   1.456   .     S
Cu1303 Cu1304  2.728   .     S
Cu1303 N1335   2.050   .     S
Cu1304 N1336   2.050   .     S
C1305  C1337   1.519   .     S
C1305  C1315   1.412   .     A
C1305  C1307   1.405   .     A
C1306  C1341   1.519   .     S
C1306  C1316   1.416   .     A
C1306  C1308   1.408   .     A
C1307  C1309   1.412   .     A
C1308  C1310   1.409   .     A
C1309  C1311   1.412   .     A
C1309  O1345   1.385   .     S
C1310  C1312   1.407   .     A
C1310  O1347   1.386   .     S
C1311  C1317   1.417   .     A
C1311  C1313   1.420   .     A
C1312  C1314   1.418   .     A
C1312  C1318   1.417   .     A
C1313  C1315   1.419   .     A
C1313  C540    1.412   1_556 S
C1314  C1316   1.420   .     A
C1315  C1320   1.420   .     A
C1316  C1319   1.419   .     A
C1317  O1349   1.376   .     S
C1317  C545    1.400   1_556 S
C1318  O1351   1.381   .     S
C1319  C1353   1.516   .     S
C1320  C1357   1.517   .     S
C1320  C544    1.401   1_556 S
C1321  C1330   1.401   .     A
C1321  H1325   1.083   .     S
C1321  C1495   1.384   1_455 S
C1322  H1326   1.083   .     S
C1322  C1329   1.401   .     A
C1322  C1410   1.384   .     S
C1323  C1329   1.401   .     A
C1323  H1327   1.083   .     S
C1323  C1407   1.384   .     S
C1324  C1330   1.401   .     A
C1324  H1328   1.083   .     S
C1324  C1494   1.384   1_455 S
C1331  N1336   1.383   .     A
C1331  C1361   1.517   .     S
C1332  C1365   1.517   .     S
C1332  N1335   1.383   .     A
C1332  C817    1.436   1_565 S
C1333  C1369   1.519   .     S
C1333  N1336   1.383   .     A
C1334  C1373   1.519   .     S
C1334  N1335   1.383   .     A
C1334  C815    1.436   1_565 S
C1337  H1340   1.106   .     S
C1337  H1339   1.109   .     S
C1337  H1338   1.108   .     S
C1341  H1342   1.108   .     S
C1341  H1344   1.109   .     S
C1341  H1343   1.107   .     S
O1345  H1346   0.988   .     S
O1347  H1348   0.989   .     S
O1349  H1350   0.993   .     S
O1351  H1352   0.992   .     S
C1353  H1355   1.108   .     S
C1353  H1356   1.110   .     S
C1353  H1354   1.111   .     S
C1357  H1358   1.111   .     S
C1357  H1359   1.110   .     S
C1357  H1360   1.107   .     S
C1361  H1363   1.110   .     S
C1361  H1364   1.109   .     S
C1361  H1362   1.078   .     S
C1365  H1366   1.078   .     S
C1365  H1367   1.109   .     S
C1365  H1368   1.109   .     S
C1369  H1372   1.109   .     S
C1369  H1371   1.109   .     S
C1369  H1370   1.081   .     S
C1373  H1374   1.080   .     S
C1373  H1375   1.109   .     S
C1373  H1376   1.109   .     S
O1377  Cu1389  1.963   .     S
O1377  C1381   1.307   .     A
O1378  C1382   1.307   .     A
O1378  Cu1390  1.963   .     S
O1379  Cu1389  1.963   .     S
O1379  C1382   1.306   .     A
O1380  C1381   1.306   .     A
O1380  Cu1390  1.963   .     S
C1381  C1416   1.451   .     S
C1382  C1415   1.451   .     S
O1383  C1387   1.305   .     A
O1383  Cu1389  1.963   .     S
O1384  C1388   1.305   .     A
O1384  Cu1390  1.963   .     S
O1385  Cu1389  1.965   .     S
O1385  C1388   1.305   .     A
O1386  Cu1390  1.965   .     S
O1386  C1387   1.305   .     A
C1387  C1394   1.455   .     S
C1388  C1393   1.456   .     S
Cu1389 Cu1390  2.728   .     S
Cu1389 N1421   2.050   .     S
Cu1390 N1422   2.050   .     S
C1391  C1423   1.519   .     S
C1391  C1401   1.412   .     A
C1391  C1393   1.405   .     A
C1392  C1427   1.519   .     S
C1392  C1402   1.416   .     A
C1392  C1394   1.408   .     A
C1393  C1395   1.412   .     A
C1394  C1396   1.409   .     A
C1395  C1397   1.412   .     A
C1395  O1431   1.385   .     S
C1396  C1398   1.407   .     A
C1396  O1433   1.386   .     S
C1397  C1403   1.417   .     A
C1397  C1399   1.420   .     A
C1398  C1400   1.418   .     A
C1398  C1404   1.417   .     A
C1399  C1401   1.419   .     A
C1399  C626    1.412   1_556 S
C1400  C1402   1.420   .     A
C1401  C1406   1.420   .     A
C1402  C1405   1.419   .     A
C1403  O1435   1.376   .     S
C1403  C631    1.400   1_556 S
C1404  O1437   1.381   .     S
C1405  C1439   1.516   .     S
C1406  C1443   1.517   .     S
C1406  C630    1.401   1_556 S
C1407  C1416   1.401   .     A
C1407  H1411   1.083   .     S
C1408  H1412   1.083   .     S
C1408  C1415   1.401   .     A
C1408  C1496   1.384   .     S
C1409  C1415   1.401   .     A
C1409  H1413   1.083   .     S
C1409  C1493   1.384   .     S
C1410  C1416   1.401   .     A
C1410  H1414   1.083   .     S
C1417  N1422   1.383   .     A
C1417  C1447   1.517   .     S
C1418  C1451   1.517   .     S
C1418  N1421   1.383   .     A
C1418  C903    1.436   1_565 S
C1419  C1455   1.519   .     S
C1419  N1422   1.383   .     A
C1420  C1459   1.519   .     S
C1420  N1421   1.383   .     A
C1420  C901    1.436   1_565 S
C1423  H1426   1.106   .     S
C1423  H1425   1.109   .     S
C1423  H1424   1.108   .     S
C1427  H1428   1.108   .     S
C1427  H1430   1.109   .     S
C1427  H1429   1.107   .     S
O1431  H1432   0.988   .     S
O1433  H1434   0.989   .     S
O1435  H1436   0.993   .     S
O1437  H1438   0.992   .     S
C1439  H1441   1.108   .     S
C1439  H1442   1.110   .     S
C1439  H1440   1.111   .     S
C1443  H1444   1.111   .     S
C1443  H1445   1.110   .     S
C1443  H1446   1.107   .     S
C1447  H1449   1.110   .     S
C1447  H1450   1.109   .     S
C1447  H1448   1.078   .     S
C1451  H1452   1.078   .     S
C1451  H1453   1.109   .     S
C1451  H1454   1.109   .     S
C1455  H1458   1.109   .     S
C1455  H1457   1.109   .     S
C1455  H1456   1.081   .     S
C1459  H1460   1.080   .     S
C1459  H1461   1.109   .     S
C1459  H1462   1.109   .     S
O1463  Cu1475  1.963   .     S
O1463  C1467   1.307   .     A
O1464  C1468   1.307   .     A
O1464  Cu1476  1.963   .     S
O1465  Cu1475  1.963   .     S
O1465  C1468   1.306   .     A
O1466  C1467   1.306   .     A
O1466  Cu1476  1.963   .     S
C1467  C1502   1.451   .     S
C1468  C1501   1.451   .     S
O1469  C1473   1.305   .     A
O1469  Cu1475  1.963   .     S
O1470  C1474   1.305   .     A
O1470  Cu1476  1.963   .     S
O1471  Cu1475  1.965   .     S
O1471  C1474   1.305   .     A
O1472  Cu1476  1.965   .     S
O1472  C1473   1.305   .     A
C1473  C1480   1.455   .     S
C1474  C1479   1.456   .     S
Cu1475 Cu1476  2.728   .     S
Cu1475 N1507   2.050   .     S
Cu1476 N1508   2.050   .     S
C1477  C1509   1.519   .     S
C1477  C1487   1.412   .     A
C1477  C1479   1.405   .     A
C1478  C1513   1.519   .     S
C1478  C1488   1.416   .     A
C1478  C1480   1.408   .     A
C1479  C1481   1.412   .     A
C1480  C1482   1.409   .     A
C1481  C1483   1.412   .     A
C1481  O1517   1.385   .     S
C1482  C1484   1.407   .     A
C1482  O1519   1.386   .     S
C1483  C1489   1.417   .     A
C1483  C1485   1.420   .     A
C1484  C1486   1.418   .     A
C1484  C1490   1.417   .     A
C1485  C1487   1.419   .     A
C1485  C712    1.412   1_556 S
C1486  C1488   1.420   .     A
C1487  C1492   1.420   .     A
C1488  C1491   1.419   .     A
C1489  O1521   1.376   .     S
C1489  C717    1.400   1_556 S
C1490  O1523   1.381   .     S
C1491  C1525   1.516   .     S
C1492  C1529   1.517   .     S
C1492  C716    1.401   1_556 S
C1493  C1502   1.401   .     A
C1493  H1497   1.083   .     S
C1494  H1498   1.083   .     S
C1494  C1501   1.401   .     A
C1494  C1324   1.384   1_655 S
C1495  C1501   1.401   .     A
C1495  H1499   1.083   .     S
C1495  C1321   1.384   1_655 S
C1496  C1502   1.401   .     A
C1496  H1500   1.083   .     S
C1503  N1508   1.383   .     A
C1503  C1533   1.517   .     S
C1504  C1537   1.517   .     S
C1504  N1507   1.383   .     A
C1504  C989    1.436   1_565 S
C1505  C1541   1.519   .     S
C1505  N1508   1.383   .     A
C1506  C1545   1.519   .     S
C1506  N1507   1.383   .     A
C1506  C987    1.436   1_565 S
C1509  H1512   1.106   .     S
C1509  H1511   1.109   .     S
C1509  H1510   1.108   .     S
C1513  H1514   1.108   .     S
C1513  H1516   1.109   .     S
C1513  H1515   1.107   .     S
O1517  H1518   0.988   .     S
O1519  H1520   0.989   .     S
O1521  H1522   0.993   .     S
O1523  H1524   0.992   .     S
C1525  H1527   1.108   .     S
C1525  H1528   1.110   .     S
C1525  H1526   1.111   .     S
C1529  H1530   1.111   .     S
C1529  H1531   1.110   .     S
C1529  H1532   1.107   .     S
C1533  H1535   1.110   .     S
C1533  H1536   1.109   .     S
C1533  H1534   1.078   .     S
C1537  H1538   1.078   .     S
C1537  H1539   1.109   .     S
C1537  H1540   1.109   .     S
C1541  H1544   1.109   .     S
C1541  H1543   1.109   .     S
C1541  H1542   1.081   .     S
C1545  H1546   1.080   .     S
C1545  H1547   1.109   .     S
C1545  H1548   1.109   .     S
