data_str_m2_o1_o5_pcu_sym.4
_audit_creation_date              2020-01-03
_audit_creation_method            'Materials Studio'
_symmetry_space_group_name_H-M    'P1'
_symmetry_Int_Tables_number       1
_symmetry_cell_setting            triclinic
loop_
_symmetry_equiv_pos_as_xyz
  x,y,z
_cell_length_a                    32.4891
_cell_length_b                    28.8922
_cell_length_c                    27.2096
_cell_angle_alpha                 90.0000
_cell_angle_beta                  92.4271
_cell_angle_gamma                 90.0000
loop_
_atom_site_label
_atom_site_type_symbol
_atom_site_fract_x
_atom_site_fract_y
_atom_site_fract_z
_atom_site_U_iso_or_equiv
_atom_site_adp_type
_atom_site_occupancy
Br1    Br    0.10305   0.05609   0.08978   0.00000  Uiso   1.00
Br2    Br    0.23028   0.27724   0.24356   0.00000  Uiso   1.00
Br3    Br    0.23028   0.05609   0.24356   0.00000  Uiso   1.00
Br4    Br    0.10305   0.27724   0.08978   0.00000  Uiso   1.00
C5     C     0.08746   0.16667   0.16666   0.00000  Uiso   1.00
C6     C     0.02129   0.20871   0.16673   0.00000  Uiso   1.00
C7     C     0.29054   0.16667   0.16662   0.00000  Uiso   1.00
C8     C     0.04279   0.16667   0.16671   0.00000  Uiso   1.00
C9     C     0.14062   0.02466   0.13522   0.00000  Uiso   1.00
C10    C     0.19272   0.30867   0.19811   0.00000  Uiso   1.00
C11    C     0.19272   0.02466   0.19811   0.00000  Uiso   1.00
C12    C     0.14062   0.30867   0.13522   0.00000  Uiso   1.00
C13    C     0.24587   0.16667   0.16668   0.00000  Uiso   1.00
C14    C     0.16662   0.16667   0.07365   0.00000  Uiso   1.00
C15    C     0.16672   0.16667   0.25969   0.00000  Uiso   1.00
C16    C     0.16665   0.16667   0.02187   0.00000  Uiso   1.00
C17    C     0.16669   0.16667   0.31146   0.00000  Uiso   1.00
C18    C     0.02129   0.12462   0.16673   0.00000  Uiso   1.00
C19    C     0.31204   0.20871   0.16661   0.00000  Uiso   1.00
C20    C     0.31204   0.12462   0.16661   0.00000  Uiso   1.00
Cu21   Cu    0.16667   0.21355   0.16667   0.00000  Uiso   1.00
Cu22   Cu    0.16667   0.11978   0.16667   0.00000  Uiso   1.00
H23    H     0.03726   0.09172   0.16685   0.00000  Uiso   1.00
H24    H     0.29607   0.24162   0.16648   0.00000  Uiso   1.00
H25    H     0.29607   0.09172   0.16648   0.00000  Uiso   1.00
H26    H     0.03726   0.24162   0.16685   0.00000  Uiso   1.00
N27    N     0.16667   0.28402   0.16667   0.00000  Uiso   1.00
N28    N     0.16667   0.04931   0.16667   0.00000  Uiso   1.00
O29    O     0.10655   0.20625   0.16666   0.00000  Uiso   1.00
O30    O     0.22679   0.12709   0.16667   0.00000  Uiso   1.00
O31    O     0.22679   0.20625   0.16667   0.00000  Uiso   1.00
O32    O     0.10655   0.12709   0.16666   0.00000  Uiso   1.00
O33    O     0.16667   0.20625   0.09613   0.00000  Uiso   1.00
O34    O     0.16667   0.12708   0.23720   0.00000  Uiso   1.00
O35    O     0.16667   0.20625   0.23720   0.00000  Uiso   1.00
O36    O     0.16667   0.12708   0.09613   0.00000  Uiso   1.00
Br37   Br    0.43639   0.05609   0.08978   0.00000  Uiso   1.00
Br38   Br    0.56362   0.27724   0.24356   0.00000  Uiso   1.00
Br39   Br    0.56362   0.05609   0.24356   0.00000  Uiso   1.00
Br40   Br    0.43639   0.27724   0.08978   0.00000  Uiso   1.00
C41    C     0.42079   0.16667   0.16666   0.00000  Uiso   1.00
C42    C     0.35463   0.20871   0.16673   0.00000  Uiso   1.00
C43    C     0.62388   0.16667   0.16662   0.00000  Uiso   1.00
C44    C     0.37612   0.16667   0.16671   0.00000  Uiso   1.00
C45    C     0.47395   0.02466   0.13522   0.00000  Uiso   1.00
C46    C     0.52605   0.30867   0.19811   0.00000  Uiso   1.00
C47    C     0.52605   0.02466   0.19811   0.00000  Uiso   1.00
C48    C     0.47395   0.30867   0.13522   0.00000  Uiso   1.00
C49    C     0.57921   0.16667   0.16668   0.00000  Uiso   1.00
C50    C     0.49995   0.16667   0.07365   0.00000  Uiso   1.00
C51    C     0.50005   0.16667   0.25969   0.00000  Uiso   1.00
C52    C     0.49998   0.16667   0.02187   0.00000  Uiso   1.00
C53    C     0.50002   0.16667   0.31146   0.00000  Uiso   1.00
C54    C     0.35463   0.12462   0.16673   0.00000  Uiso   1.00
C55    C     0.64537   0.20871   0.16661   0.00000  Uiso   1.00
C56    C     0.64537   0.12462   0.16661   0.00000  Uiso   1.00
Cu57   Cu    0.50000   0.21355   0.16667   0.00000  Uiso   1.00
Cu58   Cu    0.50000   0.11978   0.16667   0.00000  Uiso   1.00
H59    H     0.37059   0.09172   0.16685   0.00000  Uiso   1.00
H60    H     0.62941   0.24162   0.16648   0.00000  Uiso   1.00
H61    H     0.62941   0.09172   0.16648   0.00000  Uiso   1.00
H62    H     0.37059   0.24162   0.16685   0.00000  Uiso   1.00
N63    N     0.50000   0.28402   0.16667   0.00000  Uiso   1.00
N64    N     0.50000   0.04931   0.16667   0.00000  Uiso   1.00
O65    O     0.43988   0.20625   0.16666   0.00000  Uiso   1.00
O66    O     0.56012   0.12709   0.16667   0.00000  Uiso   1.00
O67    O     0.56012   0.20625   0.16667   0.00000  Uiso   1.00
O68    O     0.43988   0.12709   0.16666   0.00000  Uiso   1.00
O69    O     0.50000   0.20625   0.09613   0.00000  Uiso   1.00
O70    O     0.50000   0.12708   0.23720   0.00000  Uiso   1.00
O71    O     0.50000   0.20625   0.23720   0.00000  Uiso   1.00
O72    O     0.50000   0.12708   0.09613   0.00000  Uiso   1.00
Br73   Br    0.76972   0.05609   0.08978   0.00000  Uiso   1.00
Br74   Br    0.89695   0.27724   0.24356   0.00000  Uiso   1.00
Br75   Br    0.89695   0.05609   0.24356   0.00000  Uiso   1.00
Br76   Br    0.76972   0.27724   0.08978   0.00000  Uiso   1.00
C77    C     0.75413   0.16667   0.16666   0.00000  Uiso   1.00
C78    C     0.68796   0.20871   0.16673   0.00000  Uiso   1.00
C79    C     0.95721   0.16667   0.16662   0.00000  Uiso   1.00
C80    C     0.70946   0.16667   0.16671   0.00000  Uiso   1.00
C81    C     0.80728   0.02466   0.13522   0.00000  Uiso   1.00
C82    C     0.85938   0.30867   0.19811   0.00000  Uiso   1.00
C83    C     0.85938   0.02466   0.19811   0.00000  Uiso   1.00
C84    C     0.80728   0.30867   0.13522   0.00000  Uiso   1.00
C85    C     0.91254   0.16667   0.16668   0.00000  Uiso   1.00
C86    C     0.83328   0.16667   0.07365   0.00000  Uiso   1.00
C87    C     0.83338   0.16667   0.25969   0.00000  Uiso   1.00
C88    C     0.83332   0.16667   0.02187   0.00000  Uiso   1.00
C89    C     0.83335   0.16667   0.31146   0.00000  Uiso   1.00
C90    C     0.68796   0.12462   0.16673   0.00000  Uiso   1.00
C91    C     0.97871   0.20871   0.16661   0.00000  Uiso   1.00
C92    C     0.97871   0.12462   0.16661   0.00000  Uiso   1.00
Cu93   Cu    0.83333   0.21355   0.16667   0.00000  Uiso   1.00
Cu94   Cu    0.83333   0.11978   0.16667   0.00000  Uiso   1.00
H95    H     0.70393   0.09172   0.16685   0.00000  Uiso   1.00
H96    H     0.96274   0.24162   0.16648   0.00000  Uiso   1.00
H97    H     0.96274   0.09172   0.16648   0.00000  Uiso   1.00
H98    H     0.70393   0.24162   0.16685   0.00000  Uiso   1.00
N99    N     0.83333   0.28402   0.16667   0.00000  Uiso   1.00
N100   N     0.83333   0.04931   0.16667   0.00000  Uiso   1.00
O101   O     0.77321   0.20625   0.16666   0.00000  Uiso   1.00
O102   O     0.89345   0.12709   0.16667   0.00000  Uiso   1.00
O103   O     0.89345   0.20625   0.16667   0.00000  Uiso   1.00
O104   O     0.77321   0.12709   0.16666   0.00000  Uiso   1.00
O105   O     0.83333   0.20625   0.09613   0.00000  Uiso   1.00
O106   O     0.83333   0.12708   0.23720   0.00000  Uiso   1.00
O107   O     0.83333   0.20625   0.23720   0.00000  Uiso   1.00
O108   O     0.83333   0.12708   0.09613   0.00000  Uiso   1.00
Br109  Br    0.10305   0.38943   0.08978   0.00000  Uiso   1.00
Br110  Br    0.23028   0.61057   0.24356   0.00000  Uiso   1.00
Br111  Br    0.23028   0.38943   0.24356   0.00000  Uiso   1.00
Br112  Br    0.10305   0.61057   0.08978   0.00000  Uiso   1.00
C113   C     0.08746   0.50000   0.16666   0.00000  Uiso   1.00
C114   C     0.02129   0.54205   0.16673   0.00000  Uiso   1.00
C115   C     0.29054   0.50000   0.16662   0.00000  Uiso   1.00
C116   C     0.04279   0.50000   0.16671   0.00000  Uiso   1.00
C117   C     0.14062   0.35800   0.13522   0.00000  Uiso   1.00
C118   C     0.19272   0.64200   0.19811   0.00000  Uiso   1.00
C119   C     0.19272   0.35800   0.19811   0.00000  Uiso   1.00
C120   C     0.14062   0.64200   0.13522   0.00000  Uiso   1.00
C121   C     0.24587   0.50000   0.16668   0.00000  Uiso   1.00
C122   C     0.16662   0.50000   0.07365   0.00000  Uiso   1.00
C123   C     0.16672   0.50000   0.25969   0.00000  Uiso   1.00
C124   C     0.16665   0.50000   0.02187   0.00000  Uiso   1.00
C125   C     0.16669   0.50000   0.31146   0.00000  Uiso   1.00
C126   C     0.02129   0.45795   0.16673   0.00000  Uiso   1.00
C127   C     0.31204   0.54205   0.16661   0.00000  Uiso   1.00
C128   C     0.31204   0.45795   0.16661   0.00000  Uiso   1.00
Cu129  Cu    0.16667   0.54689   0.16667   0.00000  Uiso   1.00
Cu130  Cu    0.16667   0.45311   0.16667   0.00000  Uiso   1.00
H131   H     0.03726   0.42505   0.16685   0.00000  Uiso   1.00
H132   H     0.29607   0.57495   0.16648   0.00000  Uiso   1.00
H133   H     0.29607   0.42505   0.16648   0.00000  Uiso   1.00
H134   H     0.03726   0.57495   0.16685   0.00000  Uiso   1.00
N135   N     0.16667   0.61736   0.16667   0.00000  Uiso   1.00
N136   N     0.16667   0.38264   0.16667   0.00000  Uiso   1.00
O137   O     0.10655   0.53958   0.16666   0.00000  Uiso   1.00
O138   O     0.22679   0.46042   0.16667   0.00000  Uiso   1.00
O139   O     0.22679   0.53958   0.16667   0.00000  Uiso   1.00
O140   O     0.10655   0.46042   0.16666   0.00000  Uiso   1.00
O141   O     0.16667   0.53959   0.09613   0.00000  Uiso   1.00
O142   O     0.16667   0.46041   0.23720   0.00000  Uiso   1.00
O143   O     0.16667   0.53959   0.23720   0.00000  Uiso   1.00
O144   O     0.16667   0.46041   0.09613   0.00000  Uiso   1.00
Br145  Br    0.43639   0.38943   0.08978   0.00000  Uiso   1.00
Br146  Br    0.56362   0.61057   0.24356   0.00000  Uiso   1.00
Br147  Br    0.56362   0.38943   0.24356   0.00000  Uiso   1.00
Br148  Br    0.43639   0.61057   0.08978   0.00000  Uiso   1.00
C149   C     0.42079   0.50000   0.16666   0.00000  Uiso   1.00
C150   C     0.35463   0.54205   0.16673   0.00000  Uiso   1.00
C151   C     0.62388   0.50000   0.16662   0.00000  Uiso   1.00
C152   C     0.37612   0.50000   0.16671   0.00000  Uiso   1.00
C153   C     0.47395   0.35800   0.13522   0.00000  Uiso   1.00
C154   C     0.52605   0.64200   0.19811   0.00000  Uiso   1.00
C155   C     0.52605   0.35800   0.19811   0.00000  Uiso   1.00
C156   C     0.47395   0.64200   0.13522   0.00000  Uiso   1.00
C157   C     0.57921   0.50000   0.16668   0.00000  Uiso   1.00
C158   C     0.49995   0.50000   0.07365   0.00000  Uiso   1.00
C159   C     0.50005   0.50000   0.25969   0.00000  Uiso   1.00
C160   C     0.49998   0.50000   0.02187   0.00000  Uiso   1.00
C161   C     0.50002   0.50000   0.31146   0.00000  Uiso   1.00
C162   C     0.35463   0.45795   0.16673   0.00000  Uiso   1.00
C163   C     0.64537   0.54205   0.16661   0.00000  Uiso   1.00
C164   C     0.64537   0.45795   0.16661   0.00000  Uiso   1.00
Cu165  Cu    0.50000   0.54689   0.16667   0.00000  Uiso   1.00
Cu166  Cu    0.50000   0.45311   0.16667   0.00000  Uiso   1.00
H167   H     0.37059   0.42505   0.16685   0.00000  Uiso   1.00
H168   H     0.62941   0.57495   0.16648   0.00000  Uiso   1.00
H169   H     0.62941   0.42505   0.16648   0.00000  Uiso   1.00
H170   H     0.37059   0.57495   0.16685   0.00000  Uiso   1.00
N171   N     0.50000   0.61736   0.16667   0.00000  Uiso   1.00
N172   N     0.50000   0.38264   0.16667   0.00000  Uiso   1.00
O173   O     0.43988   0.53958   0.16666   0.00000  Uiso   1.00
O174   O     0.56012   0.46042   0.16667   0.00000  Uiso   1.00
O175   O     0.56012   0.53958   0.16667   0.00000  Uiso   1.00
O176   O     0.43988   0.46042   0.16666   0.00000  Uiso   1.00
O177   O     0.50000   0.53959   0.09613   0.00000  Uiso   1.00
O178   O     0.50000   0.46041   0.23720   0.00000  Uiso   1.00
O179   O     0.50000   0.53959   0.23720   0.00000  Uiso   1.00
O180   O     0.50000   0.46041   0.09613   0.00000  Uiso   1.00
Br181  Br    0.76972   0.38943   0.08978   0.00000  Uiso   1.00
Br182  Br    0.89695   0.61057   0.24356   0.00000  Uiso   1.00
Br183  Br    0.89695   0.38943   0.24356   0.00000  Uiso   1.00
Br184  Br    0.76972   0.61057   0.08978   0.00000  Uiso   1.00
C185   C     0.75413   0.50000   0.16666   0.00000  Uiso   1.00
C186   C     0.68796   0.54205   0.16673   0.00000  Uiso   1.00
C187   C     0.95721   0.50000   0.16662   0.00000  Uiso   1.00
C188   C     0.70946   0.50000   0.16671   0.00000  Uiso   1.00
C189   C     0.80728   0.35800   0.13522   0.00000  Uiso   1.00
C190   C     0.85938   0.64200   0.19811   0.00000  Uiso   1.00
C191   C     0.85938   0.35800   0.19811   0.00000  Uiso   1.00
C192   C     0.80728   0.64200   0.13522   0.00000  Uiso   1.00
C193   C     0.91254   0.50000   0.16668   0.00000  Uiso   1.00
C194   C     0.83328   0.50000   0.07365   0.00000  Uiso   1.00
C195   C     0.83338   0.50000   0.25969   0.00000  Uiso   1.00
C196   C     0.83332   0.50000   0.02187   0.00000  Uiso   1.00
C197   C     0.83335   0.50000   0.31146   0.00000  Uiso   1.00
C198   C     0.68796   0.45795   0.16673   0.00000  Uiso   1.00
C199   C     0.97871   0.54205   0.16661   0.00000  Uiso   1.00
C200   C     0.97871   0.45795   0.16661   0.00000  Uiso   1.00
Cu201  Cu    0.83333   0.54689   0.16667   0.00000  Uiso   1.00
Cu202  Cu    0.83333   0.45311   0.16667   0.00000  Uiso   1.00
H203   H     0.70393   0.42505   0.16685   0.00000  Uiso   1.00
H204   H     0.96274   0.57495   0.16648   0.00000  Uiso   1.00
H205   H     0.96274   0.42505   0.16648   0.00000  Uiso   1.00
H206   H     0.70393   0.57495   0.16685   0.00000  Uiso   1.00
N207   N     0.83333   0.61736   0.16667   0.00000  Uiso   1.00
N208   N     0.83333   0.38264   0.16667   0.00000  Uiso   1.00
O209   O     0.77321   0.53958   0.16666   0.00000  Uiso   1.00
O210   O     0.89345   0.46042   0.16667   0.00000  Uiso   1.00
O211   O     0.89345   0.53958   0.16667   0.00000  Uiso   1.00
O212   O     0.77321   0.46042   0.16666   0.00000  Uiso   1.00
O213   O     0.83333   0.53959   0.09613   0.00000  Uiso   1.00
O214   O     0.83333   0.46041   0.23720   0.00000  Uiso   1.00
O215   O     0.83333   0.53959   0.23720   0.00000  Uiso   1.00
O216   O     0.83333   0.46041   0.09613   0.00000  Uiso   1.00
Br217  Br    0.10305   0.72276   0.08978   0.00000  Uiso   1.00
Br218  Br    0.23028   0.94391   0.24356   0.00000  Uiso   1.00
Br219  Br    0.23028   0.72276   0.24356   0.00000  Uiso   1.00
Br220  Br    0.10305   0.94391   0.08978   0.00000  Uiso   1.00
C221   C     0.08746   0.83333   0.16666   0.00000  Uiso   1.00
C222   C     0.02129   0.87538   0.16673   0.00000  Uiso   1.00
C223   C     0.29054   0.83333   0.16662   0.00000  Uiso   1.00
C224   C     0.04279   0.83333   0.16671   0.00000  Uiso   1.00
C225   C     0.14062   0.69133   0.13522   0.00000  Uiso   1.00
C226   C     0.19272   0.97534   0.19811   0.00000  Uiso   1.00
C227   C     0.19272   0.69133   0.19811   0.00000  Uiso   1.00
C228   C     0.14062   0.97534   0.13522   0.00000  Uiso   1.00
C229   C     0.24587   0.83333   0.16668   0.00000  Uiso   1.00
C230   C     0.16662   0.83333   0.07365   0.00000  Uiso   1.00
C231   C     0.16672   0.83333   0.25969   0.00000  Uiso   1.00
C232   C     0.16665   0.83333   0.02187   0.00000  Uiso   1.00
C233   C     0.16669   0.83333   0.31146   0.00000  Uiso   1.00
C234   C     0.02129   0.79129   0.16673   0.00000  Uiso   1.00
C235   C     0.31204   0.87538   0.16661   0.00000  Uiso   1.00
C236   C     0.31204   0.79129   0.16661   0.00000  Uiso   1.00
Cu237  Cu    0.16667   0.88022   0.16667   0.00000  Uiso   1.00
Cu238  Cu    0.16667   0.78645   0.16667   0.00000  Uiso   1.00
H239   H     0.03726   0.75838   0.16685   0.00000  Uiso   1.00
H240   H     0.29607   0.90828   0.16648   0.00000  Uiso   1.00
H241   H     0.29607   0.75838   0.16648   0.00000  Uiso   1.00
H242   H     0.03726   0.90828   0.16685   0.00000  Uiso   1.00
N243   N     0.16667   0.95069   0.16667   0.00000  Uiso   1.00
N244   N     0.16667   0.71598   0.16667   0.00000  Uiso   1.00
O245   O     0.10655   0.87291   0.16666   0.00000  Uiso   1.00
O246   O     0.22679   0.79375   0.16667   0.00000  Uiso   1.00
O247   O     0.22679   0.87291   0.16667   0.00000  Uiso   1.00
O248   O     0.10655   0.79375   0.16666   0.00000  Uiso   1.00
O249   O     0.16667   0.87292   0.09613   0.00000  Uiso   1.00
O250   O     0.16667   0.79375   0.23720   0.00000  Uiso   1.00
O251   O     0.16667   0.87292   0.23720   0.00000  Uiso   1.00
O252   O     0.16667   0.79375   0.09613   0.00000  Uiso   1.00
Br253  Br    0.43639   0.72276   0.08978   0.00000  Uiso   1.00
Br254  Br    0.56362   0.94391   0.24356   0.00000  Uiso   1.00
Br255  Br    0.56362   0.72276   0.24356   0.00000  Uiso   1.00
Br256  Br    0.43639   0.94391   0.08978   0.00000  Uiso   1.00
C257   C     0.42079   0.83333   0.16666   0.00000  Uiso   1.00
C258   C     0.35463   0.87538   0.16673   0.00000  Uiso   1.00
C259   C     0.62388   0.83333   0.16662   0.00000  Uiso   1.00
C260   C     0.37612   0.83333   0.16671   0.00000  Uiso   1.00
C261   C     0.47395   0.69133   0.13522   0.00000  Uiso   1.00
C262   C     0.52605   0.97534   0.19811   0.00000  Uiso   1.00
C263   C     0.52605   0.69133   0.19811   0.00000  Uiso   1.00
C264   C     0.47395   0.97534   0.13522   0.00000  Uiso   1.00
C265   C     0.57921   0.83333   0.16668   0.00000  Uiso   1.00
C266   C     0.49995   0.83333   0.07365   0.00000  Uiso   1.00
C267   C     0.50005   0.83333   0.25969   0.00000  Uiso   1.00
C268   C     0.49998   0.83333   0.02187   0.00000  Uiso   1.00
C269   C     0.50002   0.83333   0.31146   0.00000  Uiso   1.00
C270   C     0.35463   0.79129   0.16673   0.00000  Uiso   1.00
C271   C     0.64537   0.87538   0.16661   0.00000  Uiso   1.00
C272   C     0.64537   0.79129   0.16661   0.00000  Uiso   1.00
Cu273  Cu    0.50000   0.88022   0.16667   0.00000  Uiso   1.00
Cu274  Cu    0.50000   0.78645   0.16667   0.00000  Uiso   1.00
H275   H     0.37059   0.75838   0.16685   0.00000  Uiso   1.00
H276   H     0.62941   0.90828   0.16648   0.00000  Uiso   1.00
H277   H     0.62941   0.75838   0.16648   0.00000  Uiso   1.00
H278   H     0.37059   0.90828   0.16685   0.00000  Uiso   1.00
N279   N     0.50000   0.95069   0.16667   0.00000  Uiso   1.00
N280   N     0.50000   0.71598   0.16667   0.00000  Uiso   1.00
O281   O     0.43988   0.87291   0.16666   0.00000  Uiso   1.00
O282   O     0.56012   0.79375   0.16667   0.00000  Uiso   1.00
O283   O     0.56012   0.87291   0.16667   0.00000  Uiso   1.00
O284   O     0.43988   0.79375   0.16666   0.00000  Uiso   1.00
O285   O     0.50000   0.87292   0.09613   0.00000  Uiso   1.00
O286   O     0.50000   0.79375   0.23720   0.00000  Uiso   1.00
O287   O     0.50000   0.87292   0.23720   0.00000  Uiso   1.00
O288   O     0.50000   0.79375   0.09613   0.00000  Uiso   1.00
Br289  Br    0.76972   0.72276   0.08978   0.00000  Uiso   1.00
Br290  Br    0.89695   0.94391   0.24356   0.00000  Uiso   1.00
Br291  Br    0.89695   0.72276   0.24356   0.00000  Uiso   1.00
Br292  Br    0.76972   0.94391   0.08978   0.00000  Uiso   1.00
C293   C     0.75413   0.83333   0.16666   0.00000  Uiso   1.00
C294   C     0.68796   0.87538   0.16673   0.00000  Uiso   1.00
C295   C     0.95721   0.83333   0.16662   0.00000  Uiso   1.00
C296   C     0.70946   0.83333   0.16671   0.00000  Uiso   1.00
C297   C     0.80728   0.69133   0.13522   0.00000  Uiso   1.00
C298   C     0.85938   0.97534   0.19811   0.00000  Uiso   1.00
C299   C     0.85938   0.69133   0.19811   0.00000  Uiso   1.00
C300   C     0.80728   0.97534   0.13522   0.00000  Uiso   1.00
C301   C     0.91254   0.83333   0.16668   0.00000  Uiso   1.00
C302   C     0.83328   0.83333   0.07365   0.00000  Uiso   1.00
C303   C     0.83338   0.83333   0.25969   0.00000  Uiso   1.00
C304   C     0.83332   0.83333   0.02187   0.00000  Uiso   1.00
C305   C     0.83335   0.83333   0.31146   0.00000  Uiso   1.00
C306   C     0.68796   0.79129   0.16673   0.00000  Uiso   1.00
C307   C     0.97871   0.87538   0.16661   0.00000  Uiso   1.00
C308   C     0.97871   0.79129   0.16661   0.00000  Uiso   1.00
Cu309  Cu    0.83333   0.88022   0.16667   0.00000  Uiso   1.00
Cu310  Cu    0.83333   0.78645   0.16667   0.00000  Uiso   1.00
H311   H     0.70393   0.75838   0.16685   0.00000  Uiso   1.00
H312   H     0.96274   0.90828   0.16648   0.00000  Uiso   1.00
H313   H     0.96274   0.75838   0.16648   0.00000  Uiso   1.00
H314   H     0.70393   0.90828   0.16685   0.00000  Uiso   1.00
N315   N     0.83333   0.95069   0.16667   0.00000  Uiso   1.00
N316   N     0.83333   0.71598   0.16667   0.00000  Uiso   1.00
O317   O     0.77321   0.87291   0.16666   0.00000  Uiso   1.00
O318   O     0.89345   0.79375   0.16667   0.00000  Uiso   1.00
O319   O     0.89345   0.87291   0.16667   0.00000  Uiso   1.00
O320   O     0.77321   0.79375   0.16666   0.00000  Uiso   1.00
O321   O     0.83333   0.87292   0.09613   0.00000  Uiso   1.00
O322   O     0.83333   0.79375   0.23720   0.00000  Uiso   1.00
O323   O     0.83333   0.87292   0.23720   0.00000  Uiso   1.00
O324   O     0.83333   0.79375   0.09613   0.00000  Uiso   1.00
Br325  Br    0.10305   0.05609   0.42311   0.00000  Uiso   1.00
Br326  Br    0.23028   0.27724   0.57689   0.00000  Uiso   1.00
Br327  Br    0.23028   0.05609   0.57689   0.00000  Uiso   1.00
Br328  Br    0.10305   0.27724   0.42311   0.00000  Uiso   1.00
C329   C     0.08746   0.16667   0.49999   0.00000  Uiso   1.00
C330   C     0.02129   0.20871   0.50006   0.00000  Uiso   1.00
C331   C     0.29054   0.16667   0.49995   0.00000  Uiso   1.00
C332   C     0.04279   0.16667   0.50005   0.00000  Uiso   1.00
C333   C     0.14062   0.02466   0.46856   0.00000  Uiso   1.00
C334   C     0.19272   0.30867   0.53144   0.00000  Uiso   1.00
C335   C     0.19272   0.02466   0.53144   0.00000  Uiso   1.00
C336   C     0.14062   0.30867   0.46856   0.00000  Uiso   1.00
C337   C     0.24587   0.16667   0.50001   0.00000  Uiso   1.00
C338   C     0.16662   0.16667   0.40698   0.00000  Uiso   1.00
C339   C     0.16672   0.16667   0.59302   0.00000  Uiso   1.00
C340   C     0.16665   0.16667   0.35521   0.00000  Uiso   1.00
C341   C     0.16669   0.16667   0.64479   0.00000  Uiso   1.00
C342   C     0.02129   0.12462   0.50006   0.00000  Uiso   1.00
C343   C     0.31204   0.20871   0.49994   0.00000  Uiso   1.00
C344   C     0.31204   0.12462   0.49994   0.00000  Uiso   1.00
Cu345  Cu    0.16667   0.21355   0.50000   0.00000  Uiso   1.00
Cu346  Cu    0.16667   0.11978   0.50000   0.00000  Uiso   1.00
H347   H     0.03726   0.09172   0.50018   0.00000  Uiso   1.00
H348   H     0.29607   0.24162   0.49982   0.00000  Uiso   1.00
H349   H     0.29607   0.09172   0.49982   0.00000  Uiso   1.00
H350   H     0.03726   0.24162   0.50018   0.00000  Uiso   1.00
N351   N     0.16667   0.28402   0.50000   0.00000  Uiso   1.00
N352   N     0.16667   0.04931   0.50000   0.00000  Uiso   1.00
O353   O     0.10655   0.20625   0.50000   0.00000  Uiso   1.00
O354   O     0.22679   0.12709   0.50000   0.00000  Uiso   1.00
O355   O     0.22679   0.20625   0.50000   0.00000  Uiso   1.00
O356   O     0.10655   0.12709   0.50000   0.00000  Uiso   1.00
O357   O     0.16667   0.20625   0.42946   0.00000  Uiso   1.00
O358   O     0.16667   0.12708   0.57054   0.00000  Uiso   1.00
O359   O     0.16667   0.20625   0.57054   0.00000  Uiso   1.00
O360   O     0.16667   0.12708   0.42946   0.00000  Uiso   1.00
Br361  Br    0.43639   0.05609   0.42311   0.00000  Uiso   1.00
Br362  Br    0.56362   0.27724   0.57689   0.00000  Uiso   1.00
Br363  Br    0.56362   0.05609   0.57689   0.00000  Uiso   1.00
Br364  Br    0.43639   0.27724   0.42311   0.00000  Uiso   1.00
C365   C     0.42079   0.16667   0.49999   0.00000  Uiso   1.00
C366   C     0.35463   0.20871   0.50006   0.00000  Uiso   1.00
C367   C     0.62388   0.16667   0.49995   0.00000  Uiso   1.00
C368   C     0.37612   0.16667   0.50005   0.00000  Uiso   1.00
C369   C     0.47395   0.02466   0.46856   0.00000  Uiso   1.00
C370   C     0.52605   0.30867   0.53144   0.00000  Uiso   1.00
C371   C     0.52605   0.02466   0.53144   0.00000  Uiso   1.00
C372   C     0.47395   0.30867   0.46856   0.00000  Uiso   1.00
C373   C     0.57921   0.16667   0.50001   0.00000  Uiso   1.00
C374   C     0.49995   0.16667   0.40698   0.00000  Uiso   1.00
C375   C     0.50005   0.16667   0.59302   0.00000  Uiso   1.00
C376   C     0.49998   0.16667   0.35521   0.00000  Uiso   1.00
C377   C     0.50002   0.16667   0.64479   0.00000  Uiso   1.00
C378   C     0.35463   0.12462   0.50006   0.00000  Uiso   1.00
C379   C     0.64537   0.20871   0.49994   0.00000  Uiso   1.00
C380   C     0.64537   0.12462   0.49994   0.00000  Uiso   1.00
Cu381  Cu    0.50000   0.21355   0.50000   0.00000  Uiso   1.00
Cu382  Cu    0.50000   0.11978   0.50000   0.00000  Uiso   1.00
H383   H     0.37059   0.09172   0.50018   0.00000  Uiso   1.00
H384   H     0.62941   0.24162   0.49982   0.00000  Uiso   1.00
H385   H     0.62941   0.09172   0.49982   0.00000  Uiso   1.00
H386   H     0.37059   0.24162   0.50018   0.00000  Uiso   1.00
N387   N     0.50000   0.28402   0.50000   0.00000  Uiso   1.00
N388   N     0.50000   0.04931   0.50000   0.00000  Uiso   1.00
O389   O     0.43988   0.20625   0.50000   0.00000  Uiso   1.00
O390   O     0.56012   0.12709   0.50000   0.00000  Uiso   1.00
O391   O     0.56012   0.20625   0.50000   0.00000  Uiso   1.00
O392   O     0.43988   0.12709   0.50000   0.00000  Uiso   1.00
O393   O     0.50000   0.20625   0.42946   0.00000  Uiso   1.00
O394   O     0.50000   0.12708   0.57054   0.00000  Uiso   1.00
O395   O     0.50000   0.20625   0.57054   0.00000  Uiso   1.00
O396   O     0.50000   0.12708   0.42946   0.00000  Uiso   1.00
Br397  Br    0.76972   0.05609   0.42311   0.00000  Uiso   1.00
Br398  Br    0.89695   0.27724   0.57689   0.00000  Uiso   1.00
Br399  Br    0.89695   0.05609   0.57689   0.00000  Uiso   1.00
Br400  Br    0.76972   0.27724   0.42311   0.00000  Uiso   1.00
C401   C     0.75413   0.16667   0.49999   0.00000  Uiso   1.00
C402   C     0.68796   0.20871   0.50006   0.00000  Uiso   1.00
C403   C     0.95721   0.16667   0.49995   0.00000  Uiso   1.00
C404   C     0.70946   0.16667   0.50005   0.00000  Uiso   1.00
C405   C     0.80728   0.02466   0.46856   0.00000  Uiso   1.00
C406   C     0.85938   0.30867   0.53144   0.00000  Uiso   1.00
C407   C     0.85938   0.02466   0.53144   0.00000  Uiso   1.00
C408   C     0.80728   0.30867   0.46856   0.00000  Uiso   1.00
C409   C     0.91254   0.16667   0.50001   0.00000  Uiso   1.00
C410   C     0.83328   0.16667   0.40698   0.00000  Uiso   1.00
C411   C     0.83338   0.16667   0.59302   0.00000  Uiso   1.00
C412   C     0.83332   0.16667   0.35521   0.00000  Uiso   1.00
C413   C     0.83335   0.16667   0.64479   0.00000  Uiso   1.00
C414   C     0.68796   0.12462   0.50006   0.00000  Uiso   1.00
C415   C     0.97871   0.20871   0.49994   0.00000  Uiso   1.00
C416   C     0.97871   0.12462   0.49994   0.00000  Uiso   1.00
Cu417  Cu    0.83333   0.21355   0.50000   0.00000  Uiso   1.00
Cu418  Cu    0.83333   0.11978   0.50000   0.00000  Uiso   1.00
H419   H     0.70393   0.09172   0.50018   0.00000  Uiso   1.00
H420   H     0.96274   0.24162   0.49982   0.00000  Uiso   1.00
H421   H     0.96274   0.09172   0.49982   0.00000  Uiso   1.00
H422   H     0.70393   0.24162   0.50018   0.00000  Uiso   1.00
N423   N     0.83333   0.28402   0.50000   0.00000  Uiso   1.00
N424   N     0.83333   0.04931   0.50000   0.00000  Uiso   1.00
O425   O     0.77321   0.20625   0.50000   0.00000  Uiso   1.00
O426   O     0.89345   0.12709   0.50000   0.00000  Uiso   1.00
O427   O     0.89345   0.20625   0.50000   0.00000  Uiso   1.00
O428   O     0.77321   0.12709   0.50000   0.00000  Uiso   1.00
O429   O     0.83333   0.20625   0.42946   0.00000  Uiso   1.00
O430   O     0.83333   0.12708   0.57054   0.00000  Uiso   1.00
O431   O     0.83333   0.20625   0.57054   0.00000  Uiso   1.00
O432   O     0.83333   0.12708   0.42946   0.00000  Uiso   1.00
Br433  Br    0.10305   0.38943   0.42311   0.00000  Uiso   1.00
Br434  Br    0.23028   0.61057   0.57689   0.00000  Uiso   1.00
Br435  Br    0.23028   0.38943   0.57689   0.00000  Uiso   1.00
Br436  Br    0.10305   0.61057   0.42311   0.00000  Uiso   1.00
C437   C     0.08746   0.50000   0.49999   0.00000  Uiso   1.00
C438   C     0.02129   0.54205   0.50006   0.00000  Uiso   1.00
C439   C     0.29054   0.50000   0.49995   0.00000  Uiso   1.00
C440   C     0.04279   0.50000   0.50005   0.00000  Uiso   1.00
C441   C     0.14062   0.35800   0.46856   0.00000  Uiso   1.00
C442   C     0.19272   0.64200   0.53144   0.00000  Uiso   1.00
C443   C     0.19272   0.35800   0.53144   0.00000  Uiso   1.00
C444   C     0.14062   0.64200   0.46856   0.00000  Uiso   1.00
C445   C     0.24587   0.50000   0.50001   0.00000  Uiso   1.00
C446   C     0.16662   0.50000   0.40698   0.00000  Uiso   1.00
C447   C     0.16672   0.50000   0.59302   0.00000  Uiso   1.00
C448   C     0.16665   0.50000   0.35521   0.00000  Uiso   1.00
C449   C     0.16669   0.50000   0.64479   0.00000  Uiso   1.00
C450   C     0.02129   0.45795   0.50006   0.00000  Uiso   1.00
C451   C     0.31204   0.54205   0.49994   0.00000  Uiso   1.00
C452   C     0.31204   0.45795   0.49994   0.00000  Uiso   1.00
Cu453  Cu    0.16667   0.54689   0.50000   0.00000  Uiso   1.00
Cu454  Cu    0.16667   0.45311   0.50000   0.00000  Uiso   1.00
H455   H     0.03726   0.42505   0.50018   0.00000  Uiso   1.00
H456   H     0.29607   0.57495   0.49982   0.00000  Uiso   1.00
H457   H     0.29607   0.42505   0.49982   0.00000  Uiso   1.00
H458   H     0.03726   0.57495   0.50018   0.00000  Uiso   1.00
N459   N     0.16667   0.61736   0.50000   0.00000  Uiso   1.00
N460   N     0.16667   0.38264   0.50000   0.00000  Uiso   1.00
O461   O     0.10655   0.53958   0.50000   0.00000  Uiso   1.00
O462   O     0.22679   0.46042   0.50000   0.00000  Uiso   1.00
O463   O     0.22679   0.53958   0.50000   0.00000  Uiso   1.00
O464   O     0.10655   0.46042   0.50000   0.00000  Uiso   1.00
O465   O     0.16667   0.53959   0.42946   0.00000  Uiso   1.00
O466   O     0.16667   0.46041   0.57054   0.00000  Uiso   1.00
O467   O     0.16667   0.53959   0.57054   0.00000  Uiso   1.00
O468   O     0.16667   0.46041   0.42946   0.00000  Uiso   1.00
Br469  Br    0.43639   0.38943   0.42311   0.00000  Uiso   1.00
Br470  Br    0.56362   0.61057   0.57689   0.00000  Uiso   1.00
Br471  Br    0.56362   0.38943   0.57689   0.00000  Uiso   1.00
Br472  Br    0.43639   0.61057   0.42311   0.00000  Uiso   1.00
C473   C     0.42079   0.50000   0.49999   0.00000  Uiso   1.00
C474   C     0.35463   0.54205   0.50006   0.00000  Uiso   1.00
C475   C     0.62388   0.50000   0.49995   0.00000  Uiso   1.00
C476   C     0.37612   0.50000   0.50005   0.00000  Uiso   1.00
C477   C     0.47395   0.35800   0.46856   0.00000  Uiso   1.00
C478   C     0.52605   0.64200   0.53144   0.00000  Uiso   1.00
C479   C     0.52605   0.35800   0.53144   0.00000  Uiso   1.00
C480   C     0.47395   0.64200   0.46856   0.00000  Uiso   1.00
C481   C     0.57921   0.50000   0.50001   0.00000  Uiso   1.00
C482   C     0.49995   0.50000   0.40698   0.00000  Uiso   1.00
C483   C     0.50005   0.50000   0.59302   0.00000  Uiso   1.00
C484   C     0.49998   0.50000   0.35521   0.00000  Uiso   1.00
C485   C     0.50002   0.50000   0.64479   0.00000  Uiso   1.00
C486   C     0.35463   0.45795   0.50006   0.00000  Uiso   1.00
C487   C     0.64537   0.54205   0.49994   0.00000  Uiso   1.00
C488   C     0.64537   0.45795   0.49994   0.00000  Uiso   1.00
Cu489  Cu    0.50000   0.54689   0.50000   0.00000  Uiso   1.00
Cu490  Cu    0.50000   0.45311   0.50000   0.00000  Uiso   1.00
H491   H     0.37059   0.42505   0.50018   0.00000  Uiso   1.00
H492   H     0.62941   0.57495   0.49982   0.00000  Uiso   1.00
H493   H     0.62941   0.42505   0.49982   0.00000  Uiso   1.00
H494   H     0.37059   0.57495   0.50018   0.00000  Uiso   1.00
N495   N     0.50000   0.61736   0.50000   0.00000  Uiso   1.00
N496   N     0.50000   0.38264   0.50000   0.00000  Uiso   1.00
O497   O     0.43988   0.53958   0.50000   0.00000  Uiso   1.00
O498   O     0.56012   0.46042   0.50000   0.00000  Uiso   1.00
O499   O     0.56012   0.53958   0.50000   0.00000  Uiso   1.00
O500   O     0.43988   0.46042   0.50000   0.00000  Uiso   1.00
O501   O     0.50000   0.53959   0.42946   0.00000  Uiso   1.00
O502   O     0.50000   0.46041   0.57054   0.00000  Uiso   1.00
O503   O     0.50000   0.53959   0.57054   0.00000  Uiso   1.00
O504   O     0.50000   0.46041   0.42946   0.00000  Uiso   1.00
Br505  Br    0.76972   0.38943   0.42311   0.00000  Uiso   1.00
Br506  Br    0.89695   0.61057   0.57689   0.00000  Uiso   1.00
Br507  Br    0.89695   0.38943   0.57689   0.00000  Uiso   1.00
Br508  Br    0.76972   0.61057   0.42311   0.00000  Uiso   1.00
C509   C     0.75413   0.50000   0.49999   0.00000  Uiso   1.00
C510   C     0.68796   0.54205   0.50006   0.00000  Uiso   1.00
C511   C     0.95721   0.50000   0.49995   0.00000  Uiso   1.00
C512   C     0.70946   0.50000   0.50005   0.00000  Uiso   1.00
C513   C     0.80728   0.35800   0.46856   0.00000  Uiso   1.00
C514   C     0.85938   0.64200   0.53144   0.00000  Uiso   1.00
C515   C     0.85938   0.35800   0.53144   0.00000  Uiso   1.00
C516   C     0.80728   0.64200   0.46856   0.00000  Uiso   1.00
C517   C     0.91254   0.50000   0.50001   0.00000  Uiso   1.00
C518   C     0.83328   0.50000   0.40698   0.00000  Uiso   1.00
C519   C     0.83338   0.50000   0.59302   0.00000  Uiso   1.00
C520   C     0.83332   0.50000   0.35521   0.00000  Uiso   1.00
C521   C     0.83335   0.50000   0.64479   0.00000  Uiso   1.00
C522   C     0.68796   0.45795   0.50006   0.00000  Uiso   1.00
C523   C     0.97871   0.54205   0.49994   0.00000  Uiso   1.00
C524   C     0.97871   0.45795   0.49994   0.00000  Uiso   1.00
Cu525  Cu    0.83333   0.54689   0.50000   0.00000  Uiso   1.00
Cu526  Cu    0.83333   0.45311   0.50000   0.00000  Uiso   1.00
H527   H     0.70393   0.42505   0.50018   0.00000  Uiso   1.00
H528   H     0.96274   0.57495   0.49982   0.00000  Uiso   1.00
H529   H     0.96274   0.42505   0.49982   0.00000  Uiso   1.00
H530   H     0.70393   0.57495   0.50018   0.00000  Uiso   1.00
N531   N     0.83333   0.61736   0.50000   0.00000  Uiso   1.00
N532   N     0.83333   0.38264   0.50000   0.00000  Uiso   1.00
O533   O     0.77321   0.53958   0.50000   0.00000  Uiso   1.00
O534   O     0.89345   0.46042   0.50000   0.00000  Uiso   1.00
O535   O     0.89345   0.53958   0.50000   0.00000  Uiso   1.00
O536   O     0.77321   0.46042   0.50000   0.00000  Uiso   1.00
O537   O     0.83333   0.53959   0.42946   0.00000  Uiso   1.00
O538   O     0.83333   0.46041   0.57054   0.00000  Uiso   1.00
O539   O     0.83333   0.53959   0.57054   0.00000  Uiso   1.00
O540   O     0.83333   0.46041   0.42946   0.00000  Uiso   1.00
Br541  Br    0.10305   0.72276   0.42311   0.00000  Uiso   1.00
Br542  Br    0.23028   0.94391   0.57689   0.00000  Uiso   1.00
Br543  Br    0.23028   0.72276   0.57689   0.00000  Uiso   1.00
Br544  Br    0.10305   0.94391   0.42311   0.00000  Uiso   1.00
C545   C     0.08746   0.83333   0.49999   0.00000  Uiso   1.00
C546   C     0.02129   0.87538   0.50006   0.00000  Uiso   1.00
C547   C     0.29054   0.83333   0.49995   0.00000  Uiso   1.00
C548   C     0.04279   0.83333   0.50005   0.00000  Uiso   1.00
C549   C     0.14062   0.69133   0.46856   0.00000  Uiso   1.00
C550   C     0.19272   0.97534   0.53144   0.00000  Uiso   1.00
C551   C     0.19272   0.69133   0.53144   0.00000  Uiso   1.00
C552   C     0.14062   0.97534   0.46856   0.00000  Uiso   1.00
C553   C     0.24587   0.83333   0.50001   0.00000  Uiso   1.00
C554   C     0.16662   0.83333   0.40698   0.00000  Uiso   1.00
C555   C     0.16672   0.83333   0.59302   0.00000  Uiso   1.00
C556   C     0.16665   0.83333   0.35521   0.00000  Uiso   1.00
C557   C     0.16669   0.83333   0.64479   0.00000  Uiso   1.00
C558   C     0.02129   0.79129   0.50006   0.00000  Uiso   1.00
C559   C     0.31204   0.87538   0.49994   0.00000  Uiso   1.00
C560   C     0.31204   0.79129   0.49994   0.00000  Uiso   1.00
Cu561  Cu    0.16667   0.88022   0.50000   0.00000  Uiso   1.00
Cu562  Cu    0.16667   0.78645   0.50000   0.00000  Uiso   1.00
H563   H     0.03726   0.75838   0.50018   0.00000  Uiso   1.00
H564   H     0.29607   0.90828   0.49982   0.00000  Uiso   1.00
H565   H     0.29607   0.75838   0.49982   0.00000  Uiso   1.00
H566   H     0.03726   0.90828   0.50018   0.00000  Uiso   1.00
N567   N     0.16667   0.95069   0.50000   0.00000  Uiso   1.00
N568   N     0.16667   0.71598   0.50000   0.00000  Uiso   1.00
O569   O     0.10655   0.87291   0.50000   0.00000  Uiso   1.00
O570   O     0.22679   0.79375   0.50000   0.00000  Uiso   1.00
O571   O     0.22679   0.87291   0.50000   0.00000  Uiso   1.00
O572   O     0.10655   0.79375   0.50000   0.00000  Uiso   1.00
O573   O     0.16667   0.87292   0.42946   0.00000  Uiso   1.00
O574   O     0.16667   0.79375   0.57054   0.00000  Uiso   1.00
O575   O     0.16667   0.87292   0.57054   0.00000  Uiso   1.00
O576   O     0.16667   0.79375   0.42946   0.00000  Uiso   1.00
Br577  Br    0.43639   0.72276   0.42311   0.00000  Uiso   1.00
Br578  Br    0.56362   0.94391   0.57689   0.00000  Uiso   1.00
Br579  Br    0.56362   0.72276   0.57689   0.00000  Uiso   1.00
Br580  Br    0.43639   0.94391   0.42311   0.00000  Uiso   1.00
C581   C     0.42079   0.83333   0.49999   0.00000  Uiso   1.00
C582   C     0.35463   0.87538   0.50006   0.00000  Uiso   1.00
C583   C     0.62388   0.83333   0.49995   0.00000  Uiso   1.00
C584   C     0.37612   0.83333   0.50005   0.00000  Uiso   1.00
C585   C     0.47395   0.69133   0.46856   0.00000  Uiso   1.00
C586   C     0.52605   0.97534   0.53144   0.00000  Uiso   1.00
C587   C     0.52605   0.69133   0.53144   0.00000  Uiso   1.00
C588   C     0.47395   0.97534   0.46856   0.00000  Uiso   1.00
C589   C     0.57921   0.83333   0.50001   0.00000  Uiso   1.00
C590   C     0.49995   0.83333   0.40698   0.00000  Uiso   1.00
C591   C     0.50005   0.83333   0.59302   0.00000  Uiso   1.00
C592   C     0.49998   0.83333   0.35521   0.00000  Uiso   1.00
C593   C     0.50002   0.83333   0.64479   0.00000  Uiso   1.00
C594   C     0.35463   0.79129   0.50006   0.00000  Uiso   1.00
C595   C     0.64537   0.87538   0.49994   0.00000  Uiso   1.00
C596   C     0.64537   0.79129   0.49994   0.00000  Uiso   1.00
Cu597  Cu    0.50000   0.88022   0.50000   0.00000  Uiso   1.00
Cu598  Cu    0.50000   0.78645   0.50000   0.00000  Uiso   1.00
H599   H     0.37059   0.75838   0.50018   0.00000  Uiso   1.00
H600   H     0.62941   0.90828   0.49982   0.00000  Uiso   1.00
H601   H     0.62941   0.75838   0.49982   0.00000  Uiso   1.00
H602   H     0.37059   0.90828   0.50018   0.00000  Uiso   1.00
N603   N     0.50000   0.95069   0.50000   0.00000  Uiso   1.00
N604   N     0.50000   0.71598   0.50000   0.00000  Uiso   1.00
O605   O     0.43988   0.87291   0.50000   0.00000  Uiso   1.00
O606   O     0.56012   0.79375   0.50000   0.00000  Uiso   1.00
O607   O     0.56012   0.87291   0.50000   0.00000  Uiso   1.00
O608   O     0.43988   0.79375   0.50000   0.00000  Uiso   1.00
O609   O     0.50000   0.87292   0.42946   0.00000  Uiso   1.00
O610   O     0.50000   0.79375   0.57054   0.00000  Uiso   1.00
O611   O     0.50000   0.87292   0.57054   0.00000  Uiso   1.00
O612   O     0.50000   0.79375   0.42946   0.00000  Uiso   1.00
Br613  Br    0.76972   0.72276   0.42311   0.00000  Uiso   1.00
Br614  Br    0.89695   0.94391   0.57689   0.00000  Uiso   1.00
Br615  Br    0.89695   0.72276   0.57689   0.00000  Uiso   1.00
Br616  Br    0.76972   0.94391   0.42311   0.00000  Uiso   1.00
C617   C     0.75413   0.83333   0.49999   0.00000  Uiso   1.00
C618   C     0.68796   0.87538   0.50006   0.00000  Uiso   1.00
C619   C     0.95721   0.83333   0.49995   0.00000  Uiso   1.00
C620   C     0.70946   0.83333   0.50005   0.00000  Uiso   1.00
C621   C     0.80728   0.69133   0.46856   0.00000  Uiso   1.00
C622   C     0.85938   0.97534   0.53144   0.00000  Uiso   1.00
C623   C     0.85938   0.69133   0.53144   0.00000  Uiso   1.00
C624   C     0.80728   0.97534   0.46856   0.00000  Uiso   1.00
C625   C     0.91254   0.83333   0.50001   0.00000  Uiso   1.00
C626   C     0.83328   0.83333   0.40698   0.00000  Uiso   1.00
C627   C     0.83338   0.83333   0.59302   0.00000  Uiso   1.00
C628   C     0.83332   0.83333   0.35521   0.00000  Uiso   1.00
C629   C     0.83335   0.83333   0.64479   0.00000  Uiso   1.00
C630   C     0.68796   0.79129   0.50006   0.00000  Uiso   1.00
C631   C     0.97871   0.87538   0.49994   0.00000  Uiso   1.00
C632   C     0.97871   0.79129   0.49994   0.00000  Uiso   1.00
Cu633  Cu    0.83333   0.88022   0.50000   0.00000  Uiso   1.00
Cu634  Cu    0.83333   0.78645   0.50000   0.00000  Uiso   1.00
H635   H     0.70393   0.75838   0.50018   0.00000  Uiso   1.00
H636   H     0.96274   0.90828   0.49982   0.00000  Uiso   1.00
H637   H     0.96274   0.75838   0.49982   0.00000  Uiso   1.00
H638   H     0.70393   0.90828   0.50018   0.00000  Uiso   1.00
N639   N     0.83333   0.95069   0.50000   0.00000  Uiso   1.00
N640   N     0.83333   0.71598   0.50000   0.00000  Uiso   1.00
O641   O     0.77321   0.87291   0.50000   0.00000  Uiso   1.00
O642   O     0.89345   0.79375   0.50000   0.00000  Uiso   1.00
O643   O     0.89345   0.87291   0.50000   0.00000  Uiso   1.00
O644   O     0.77321   0.79375   0.50000   0.00000  Uiso   1.00
O645   O     0.83333   0.87292   0.42946   0.00000  Uiso   1.00
O646   O     0.83333   0.79375   0.57054   0.00000  Uiso   1.00
O647   O     0.83333   0.87292   0.57054   0.00000  Uiso   1.00
O648   O     0.83333   0.79375   0.42946   0.00000  Uiso   1.00
Br649  Br    0.10305   0.05609   0.75644   0.00000  Uiso   1.00
Br650  Br    0.23028   0.27724   0.91022   0.00000  Uiso   1.00
Br651  Br    0.23028   0.05609   0.91022   0.00000  Uiso   1.00
Br652  Br    0.10305   0.27724   0.75644   0.00000  Uiso   1.00
C653   C     0.08746   0.16667   0.83332   0.00000  Uiso   1.00
C654   C     0.02129   0.20871   0.83339   0.00000  Uiso   1.00
C655   C     0.29054   0.16667   0.83329   0.00000  Uiso   1.00
C656   C     0.04279   0.16667   0.83338   0.00000  Uiso   1.00
C657   C     0.14062   0.02466   0.80189   0.00000  Uiso   1.00
C658   C     0.19272   0.30867   0.86478   0.00000  Uiso   1.00
C659   C     0.19272   0.02466   0.86478   0.00000  Uiso   1.00
C660   C     0.14062   0.30867   0.80189   0.00000  Uiso   1.00
C661   C     0.24587   0.16667   0.83334   0.00000  Uiso   1.00
C662   C     0.16662   0.16667   0.74031   0.00000  Uiso   1.00
C663   C     0.16672   0.16667   0.92635   0.00000  Uiso   1.00
C664   C     0.16665   0.16667   0.68854   0.00000  Uiso   1.00
C665   C     0.16669   0.16667   0.97813   0.00000  Uiso   1.00
C666   C     0.02129   0.12462   0.83339   0.00000  Uiso   1.00
C667   C     0.31204   0.20871   0.83327   0.00000  Uiso   1.00
C668   C     0.31204   0.12462   0.83327   0.00000  Uiso   1.00
Cu669  Cu    0.16667   0.21355   0.83333   0.00000  Uiso   1.00
Cu670  Cu    0.16667   0.11978   0.83333   0.00000  Uiso   1.00
H671   H     0.03726   0.09172   0.83352   0.00000  Uiso   1.00
H672   H     0.29607   0.24162   0.83315   0.00000  Uiso   1.00
H673   H     0.29607   0.09172   0.83315   0.00000  Uiso   1.00
H674   H     0.03726   0.24162   0.83352   0.00000  Uiso   1.00
N675   N     0.16667   0.28402   0.83333   0.00000  Uiso   1.00
N676   N     0.16667   0.04931   0.83333   0.00000  Uiso   1.00
O677   O     0.10655   0.20625   0.83333   0.00000  Uiso   1.00
O678   O     0.22679   0.12709   0.83334   0.00000  Uiso   1.00
O679   O     0.22679   0.20625   0.83334   0.00000  Uiso   1.00
O680   O     0.10655   0.12709   0.83333   0.00000  Uiso   1.00
O681   O     0.16667   0.20625   0.76280   0.00000  Uiso   1.00
O682   O     0.16667   0.12708   0.90387   0.00000  Uiso   1.00
O683   O     0.16667   0.20625   0.90387   0.00000  Uiso   1.00
O684   O     0.16667   0.12708   0.76280   0.00000  Uiso   1.00
Br685  Br    0.43639   0.05609   0.75644   0.00000  Uiso   1.00
Br686  Br    0.56362   0.27724   0.91022   0.00000  Uiso   1.00
Br687  Br    0.56362   0.05609   0.91022   0.00000  Uiso   1.00
Br688  Br    0.43639   0.27724   0.75644   0.00000  Uiso   1.00
C689   C     0.42079   0.16667   0.83332   0.00000  Uiso   1.00
C690   C     0.35463   0.20871   0.83339   0.00000  Uiso   1.00
C691   C     0.62388   0.16667   0.83329   0.00000  Uiso   1.00
C692   C     0.37612   0.16667   0.83338   0.00000  Uiso   1.00
C693   C     0.47395   0.02466   0.80189   0.00000  Uiso   1.00
C694   C     0.52605   0.30867   0.86478   0.00000  Uiso   1.00
C695   C     0.52605   0.02466   0.86478   0.00000  Uiso   1.00
C696   C     0.47395   0.30867   0.80189   0.00000  Uiso   1.00
C697   C     0.57921   0.16667   0.83334   0.00000  Uiso   1.00
C698   C     0.49995   0.16667   0.74031   0.00000  Uiso   1.00
C699   C     0.50005   0.16667   0.92635   0.00000  Uiso   1.00
C700   C     0.49998   0.16667   0.68854   0.00000  Uiso   1.00
C701   C     0.50002   0.16667   0.97813   0.00000  Uiso   1.00
C702   C     0.35463   0.12462   0.83339   0.00000  Uiso   1.00
C703   C     0.64537   0.20871   0.83327   0.00000  Uiso   1.00
C704   C     0.64537   0.12462   0.83327   0.00000  Uiso   1.00
Cu705  Cu    0.50000   0.21355   0.83333   0.00000  Uiso   1.00
Cu706  Cu    0.50000   0.11978   0.83333   0.00000  Uiso   1.00
H707   H     0.37059   0.09172   0.83352   0.00000  Uiso   1.00
H708   H     0.62941   0.24162   0.83315   0.00000  Uiso   1.00
H709   H     0.62941   0.09172   0.83315   0.00000  Uiso   1.00
H710   H     0.37059   0.24162   0.83352   0.00000  Uiso   1.00
N711   N     0.50000   0.28402   0.83333   0.00000  Uiso   1.00
N712   N     0.50000   0.04931   0.83333   0.00000  Uiso   1.00
O713   O     0.43988   0.20625   0.83333   0.00000  Uiso   1.00
O714   O     0.56012   0.12709   0.83334   0.00000  Uiso   1.00
O715   O     0.56012   0.20625   0.83334   0.00000  Uiso   1.00
O716   O     0.43988   0.12709   0.83333   0.00000  Uiso   1.00
O717   O     0.50000   0.20625   0.76280   0.00000  Uiso   1.00
O718   O     0.50000   0.12708   0.90387   0.00000  Uiso   1.00
O719   O     0.50000   0.20625   0.90387   0.00000  Uiso   1.00
O720   O     0.50000   0.12708   0.76280   0.00000  Uiso   1.00
Br721  Br    0.76972   0.05609   0.75644   0.00000  Uiso   1.00
Br722  Br    0.89695   0.27724   0.91022   0.00000  Uiso   1.00
Br723  Br    0.89695   0.05609   0.91022   0.00000  Uiso   1.00
Br724  Br    0.76972   0.27724   0.75644   0.00000  Uiso   1.00
C725   C     0.75413   0.16667   0.83332   0.00000  Uiso   1.00
C726   C     0.68796   0.20871   0.83339   0.00000  Uiso   1.00
C727   C     0.95721   0.16667   0.83329   0.00000  Uiso   1.00
C728   C     0.70946   0.16667   0.83338   0.00000  Uiso   1.00
C729   C     0.80728   0.02466   0.80189   0.00000  Uiso   1.00
C730   C     0.85938   0.30867   0.86478   0.00000  Uiso   1.00
C731   C     0.85938   0.02466   0.86478   0.00000  Uiso   1.00
C732   C     0.80728   0.30867   0.80189   0.00000  Uiso   1.00
C733   C     0.91254   0.16667   0.83334   0.00000  Uiso   1.00
C734   C     0.83328   0.16667   0.74031   0.00000  Uiso   1.00
C735   C     0.83338   0.16667   0.92635   0.00000  Uiso   1.00
C736   C     0.83332   0.16667   0.68854   0.00000  Uiso   1.00
C737   C     0.83335   0.16667   0.97813   0.00000  Uiso   1.00
C738   C     0.68796   0.12462   0.83339   0.00000  Uiso   1.00
C739   C     0.97871   0.20871   0.83327   0.00000  Uiso   1.00
C740   C     0.97871   0.12462   0.83327   0.00000  Uiso   1.00
Cu741  Cu    0.83333   0.21355   0.83333   0.00000  Uiso   1.00
Cu742  Cu    0.83333   0.11978   0.83333   0.00000  Uiso   1.00
H743   H     0.70393   0.09172   0.83352   0.00000  Uiso   1.00
H744   H     0.96274   0.24162   0.83315   0.00000  Uiso   1.00
H745   H     0.96274   0.09172   0.83315   0.00000  Uiso   1.00
H746   H     0.70393   0.24162   0.83352   0.00000  Uiso   1.00
N747   N     0.83333   0.28402   0.83333   0.00000  Uiso   1.00
N748   N     0.83333   0.04931   0.83333   0.00000  Uiso   1.00
O749   O     0.77321   0.20625   0.83333   0.00000  Uiso   1.00
O750   O     0.89345   0.12709   0.83334   0.00000  Uiso   1.00
O751   O     0.89345   0.20625   0.83334   0.00000  Uiso   1.00
O752   O     0.77321   0.12709   0.83333   0.00000  Uiso   1.00
O753   O     0.83333   0.20625   0.76280   0.00000  Uiso   1.00
O754   O     0.83333   0.12708   0.90387   0.00000  Uiso   1.00
O755   O     0.83333   0.20625   0.90387   0.00000  Uiso   1.00
O756   O     0.83333   0.12708   0.76280   0.00000  Uiso   1.00
Br757  Br    0.10305   0.38943   0.75644   0.00000  Uiso   1.00
Br758  Br    0.23028   0.61057   0.91022   0.00000  Uiso   1.00
Br759  Br    0.23028   0.38943   0.91022   0.00000  Uiso   1.00
Br760  Br    0.10305   0.61057   0.75644   0.00000  Uiso   1.00
C761   C     0.08746   0.50000   0.83332   0.00000  Uiso   1.00
C762   C     0.02129   0.54205   0.83339   0.00000  Uiso   1.00
C763   C     0.29054   0.50000   0.83329   0.00000  Uiso   1.00
C764   C     0.04279   0.50000   0.83338   0.00000  Uiso   1.00
C765   C     0.14062   0.35800   0.80189   0.00000  Uiso   1.00
C766   C     0.19272   0.64200   0.86478   0.00000  Uiso   1.00
C767   C     0.19272   0.35800   0.86478   0.00000  Uiso   1.00
C768   C     0.14062   0.64200   0.80189   0.00000  Uiso   1.00
C769   C     0.24587   0.50000   0.83334   0.00000  Uiso   1.00
C770   C     0.16662   0.50000   0.74031   0.00000  Uiso   1.00
C771   C     0.16672   0.50000   0.92635   0.00000  Uiso   1.00
C772   C     0.16665   0.50000   0.68854   0.00000  Uiso   1.00
C773   C     0.16669   0.50000   0.97813   0.00000  Uiso   1.00
C774   C     0.02129   0.45795   0.83339   0.00000  Uiso   1.00
C775   C     0.31204   0.54205   0.83327   0.00000  Uiso   1.00
C776   C     0.31204   0.45795   0.83327   0.00000  Uiso   1.00
Cu777  Cu    0.16667   0.54689   0.83333   0.00000  Uiso   1.00
Cu778  Cu    0.16667   0.45311   0.83333   0.00000  Uiso   1.00
H779   H     0.03726   0.42505   0.83352   0.00000  Uiso   1.00
H780   H     0.29607   0.57495   0.83315   0.00000  Uiso   1.00
H781   H     0.29607   0.42505   0.83315   0.00000  Uiso   1.00
H782   H     0.03726   0.57495   0.83352   0.00000  Uiso   1.00
N783   N     0.16667   0.61736   0.83333   0.00000  Uiso   1.00
N784   N     0.16667   0.38264   0.83333   0.00000  Uiso   1.00
O785   O     0.10655   0.53958   0.83333   0.00000  Uiso   1.00
O786   O     0.22679   0.46042   0.83334   0.00000  Uiso   1.00
O787   O     0.22679   0.53958   0.83334   0.00000  Uiso   1.00
O788   O     0.10655   0.46042   0.83333   0.00000  Uiso   1.00
O789   O     0.16667   0.53959   0.76280   0.00000  Uiso   1.00
O790   O     0.16667   0.46041   0.90387   0.00000  Uiso   1.00
O791   O     0.16667   0.53959   0.90387   0.00000  Uiso   1.00
O792   O     0.16667   0.46041   0.76280   0.00000  Uiso   1.00
Br793  Br    0.43639   0.38943   0.75644   0.00000  Uiso   1.00
Br794  Br    0.56362   0.61057   0.91022   0.00000  Uiso   1.00
Br795  Br    0.56362   0.38943   0.91022   0.00000  Uiso   1.00
Br796  Br    0.43639   0.61057   0.75644   0.00000  Uiso   1.00
C797   C     0.42079   0.50000   0.83332   0.00000  Uiso   1.00
C798   C     0.35463   0.54205   0.83339   0.00000  Uiso   1.00
C799   C     0.62388   0.50000   0.83329   0.00000  Uiso   1.00
C800   C     0.37612   0.50000   0.83338   0.00000  Uiso   1.00
C801   C     0.47395   0.35800   0.80189   0.00000  Uiso   1.00
C802   C     0.52605   0.64200   0.86478   0.00000  Uiso   1.00
C803   C     0.52605   0.35800   0.86478   0.00000  Uiso   1.00
C804   C     0.47395   0.64200   0.80189   0.00000  Uiso   1.00
C805   C     0.57921   0.50000   0.83334   0.00000  Uiso   1.00
C806   C     0.49995   0.50000   0.74031   0.00000  Uiso   1.00
C807   C     0.50005   0.50000   0.92635   0.00000  Uiso   1.00
C808   C     0.49998   0.50000   0.68854   0.00000  Uiso   1.00
C809   C     0.50002   0.50000   0.97813   0.00000  Uiso   1.00
C810   C     0.35463   0.45795   0.83339   0.00000  Uiso   1.00
C811   C     0.64537   0.54205   0.83327   0.00000  Uiso   1.00
C812   C     0.64537   0.45795   0.83327   0.00000  Uiso   1.00
Cu813  Cu    0.50000   0.54689   0.83333   0.00000  Uiso   1.00
Cu814  Cu    0.50000   0.45311   0.83333   0.00000  Uiso   1.00
H815   H     0.37059   0.42505   0.83352   0.00000  Uiso   1.00
H816   H     0.62941   0.57495   0.83315   0.00000  Uiso   1.00
H817   H     0.62941   0.42505   0.83315   0.00000  Uiso   1.00
H818   H     0.37059   0.57495   0.83352   0.00000  Uiso   1.00
N819   N     0.50000   0.61736   0.83333   0.00000  Uiso   1.00
N820   N     0.50000   0.38264   0.83333   0.00000  Uiso   1.00
O821   O     0.43988   0.53958   0.83333   0.00000  Uiso   1.00
O822   O     0.56012   0.46042   0.83334   0.00000  Uiso   1.00
O823   O     0.56012   0.53958   0.83334   0.00000  Uiso   1.00
O824   O     0.43988   0.46042   0.83333   0.00000  Uiso   1.00
O825   O     0.50000   0.53959   0.76280   0.00000  Uiso   1.00
O826   O     0.50000   0.46041   0.90387   0.00000  Uiso   1.00
O827   O     0.50000   0.53959   0.90387   0.00000  Uiso   1.00
O828   O     0.50000   0.46041   0.76280   0.00000  Uiso   1.00
Br829  Br    0.76972   0.38943   0.75644   0.00000  Uiso   1.00
Br830  Br    0.89695   0.61057   0.91022   0.00000  Uiso   1.00
Br831  Br    0.89695   0.38943   0.91022   0.00000  Uiso   1.00
Br832  Br    0.76972   0.61057   0.75644   0.00000  Uiso   1.00
C833   C     0.75413   0.50000   0.83332   0.00000  Uiso   1.00
C834   C     0.68796   0.54205   0.83339   0.00000  Uiso   1.00
C835   C     0.95721   0.50000   0.83329   0.00000  Uiso   1.00
C836   C     0.70946   0.50000   0.83338   0.00000  Uiso   1.00
C837   C     0.80728   0.35800   0.80189   0.00000  Uiso   1.00
C838   C     0.85938   0.64200   0.86478   0.00000  Uiso   1.00
C839   C     0.85938   0.35800   0.86478   0.00000  Uiso   1.00
C840   C     0.80728   0.64200   0.80189   0.00000  Uiso   1.00
C841   C     0.91254   0.50000   0.83334   0.00000  Uiso   1.00
C842   C     0.83328   0.50000   0.74031   0.00000  Uiso   1.00
C843   C     0.83338   0.50000   0.92635   0.00000  Uiso   1.00
C844   C     0.83332   0.50000   0.68854   0.00000  Uiso   1.00
C845   C     0.83335   0.50000   0.97813   0.00000  Uiso   1.00
C846   C     0.68796   0.45795   0.83339   0.00000  Uiso   1.00
C847   C     0.97871   0.54205   0.83327   0.00000  Uiso   1.00
C848   C     0.97871   0.45795   0.83327   0.00000  Uiso   1.00
Cu849  Cu    0.83333   0.54689   0.83333   0.00000  Uiso   1.00
Cu850  Cu    0.83333   0.45311   0.83333   0.00000  Uiso   1.00
H851   H     0.70393   0.42505   0.83352   0.00000  Uiso   1.00
H852   H     0.96274   0.57495   0.83315   0.00000  Uiso   1.00
H853   H     0.96274   0.42505   0.83315   0.00000  Uiso   1.00
H854   H     0.70393   0.57495   0.83352   0.00000  Uiso   1.00
N855   N     0.83333   0.61736   0.83333   0.00000  Uiso   1.00
N856   N     0.83333   0.38264   0.83333   0.00000  Uiso   1.00
O857   O     0.77321   0.53958   0.83333   0.00000  Uiso   1.00
O858   O     0.89345   0.46042   0.83334   0.00000  Uiso   1.00
O859   O     0.89345   0.53958   0.83334   0.00000  Uiso   1.00
O860   O     0.77321   0.46042   0.83333   0.00000  Uiso   1.00
O861   O     0.83333   0.53959   0.76280   0.00000  Uiso   1.00
O862   O     0.83333   0.46041   0.90387   0.00000  Uiso   1.00
O863   O     0.83333   0.53959   0.90387   0.00000  Uiso   1.00
O864   O     0.83333   0.46041   0.76280   0.00000  Uiso   1.00
Br865  Br    0.10305   0.72276   0.75644   0.00000  Uiso   1.00
Br866  Br    0.23028   0.94391   0.91022   0.00000  Uiso   1.00
Br867  Br    0.23028   0.72276   0.91022   0.00000  Uiso   1.00
Br868  Br    0.10305   0.94391   0.75644   0.00000  Uiso   1.00
C869   C     0.08746   0.83333   0.83332   0.00000  Uiso   1.00
C870   C     0.02129   0.87538   0.83339   0.00000  Uiso   1.00
C871   C     0.29054   0.83333   0.83329   0.00000  Uiso   1.00
C872   C     0.04279   0.83333   0.83338   0.00000  Uiso   1.00
C873   C     0.14062   0.69133   0.80189   0.00000  Uiso   1.00
C874   C     0.19272   0.97534   0.86478   0.00000  Uiso   1.00
C875   C     0.19272   0.69133   0.86478   0.00000  Uiso   1.00
C876   C     0.14062   0.97534   0.80189   0.00000  Uiso   1.00
C877   C     0.24587   0.83333   0.83334   0.00000  Uiso   1.00
C878   C     0.16662   0.83333   0.74031   0.00000  Uiso   1.00
C879   C     0.16672   0.83333   0.92635   0.00000  Uiso   1.00
C880   C     0.16665   0.83333   0.68854   0.00000  Uiso   1.00
C881   C     0.16669   0.83333   0.97813   0.00000  Uiso   1.00
C882   C     0.02129   0.79129   0.83339   0.00000  Uiso   1.00
C883   C     0.31204   0.87538   0.83327   0.00000  Uiso   1.00
C884   C     0.31204   0.79129   0.83327   0.00000  Uiso   1.00
Cu885  Cu    0.16667   0.88022   0.83333   0.00000  Uiso   1.00
Cu886  Cu    0.16667   0.78645   0.83333   0.00000  Uiso   1.00
H887   H     0.03726   0.75838   0.83352   0.00000  Uiso   1.00
H888   H     0.29607   0.90828   0.83315   0.00000  Uiso   1.00
H889   H     0.29607   0.75838   0.83315   0.00000  Uiso   1.00
H890   H     0.03726   0.90828   0.83352   0.00000  Uiso   1.00
N891   N     0.16667   0.95069   0.83333   0.00000  Uiso   1.00
N892   N     0.16667   0.71598   0.83333   0.00000  Uiso   1.00
O893   O     0.10655   0.87291   0.83333   0.00000  Uiso   1.00
O894   O     0.22679   0.79375   0.83334   0.00000  Uiso   1.00
O895   O     0.22679   0.87291   0.83334   0.00000  Uiso   1.00
O896   O     0.10655   0.79375   0.83333   0.00000  Uiso   1.00
O897   O     0.16667   0.87292   0.76280   0.00000  Uiso   1.00
O898   O     0.16667   0.79375   0.90387   0.00000  Uiso   1.00
O899   O     0.16667   0.87292   0.90387   0.00000  Uiso   1.00
O900   O     0.16667   0.79375   0.76280   0.00000  Uiso   1.00
Br901  Br    0.43639   0.72276   0.75644   0.00000  Uiso   1.00
Br902  Br    0.56362   0.94391   0.91022   0.00000  Uiso   1.00
Br903  Br    0.56362   0.72276   0.91022   0.00000  Uiso   1.00
Br904  Br    0.43639   0.94391   0.75644   0.00000  Uiso   1.00
C905   C     0.42079   0.83333   0.83332   0.00000  Uiso   1.00
C906   C     0.35463   0.87538   0.83339   0.00000  Uiso   1.00
C907   C     0.62388   0.83333   0.83329   0.00000  Uiso   1.00
C908   C     0.37612   0.83333   0.83338   0.00000  Uiso   1.00
C909   C     0.47395   0.69133   0.80189   0.00000  Uiso   1.00
C910   C     0.52605   0.97534   0.86478   0.00000  Uiso   1.00
C911   C     0.52605   0.69133   0.86478   0.00000  Uiso   1.00
C912   C     0.47395   0.97534   0.80189   0.00000  Uiso   1.00
C913   C     0.57921   0.83333   0.83334   0.00000  Uiso   1.00
C914   C     0.49995   0.83333   0.74031   0.00000  Uiso   1.00
C915   C     0.50005   0.83333   0.92635   0.00000  Uiso   1.00
C916   C     0.49998   0.83333   0.68854   0.00000  Uiso   1.00
C917   C     0.50002   0.83333   0.97813   0.00000  Uiso   1.00
C918   C     0.35463   0.79129   0.83339   0.00000  Uiso   1.00
C919   C     0.64537   0.87538   0.83327   0.00000  Uiso   1.00
C920   C     0.64537   0.79129   0.83327   0.00000  Uiso   1.00
Cu921  Cu    0.50000   0.88022   0.83333   0.00000  Uiso   1.00
Cu922  Cu    0.50000   0.78645   0.83333   0.00000  Uiso   1.00
H923   H     0.37059   0.75838   0.83352   0.00000  Uiso   1.00
H924   H     0.62941   0.90828   0.83315   0.00000  Uiso   1.00
H925   H     0.62941   0.75838   0.83315   0.00000  Uiso   1.00
H926   H     0.37059   0.90828   0.83352   0.00000  Uiso   1.00
N927   N     0.50000   0.95069   0.83333   0.00000  Uiso   1.00
N928   N     0.50000   0.71598   0.83333   0.00000  Uiso   1.00
O929   O     0.43988   0.87291   0.83333   0.00000  Uiso   1.00
O930   O     0.56012   0.79375   0.83334   0.00000  Uiso   1.00
O931   O     0.56012   0.87291   0.83334   0.00000  Uiso   1.00
O932   O     0.43988   0.79375   0.83333   0.00000  Uiso   1.00
O933   O     0.50000   0.87292   0.76280   0.00000  Uiso   1.00
O934   O     0.50000   0.79375   0.90387   0.00000  Uiso   1.00
O935   O     0.50000   0.87292   0.90387   0.00000  Uiso   1.00
O936   O     0.50000   0.79375   0.76280   0.00000  Uiso   1.00
Br937  Br    0.76972   0.72276   0.75644   0.00000  Uiso   1.00
Br938  Br    0.89695   0.94391   0.91022   0.00000  Uiso   1.00
Br939  Br    0.89695   0.72276   0.91022   0.00000  Uiso   1.00
Br940  Br    0.76972   0.94391   0.75644   0.00000  Uiso   1.00
C941   C     0.75413   0.83333   0.83332   0.00000  Uiso   1.00
C942   C     0.68796   0.87538   0.83339   0.00000  Uiso   1.00
C943   C     0.95721   0.83333   0.83329   0.00000  Uiso   1.00
C944   C     0.70946   0.83333   0.83338   0.00000  Uiso   1.00
C945   C     0.80728   0.69133   0.80189   0.00000  Uiso   1.00
C946   C     0.85938   0.97534   0.86478   0.00000  Uiso   1.00
C947   C     0.85938   0.69133   0.86478   0.00000  Uiso   1.00
C948   C     0.80728   0.97534   0.80189   0.00000  Uiso   1.00
C949   C     0.91254   0.83333   0.83334   0.00000  Uiso   1.00
C950   C     0.83328   0.83333   0.74031   0.00000  Uiso   1.00
C951   C     0.83338   0.83333   0.92635   0.00000  Uiso   1.00
C952   C     0.83332   0.83333   0.68854   0.00000  Uiso   1.00
C953   C     0.83335   0.83333   0.97813   0.00000  Uiso   1.00
C954   C     0.68796   0.79129   0.83339   0.00000  Uiso   1.00
C955   C     0.97871   0.87538   0.83327   0.00000  Uiso   1.00
C956   C     0.97871   0.79129   0.83327   0.00000  Uiso   1.00
Cu957  Cu    0.83333   0.88022   0.83333   0.00000  Uiso   1.00
Cu958  Cu    0.83333   0.78645   0.83333   0.00000  Uiso   1.00
H959   H     0.70393   0.75838   0.83352   0.00000  Uiso   1.00
H960   H     0.96274   0.90828   0.83315   0.00000  Uiso   1.00
H961   H     0.96274   0.75838   0.83315   0.00000  Uiso   1.00
H962   H     0.70393   0.90828   0.83352   0.00000  Uiso   1.00
N963   N     0.83333   0.95069   0.83333   0.00000  Uiso   1.00
N964   N     0.83333   0.71598   0.83333   0.00000  Uiso   1.00
O965   O     0.77321   0.87291   0.83333   0.00000  Uiso   1.00
O966   O     0.89345   0.79375   0.83334   0.00000  Uiso   1.00
O967   O     0.89345   0.87291   0.83334   0.00000  Uiso   1.00
O968   O     0.77321   0.79375   0.83333   0.00000  Uiso   1.00
O969   O     0.83333   0.87292   0.76280   0.00000  Uiso   1.00
O970   O     0.83333   0.79375   0.90387   0.00000  Uiso   1.00
O971   O     0.83333   0.87292   0.90387   0.00000  Uiso   1.00
O972   O     0.83333   0.79375   0.76280   0.00000  Uiso   1.00
loop_
_geom_bond_atom_site_label_1
_geom_bond_atom_site_label_2
_geom_bond_distance
_geom_bond_site_symmetry_2
_ccdc_geom_bond_type
Br1    C9      1.928   .     S
Br2    C10     1.928   .     S
Br3    C11     1.928   .     S
Br4    C12     1.928   .     S
C5     C8      1.451   .     S
C5     O32     1.301   .     A
C5     O29     1.301   .     A
C6     H26     1.083   .     S
C6     C8      1.401   .     A
C6     C91     1.383   1_455 S
C7     C19     1.401   .     A
C7     C13     1.451   .     S
C7     C20     1.401   .     A
C8     C18     1.401   .     A
C9     N28     1.376   .     A
C9     C228    1.425   1_545 S
C10    N27     1.376   .     A
C10    C119    1.425   .     S
C11    N28     1.376   .     A
C11    C226    1.425   1_545 S
C12    N27     1.376   .     A
C12    C117    1.425   .     S
C13    O30     1.301   .     A
C13    O31     1.301   .     A
C14    O33     1.297   .     A
C14    O36     1.297   .     A
C14    C16     1.409   .     S
C15    O34     1.297   .     A
C15    O35     1.297   .     A
C15    C17     1.409   .     S
C16    C665    1.190   1_554 S
C17    C340    1.190   .     S
C18    H23     1.083   .     S
C18    C92     1.383   1_455 S
C19    H24     1.083   .     S
C19    C42     1.383   .     S
C20    H25     1.083   .     S
C20    C54     1.383   .     S
Cu21   O35     1.931   .     S
Cu21   O33     1.931   .     S
Cu21   N27     2.036   .     S
Cu21   Cu22    2.709   .     S
Cu21   O31     1.965   .     S
Cu21   O29     1.965   .     S
Cu22   O36     1.931   .     S
Cu22   N28     2.036   .     S
Cu22   O32     1.965   .     S
Cu22   O34     1.931   .     S
Cu22   O30     1.965   .     S
Br37   C45     1.928   .     S
Br38   C46     1.928   .     S
Br39   C47     1.928   .     S
Br40   C48     1.928   .     S
C41    C44     1.451   .     S
C41    O68     1.301   .     A
C41    O65     1.301   .     A
C42    H62     1.083   .     S
C42    C44     1.401   .     A
C43    C55     1.401   .     A
C43    C49     1.451   .     S
C43    C56     1.401   .     A
C44    C54     1.401   .     A
C45    N64     1.376   .     A
C45    C264    1.425   1_545 S
C46    N63     1.376   .     A
C46    C155    1.425   .     S
C47    N64     1.376   .     A
C47    C262    1.425   1_545 S
C48    N63     1.376   .     A
C48    C153    1.425   .     S
C49    O66     1.301   .     A
C49    O67     1.301   .     A
C50    O69     1.297   .     A
C50    O72     1.297   .     A
C50    C52     1.409   .     S
C51    O70     1.297   .     A
C51    O71     1.297   .     A
C51    C53     1.409   .     S
C52    C701    1.190   1_554 S
C53    C376    1.190   .     S
C54    H59     1.083   .     S
C55    H60     1.083   .     S
C55    C78     1.383   .     S
C56    H61     1.083   .     S
C56    C90     1.383   .     S
Cu57   O71     1.931   .     S
Cu57   O69     1.931   .     S
Cu57   N63     2.036   .     S
Cu57   Cu58    2.709   .     S
Cu57   O67     1.965   .     S
Cu57   O65     1.965   .     S
Cu58   O72     1.931   .     S
Cu58   N64     2.036   .     S
Cu58   O68     1.965   .     S
Cu58   O70     1.931   .     S
Cu58   O66     1.965   .     S
Br73   C81     1.928   .     S
Br74   C82     1.928   .     S
Br75   C83     1.928   .     S
Br76   C84     1.928   .     S
C77    C80     1.451   .     S
C77    O104    1.301   .     A
C77    O101    1.301   .     A
C78    H98     1.083   .     S
C78    C80     1.401   .     A
C79    C91     1.401   .     A
C79    C85     1.451   .     S
C79    C92     1.401   .     A
C80    C90     1.401   .     A
C81    N100    1.376   .     A
C81    C300    1.425   1_545 S
C82    N99     1.376   .     A
C82    C191    1.425   .     S
C83    N100    1.376   .     A
C83    C298    1.425   1_545 S
C84    N99     1.376   .     A
C84    C189    1.425   .     S
C85    O102    1.301   .     A
C85    O103    1.301   .     A
C86    O105    1.297   .     A
C86    O108    1.297   .     A
C86    C88     1.409   .     S
C87    O106    1.297   .     A
C87    O107    1.297   .     A
C87    C89     1.409   .     S
C88    C737    1.190   1_554 S
C89    C412    1.190   .     S
C90    H95     1.083   .     S
C91    H96     1.083   .     S
C91    C6      1.383   1_655 S
C92    H97     1.083   .     S
C92    C18     1.383   1_655 S
Cu93   O107    1.931   .     S
Cu93   O105    1.931   .     S
Cu93   N99     2.036   .     S
Cu93   Cu94    2.709   .     S
Cu93   O103    1.965   .     S
Cu93   O101    1.965   .     S
Cu94   O108    1.931   .     S
Cu94   N100    2.036   .     S
Cu94   O104    1.965   .     S
Cu94   O106    1.931   .     S
Cu94   O102    1.965   .     S
Br109  C117    1.928   .     S
Br110  C118    1.928   .     S
Br111  C119    1.928   .     S
Br112  C120    1.928   .     S
C113   C116    1.451   .     S
C113   O140    1.301   .     A
C113   O137    1.301   .     A
C114   H134    1.083   .     S
C114   C116    1.401   .     A
C114   C199    1.383   1_455 S
C115   C127    1.401   .     A
C115   C121    1.451   .     S
C115   C128    1.401   .     A
C116   C126    1.401   .     A
C117   N136    1.376   .     A
C118   N135    1.376   .     A
C118   C227    1.425   .     S
C119   N136    1.376   .     A
C120   N135    1.376   .     A
C120   C225    1.425   .     S
C121   O138    1.301   .     A
C121   O139    1.301   .     A
C122   O141    1.297   .     A
C122   O144    1.297   .     A
C122   C124    1.409   .     S
C123   O142    1.297   .     A
C123   O143    1.297   .     A
C123   C125    1.409   .     S
C124   C773    1.190   1_554 S
C125   C448    1.190   .     S
C126   H131    1.083   .     S
C126   C200    1.383   1_455 S
C127   H132    1.083   .     S
C127   C150    1.383   .     S
C128   H133    1.083   .     S
C128   C162    1.383   .     S
Cu129  O143    1.931   .     S
Cu129  O141    1.931   .     S
Cu129  N135    2.036   .     S
Cu129  Cu130   2.709   .     S
Cu129  O139    1.965   .     S
Cu129  O137    1.965   .     S
Cu130  O144    1.931   .     S
Cu130  N136    2.036   .     S
Cu130  O140    1.965   .     S
Cu130  O142    1.931   .     S
Cu130  O138    1.965   .     S
Br145  C153    1.928   .     S
Br146  C154    1.928   .     S
Br147  C155    1.928   .     S
Br148  C156    1.928   .     S
C149   C152    1.451   .     S
C149   O176    1.301   .     A
C149   O173    1.301   .     A
C150   H170    1.083   .     S
C150   C152    1.401   .     A
C151   C163    1.401   .     A
C151   C157    1.451   .     S
C151   C164    1.401   .     A
C152   C162    1.401   .     A
C153   N172    1.376   .     A
C154   N171    1.376   .     A
C154   C263    1.425   .     S
C155   N172    1.376   .     A
C156   N171    1.376   .     A
C156   C261    1.425   .     S
C157   O174    1.301   .     A
C157   O175    1.301   .     A
C158   O177    1.297   .     A
C158   O180    1.297   .     A
C158   C160    1.409   .     S
C159   O178    1.297   .     A
C159   O179    1.297   .     A
C159   C161    1.409   .     S
C160   C809    1.190   1_554 S
C161   C484    1.190   .     S
C162   H167    1.083   .     S
C163   H168    1.083   .     S
C163   C186    1.383   .     S
C164   H169    1.083   .     S
C164   C198    1.383   .     S
Cu165  O179    1.931   .     S
Cu165  O177    1.931   .     S
Cu165  N171    2.036   .     S
Cu165  Cu166   2.709   .     S
Cu165  O175    1.965   .     S
Cu165  O173    1.965   .     S
Cu166  O180    1.931   .     S
Cu166  N172    2.036   .     S
Cu166  O176    1.965   .     S
Cu166  O178    1.931   .     S
Cu166  O174    1.965   .     S
Br181  C189    1.928   .     S
Br182  C190    1.928   .     S
Br183  C191    1.928   .     S
Br184  C192    1.928   .     S
C185   C188    1.451   .     S
C185   O212    1.301   .     A
C185   O209    1.301   .     A
C186   H206    1.083   .     S
C186   C188    1.401   .     A
C187   C199    1.401   .     A
C187   C193    1.451   .     S
C187   C200    1.401   .     A
C188   C198    1.401   .     A
C189   N208    1.376   .     A
C190   N207    1.376   .     A
C190   C299    1.425   .     S
C191   N208    1.376   .     A
C192   N207    1.376   .     A
C192   C297    1.425   .     S
C193   O210    1.301   .     A
C193   O211    1.301   .     A
C194   O213    1.297   .     A
C194   O216    1.297   .     A
C194   C196    1.409   .     S
C195   O214    1.297   .     A
C195   O215    1.297   .     A
C195   C197    1.409   .     S
C196   C845    1.190   1_554 S
C197   C520    1.190   .     S
C198   H203    1.083   .     S
C199   H204    1.083   .     S
C199   C114    1.383   1_655 S
C200   H205    1.083   .     S
C200   C126    1.383   1_655 S
Cu201  O215    1.931   .     S
Cu201  O213    1.931   .     S
Cu201  N207    2.036   .     S
Cu201  Cu202   2.709   .     S
Cu201  O211    1.965   .     S
Cu201  O209    1.965   .     S
Cu202  O216    1.931   .     S
Cu202  N208    2.036   .     S
Cu202  O212    1.965   .     S
Cu202  O214    1.931   .     S
Cu202  O210    1.965   .     S
Br217  C225    1.928   .     S
Br218  C226    1.928   .     S
Br219  C227    1.928   .     S
Br220  C228    1.928   .     S
C221   C224    1.451   .     S
C221   O248    1.301   .     A
C221   O245    1.301   .     A
C222   H242    1.083   .     S
C222   C224    1.401   .     A
C222   C307    1.383   1_455 S
C223   C235    1.401   .     A
C223   C229    1.451   .     S
C223   C236    1.401   .     A
C224   C234    1.401   .     A
C225   N244    1.376   .     A
C226   N243    1.376   .     A
C226   C11     1.425   1_565 S
C227   N244    1.376   .     A
C228   N243    1.376   .     A
C228   C9      1.425   1_565 S
C229   O246    1.301   .     A
C229   O247    1.301   .     A
C230   O249    1.297   .     A
C230   O252    1.297   .     A
C230   C232    1.409   .     S
C231   O250    1.297   .     A
C231   O251    1.297   .     A
C231   C233    1.409   .     S
C232   C881    1.190   1_554 S
C233   C556    1.190   .     S
C234   H239    1.083   .     S
C234   C308    1.383   1_455 S
C235   H240    1.083   .     S
C235   C258    1.383   .     S
C236   H241    1.083   .     S
C236   C270    1.383   .     S
Cu237  O251    1.931   .     S
Cu237  O249    1.931   .     S
Cu237  N243    2.036   .     S
Cu237  Cu238   2.709   .     S
Cu237  O247    1.965   .     S
Cu237  O245    1.965   .     S
Cu238  O252    1.931   .     S
Cu238  N244    2.036   .     S
Cu238  O248    1.965   .     S
Cu238  O250    1.931   .     S
Cu238  O246    1.965   .     S
Br253  C261    1.928   .     S
Br254  C262    1.928   .     S
Br255  C263    1.928   .     S
Br256  C264    1.928   .     S
C257   C260    1.451   .     S
C257   O284    1.301   .     A
C257   O281    1.301   .     A
C258   H278    1.083   .     S
C258   C260    1.401   .     A
C259   C271    1.401   .     A
C259   C265    1.451   .     S
C259   C272    1.401   .     A
C260   C270    1.401   .     A
C261   N280    1.376   .     A
C262   N279    1.376   .     A
C262   C47     1.425   1_565 S
C263   N280    1.376   .     A
C264   N279    1.376   .     A
C264   C45     1.425   1_565 S
C265   O282    1.301   .     A
C265   O283    1.301   .     A
C266   O285    1.297   .     A
C266   O288    1.297   .     A
C266   C268    1.409   .     S
C267   O286    1.297   .     A
C267   O287    1.297   .     A
C267   C269    1.409   .     S
C268   C917    1.190   1_554 S
C269   C592    1.190   .     S
C270   H275    1.083   .     S
C271   H276    1.083   .     S
C271   C294    1.383   .     S
C272   H277    1.083   .     S
C272   C306    1.383   .     S
Cu273  O287    1.931   .     S
Cu273  O285    1.931   .     S
Cu273  N279    2.036   .     S
Cu273  Cu274   2.709   .     S
Cu273  O283    1.965   .     S
Cu273  O281    1.965   .     S
Cu274  O288    1.931   .     S
Cu274  N280    2.036   .     S
Cu274  O284    1.965   .     S
Cu274  O286    1.931   .     S
Cu274  O282    1.965   .     S
Br289  C297    1.928   .     S
Br290  C298    1.928   .     S
Br291  C299    1.928   .     S
Br292  C300    1.928   .     S
C293   C296    1.451   .     S
C293   O320    1.301   .     A
C293   O317    1.301   .     A
C294   H314    1.083   .     S
C294   C296    1.401   .     A
C295   C307    1.401   .     A
C295   C301    1.451   .     S
C295   C308    1.401   .     A
C296   C306    1.401   .     A
C297   N316    1.376   .     A
C298   N315    1.376   .     A
C298   C83     1.425   1_565 S
C299   N316    1.376   .     A
C300   N315    1.376   .     A
C300   C81     1.425   1_565 S
C301   O318    1.301   .     A
C301   O319    1.301   .     A
C302   O321    1.297   .     A
C302   O324    1.297   .     A
C302   C304    1.409   .     S
C303   O322    1.297   .     A
C303   O323    1.297   .     A
C303   C305    1.409   .     S
C304   C953    1.190   1_554 S
C305   C628    1.190   .     S
C306   H311    1.083   .     S
C307   H312    1.083   .     S
C307   C222    1.383   1_655 S
C308   H313    1.083   .     S
C308   C234    1.383   1_655 S
Cu309  O323    1.931   .     S
Cu309  O321    1.931   .     S
Cu309  N315    2.036   .     S
Cu309  Cu310   2.709   .     S
Cu309  O319    1.965   .     S
Cu309  O317    1.965   .     S
Cu310  O324    1.931   .     S
Cu310  N316    2.036   .     S
Cu310  O320    1.965   .     S
Cu310  O322    1.931   .     S
Cu310  O318    1.965   .     S
Br325  C333    1.928   .     S
Br326  C334    1.928   .     S
Br327  C335    1.928   .     S
Br328  C336    1.928   .     S
C329   C332    1.451   .     S
C329   O356    1.301   .     A
C329   O353    1.301   .     A
C330   H350    1.083   .     S
C330   C332    1.401   .     A
C330   C415    1.383   1_455 S
C331   C343    1.401   .     A
C331   C337    1.451   .     S
C331   C344    1.401   .     A
C332   C342    1.401   .     A
C333   N352    1.376   .     A
C333   C552    1.425   1_545 S
C334   N351    1.376   .     A
C334   C443    1.425   .     S
C335   N352    1.376   .     A
C335   C550    1.425   1_545 S
C336   N351    1.376   .     A
C336   C441    1.425   .     S
C337   O354    1.301   .     A
C337   O355    1.301   .     A
C338   O357    1.297   .     A
C338   O360    1.297   .     A
C338   C340    1.409   .     S
C339   O358    1.297   .     A
C339   O359    1.297   .     A
C339   C341    1.409   .     S
C341   C664    1.190   .     S
C342   H347    1.083   .     S
C342   C416    1.383   1_455 S
C343   H348    1.083   .     S
C343   C366    1.383   .     S
C344   H349    1.083   .     S
C344   C378    1.383   .     S
Cu345  O359    1.931   .     S
Cu345  O357    1.931   .     S
Cu345  N351    2.036   .     S
Cu345  Cu346   2.709   .     S
Cu345  O355    1.965   .     S
Cu345  O353    1.965   .     S
Cu346  O360    1.931   .     S
Cu346  N352    2.036   .     S
Cu346  O356    1.965   .     S
Cu346  O358    1.931   .     S
Cu346  O354    1.965   .     S
Br361  C369    1.928   .     S
Br362  C370    1.928   .     S
Br363  C371    1.928   .     S
Br364  C372    1.928   .     S
C365   C368    1.451   .     S
C365   O392    1.301   .     A
C365   O389    1.301   .     A
C366   H386    1.083   .     S
C366   C368    1.401   .     A
C367   C379    1.401   .     A
C367   C373    1.451   .     S
C367   C380    1.401   .     A
C368   C378    1.401   .     A
C369   N388    1.376   .     A
C369   C588    1.425   1_545 S
C370   N387    1.376   .     A
C370   C479    1.425   .     S
C371   N388    1.376   .     A
C371   C586    1.425   1_545 S
C372   N387    1.376   .     A
C372   C477    1.425   .     S
C373   O390    1.301   .     A
C373   O391    1.301   .     A
C374   O393    1.297   .     A
C374   O396    1.297   .     A
C374   C376    1.409   .     S
C375   O394    1.297   .     A
C375   O395    1.297   .     A
C375   C377    1.409   .     S
C377   C700    1.190   .     S
C378   H383    1.083   .     S
C379   H384    1.083   .     S
C379   C402    1.383   .     S
C380   H385    1.083   .     S
C380   C414    1.383   .     S
Cu381  O395    1.931   .     S
Cu381  O393    1.931   .     S
Cu381  N387    2.036   .     S
Cu381  Cu382   2.709   .     S
Cu381  O391    1.965   .     S
Cu381  O389    1.965   .     S
Cu382  O396    1.931   .     S
Cu382  N388    2.036   .     S
Cu382  O392    1.965   .     S
Cu382  O394    1.931   .     S
Cu382  O390    1.965   .     S
Br397  C405    1.928   .     S
Br398  C406    1.928   .     S
Br399  C407    1.928   .     S
Br400  C408    1.928   .     S
C401   C404    1.451   .     S
C401   O428    1.301   .     A
C401   O425    1.301   .     A
C402   H422    1.083   .     S
C402   C404    1.401   .     A
C403   C415    1.401   .     A
C403   C409    1.451   .     S
C403   C416    1.401   .     A
C404   C414    1.401   .     A
C405   N424    1.376   .     A
C405   C624    1.425   1_545 S
C406   N423    1.376   .     A
C406   C515    1.425   .     S
C407   N424    1.376   .     A
C407   C622    1.425   1_545 S
C408   N423    1.376   .     A
C408   C513    1.425   .     S
C409   O426    1.301   .     A
C409   O427    1.301   .     A
C410   O429    1.297   .     A
C410   O432    1.297   .     A
C410   C412    1.409   .     S
C411   O430    1.297   .     A
C411   O431    1.297   .     A
C411   C413    1.409   .     S
C413   C736    1.190   .     S
C414   H419    1.083   .     S
C415   H420    1.083   .     S
C415   C330    1.383   1_655 S
C416   H421    1.083   .     S
C416   C342    1.383   1_655 S
Cu417  O431    1.931   .     S
Cu417  O429    1.931   .     S
Cu417  N423    2.036   .     S
Cu417  Cu418   2.709   .     S
Cu417  O427    1.965   .     S
Cu417  O425    1.965   .     S
Cu418  O432    1.931   .     S
Cu418  N424    2.036   .     S
Cu418  O428    1.965   .     S
Cu418  O430    1.931   .     S
Cu418  O426    1.965   .     S
Br433  C441    1.928   .     S
Br434  C442    1.928   .     S
Br435  C443    1.928   .     S
Br436  C444    1.928   .     S
C437   C440    1.451   .     S
C437   O464    1.301   .     A
C437   O461    1.301   .     A
C438   H458    1.083   .     S
C438   C440    1.401   .     A
C438   C523    1.383   1_455 S
C439   C451    1.401   .     A
C439   C445    1.451   .     S
C439   C452    1.401   .     A
C440   C450    1.401   .     A
C441   N460    1.376   .     A
C442   N459    1.376   .     A
C442   C551    1.425   .     S
C443   N460    1.376   .     A
C444   N459    1.376   .     A
C444   C549    1.425   .     S
C445   O462    1.301   .     A
C445   O463    1.301   .     A
C446   O465    1.297   .     A
C446   O468    1.297   .     A
C446   C448    1.409   .     S
C447   O466    1.297   .     A
C447   O467    1.297   .     A
C447   C449    1.409   .     S
C449   C772    1.190   .     S
C450   H455    1.083   .     S
C450   C524    1.383   1_455 S
C451   H456    1.083   .     S
C451   C474    1.383   .     S
C452   H457    1.083   .     S
C452   C486    1.383   .     S
Cu453  O467    1.931   .     S
Cu453  O465    1.931   .     S
Cu453  N459    2.036   .     S
Cu453  Cu454   2.709   .     S
Cu453  O463    1.965   .     S
Cu453  O461    1.965   .     S
Cu454  O468    1.931   .     S
Cu454  N460    2.036   .     S
Cu454  O464    1.965   .     S
Cu454  O466    1.931   .     S
Cu454  O462    1.965   .     S
Br469  C477    1.928   .     S
Br470  C478    1.928   .     S
Br471  C479    1.928   .     S
Br472  C480    1.928   .     S
C473   C476    1.451   .     S
C473   O500    1.301   .     A
C473   O497    1.301   .     A
C474   H494    1.083   .     S
C474   C476    1.401   .     A
C475   C487    1.401   .     A
C475   C481    1.451   .     S
C475   C488    1.401   .     A
C476   C486    1.401   .     A
C477   N496    1.376   .     A
C478   N495    1.376   .     A
C478   C587    1.425   .     S
C479   N496    1.376   .     A
C480   N495    1.376   .     A
C480   C585    1.425   .     S
C481   O498    1.301   .     A
C481   O499    1.301   .     A
C482   O501    1.297   .     A
C482   O504    1.297   .     A
C482   C484    1.409   .     S
C483   O502    1.297   .     A
C483   O503    1.297   .     A
C483   C485    1.409   .     S
C485   C808    1.190   .     S
C486   H491    1.083   .     S
C487   H492    1.083   .     S
C487   C510    1.383   .     S
C488   H493    1.083   .     S
C488   C522    1.383   .     S
Cu489  O503    1.931   .     S
Cu489  O501    1.931   .     S
Cu489  N495    2.036   .     S
Cu489  Cu490   2.709   .     S
Cu489  O499    1.965   .     S
Cu489  O497    1.965   .     S
Cu490  O504    1.931   .     S
Cu490  N496    2.036   .     S
Cu490  O500    1.965   .     S
Cu490  O502    1.931   .     S
Cu490  O498    1.965   .     S
Br505  C513    1.928   .     S
Br506  C514    1.928   .     S
Br507  C515    1.928   .     S
Br508  C516    1.928   .     S
C509   C512    1.451   .     S
C509   O536    1.301   .     A
C509   O533    1.301   .     A
C510   H530    1.083   .     S
C510   C512    1.401   .     A
C511   C523    1.401   .     A
C511   C517    1.451   .     S
C511   C524    1.401   .     A
C512   C522    1.401   .     A
C513   N532    1.376   .     A
C514   N531    1.376   .     A
C514   C623    1.425   .     S
C515   N532    1.376   .     A
C516   N531    1.376   .     A
C516   C621    1.425   .     S
C517   O534    1.301   .     A
C517   O535    1.301   .     A
C518   O537    1.297   .     A
C518   O540    1.297   .     A
C518   C520    1.409   .     S
C519   O538    1.297   .     A
C519   O539    1.297   .     A
C519   C521    1.409   .     S
C521   C844    1.190   .     S
C522   H527    1.083   .     S
C523   H528    1.083   .     S
C523   C438    1.383   1_655 S
C524   H529    1.083   .     S
C524   C450    1.383   1_655 S
Cu525  O539    1.931   .     S
Cu525  O537    1.931   .     S
Cu525  N531    2.036   .     S
Cu525  Cu526   2.709   .     S
Cu525  O535    1.965   .     S
Cu525  O533    1.965   .     S
Cu526  O540    1.931   .     S
Cu526  N532    2.036   .     S
Cu526  O536    1.965   .     S
Cu526  O538    1.931   .     S
Cu526  O534    1.965   .     S
Br541  C549    1.928   .     S
Br542  C550    1.928   .     S
Br543  C551    1.928   .     S
Br544  C552    1.928   .     S
C545   C548    1.451   .     S
C545   O572    1.301   .     A
C545   O569    1.301   .     A
C546   H566    1.083   .     S
C546   C548    1.401   .     A
C546   C631    1.383   1_455 S
C547   C559    1.401   .     A
C547   C553    1.451   .     S
C547   C560    1.401   .     A
C548   C558    1.401   .     A
C549   N568    1.376   .     A
C550   N567    1.376   .     A
C550   C335    1.425   1_565 S
C551   N568    1.376   .     A
C552   N567    1.376   .     A
C552   C333    1.425   1_565 S
C553   O570    1.301   .     A
C553   O571    1.301   .     A
C554   O573    1.297   .     A
C554   O576    1.297   .     A
C554   C556    1.409   .     S
C555   O574    1.297   .     A
C555   O575    1.297   .     A
C555   C557    1.409   .     S
C557   C880    1.190   .     S
C558   H563    1.083   .     S
C558   C632    1.383   1_455 S
C559   H564    1.083   .     S
C559   C582    1.383   .     S
C560   H565    1.083   .     S
C560   C594    1.383   .     S
Cu561  O575    1.931   .     S
Cu561  O573    1.931   .     S
Cu561  N567    2.036   .     S
Cu561  Cu562   2.709   .     S
Cu561  O571    1.965   .     S
Cu561  O569    1.965   .     S
Cu562  O576    1.931   .     S
Cu562  N568    2.036   .     S
Cu562  O572    1.965   .     S
Cu562  O574    1.931   .     S
Cu562  O570    1.965   .     S
Br577  C585    1.928   .     S
Br578  C586    1.928   .     S
Br579  C587    1.928   .     S
Br580  C588    1.928   .     S
C581   C584    1.451   .     S
C581   O608    1.301   .     A
C581   O605    1.301   .     A
C582   H602    1.083   .     S
C582   C584    1.401   .     A
C583   C595    1.401   .     A
C583   C589    1.451   .     S
C583   C596    1.401   .     A
C584   C594    1.401   .     A
C585   N604    1.376   .     A
C586   N603    1.376   .     A
C586   C371    1.425   1_565 S
C587   N604    1.376   .     A
C588   N603    1.376   .     A
C588   C369    1.425   1_565 S
C589   O606    1.301   .     A
C589   O607    1.301   .     A
C590   O609    1.297   .     A
C590   O612    1.297   .     A
C590   C592    1.409   .     S
C591   O610    1.297   .     A
C591   O611    1.297   .     A
C591   C593    1.409   .     S
C593   C916    1.190   .     S
C594   H599    1.083   .     S
C595   H600    1.083   .     S
C595   C618    1.383   .     S
C596   H601    1.083   .     S
C596   C630    1.383   .     S
Cu597  O611    1.931   .     S
Cu597  O609    1.931   .     S
Cu597  N603    2.036   .     S
Cu597  Cu598   2.709   .     S
Cu597  O607    1.965   .     S
Cu597  O605    1.965   .     S
Cu598  O612    1.931   .     S
Cu598  N604    2.036   .     S
Cu598  O608    1.965   .     S
Cu598  O610    1.931   .     S
Cu598  O606    1.965   .     S
Br613  C621    1.928   .     S
Br614  C622    1.928   .     S
Br615  C623    1.928   .     S
Br616  C624    1.928   .     S
C617   C620    1.451   .     S
C617   O644    1.301   .     A
C617   O641    1.301   .     A
C618   H638    1.083   .     S
C618   C620    1.401   .     A
C619   C631    1.401   .     A
C619   C625    1.451   .     S
C619   C632    1.401   .     A
C620   C630    1.401   .     A
C621   N640    1.376   .     A
C622   N639    1.376   .     A
C622   C407    1.425   1_565 S
C623   N640    1.376   .     A
C624   N639    1.376   .     A
C624   C405    1.425   1_565 S
C625   O642    1.301   .     A
C625   O643    1.301   .     A
C626   O645    1.297   .     A
C626   O648    1.297   .     A
C626   C628    1.409   .     S
C627   O646    1.297   .     A
C627   O647    1.297   .     A
C627   C629    1.409   .     S
C629   C952    1.190   .     S
C630   H635    1.083   .     S
C631   H636    1.083   .     S
C631   C546    1.383   1_655 S
C632   H637    1.083   .     S
C632   C558    1.383   1_655 S
Cu633  O647    1.931   .     S
Cu633  O645    1.931   .     S
Cu633  N639    2.036   .     S
Cu633  Cu634   2.709   .     S
Cu633  O643    1.965   .     S
Cu633  O641    1.965   .     S
Cu634  O648    1.931   .     S
Cu634  N640    2.036   .     S
Cu634  O644    1.965   .     S
Cu634  O646    1.931   .     S
Cu634  O642    1.965   .     S
Br649  C657    1.928   .     S
Br650  C658    1.928   .     S
Br651  C659    1.928   .     S
Br652  C660    1.928   .     S
C653   C656    1.451   .     S
C653   O680    1.301   .     A
C653   O677    1.301   .     A
C654   H674    1.083   .     S
C654   C656    1.401   .     A
C654   C739    1.383   1_455 S
C655   C667    1.401   .     A
C655   C661    1.451   .     S
C655   C668    1.401   .     A
C656   C666    1.401   .     A
C657   N676    1.376   .     A
C657   C876    1.425   1_545 S
C658   N675    1.376   .     A
C658   C767    1.425   .     S
C659   N676    1.376   .     A
C659   C874    1.425   1_545 S
C660   N675    1.376   .     A
C660   C765    1.425   .     S
C661   O678    1.301   .     A
C661   O679    1.301   .     A
C662   O681    1.297   .     A
C662   O684    1.297   .     A
C662   C664    1.409   .     S
C663   O682    1.297   .     A
C663   O683    1.297   .     A
C663   C665    1.409   .     S
C665   C16     1.190   1_556 S
C666   H671    1.083   .     S
C666   C740    1.383   1_455 S
C667   H672    1.083   .     S
C667   C690    1.383   .     S
C668   H673    1.083   .     S
C668   C702    1.383   .     S
Cu669  O683    1.931   .     S
Cu669  O681    1.931   .     S
Cu669  N675    2.036   .     S
Cu669  Cu670   2.709   .     S
Cu669  O679    1.965   .     S
Cu669  O677    1.965   .     S
Cu670  O684    1.931   .     S
Cu670  N676    2.036   .     S
Cu670  O680    1.965   .     S
Cu670  O682    1.931   .     S
Cu670  O678    1.965   .     S
Br685  C693    1.928   .     S
Br686  C694    1.928   .     S
Br687  C695    1.928   .     S
Br688  C696    1.928   .     S
C689   C692    1.451   .     S
C689   O716    1.301   .     A
C689   O713    1.301   .     A
C690   H710    1.083   .     S
C690   C692    1.401   .     A
C691   C703    1.401   .     A
C691   C697    1.451   .     S
C691   C704    1.401   .     A
C692   C702    1.401   .     A
C693   N712    1.376   .     A
C693   C912    1.425   1_545 S
C694   N711    1.376   .     A
C694   C803    1.425   .     S
C695   N712    1.376   .     A
C695   C910    1.425   1_545 S
C696   N711    1.376   .     A
C696   C801    1.425   .     S
C697   O714    1.301   .     A
C697   O715    1.301   .     A
C698   O717    1.297   .     A
C698   O720    1.297   .     A
C698   C700    1.409   .     S
C699   O718    1.297   .     A
C699   O719    1.297   .     A
C699   C701    1.409   .     S
C701   C52     1.190   1_556 S
C702   H707    1.083   .     S
C703   H708    1.083   .     S
C703   C726    1.383   .     S
C704   H709    1.083   .     S
C704   C738    1.383   .     S
Cu705  O719    1.931   .     S
Cu705  O717    1.931   .     S
Cu705  N711    2.036   .     S
Cu705  Cu706   2.709   .     S
Cu705  O715    1.965   .     S
Cu705  O713    1.965   .     S
Cu706  O720    1.931   .     S
Cu706  N712    2.036   .     S
Cu706  O716    1.965   .     S
Cu706  O718    1.931   .     S
Cu706  O714    1.965   .     S
Br721  C729    1.928   .     S
Br722  C730    1.928   .     S
Br723  C731    1.928   .     S
Br724  C732    1.928   .     S
C725   C728    1.451   .     S
C725   O752    1.301   .     A
C725   O749    1.301   .     A
C726   H746    1.083   .     S
C726   C728    1.401   .     A
C727   C739    1.401   .     A
C727   C733    1.451   .     S
C727   C740    1.401   .     A
C728   C738    1.401   .     A
C729   N748    1.376   .     A
C729   C948    1.425   1_545 S
C730   N747    1.376   .     A
C730   C839    1.425   .     S
C731   N748    1.376   .     A
C731   C946    1.425   1_545 S
C732   N747    1.376   .     A
C732   C837    1.425   .     S
C733   O750    1.301   .     A
C733   O751    1.301   .     A
C734   O753    1.297   .     A
C734   O756    1.297   .     A
C734   C736    1.409   .     S
C735   O754    1.297   .     A
C735   O755    1.297   .     A
C735   C737    1.409   .     S
C737   C88     1.190   1_556 S
C738   H743    1.083   .     S
C739   H744    1.083   .     S
C739   C654    1.383   1_655 S
C740   H745    1.083   .     S
C740   C666    1.383   1_655 S
Cu741  O755    1.931   .     S
Cu741  O753    1.931   .     S
Cu741  N747    2.036   .     S
Cu741  Cu742   2.709   .     S
Cu741  O751    1.965   .     S
Cu741  O749    1.965   .     S
Cu742  O756    1.931   .     S
Cu742  N748    2.036   .     S
Cu742  O752    1.965   .     S
Cu742  O754    1.931   .     S
Cu742  O750    1.965   .     S
Br757  C765    1.928   .     S
Br758  C766    1.928   .     S
Br759  C767    1.928   .     S
Br760  C768    1.928   .     S
C761   C764    1.451   .     S
C761   O788    1.301   .     A
C761   O785    1.301   .     A
C762   H782    1.083   .     S
C762   C764    1.401   .     A
C762   C847    1.383   1_455 S
C763   C775    1.401   .     A
C763   C769    1.451   .     S
C763   C776    1.401   .     A
C764   C774    1.401   .     A
C765   N784    1.376   .     A
C766   N783    1.376   .     A
C766   C875    1.425   .     S
C767   N784    1.376   .     A
C768   N783    1.376   .     A
C768   C873    1.425   .     S
C769   O786    1.301   .     A
C769   O787    1.301   .     A
C770   O789    1.297   .     A
C770   O792    1.297   .     A
C770   C772    1.409   .     S
C771   O790    1.297   .     A
C771   O791    1.297   .     A
C771   C773    1.409   .     S
C773   C124    1.190   1_556 S
C774   H779    1.083   .     S
C774   C848    1.383   1_455 S
C775   H780    1.083   .     S
C775   C798    1.383   .     S
C776   H781    1.083   .     S
C776   C810    1.383   .     S
Cu777  O791    1.931   .     S
Cu777  O789    1.931   .     S
Cu777  N783    2.036   .     S
Cu777  Cu778   2.709   .     S
Cu777  O787    1.965   .     S
Cu777  O785    1.965   .     S
Cu778  O792    1.931   .     S
Cu778  N784    2.036   .     S
Cu778  O788    1.965   .     S
Cu778  O790    1.931   .     S
Cu778  O786    1.965   .     S
Br793  C801    1.928   .     S
Br794  C802    1.928   .     S
Br795  C803    1.928   .     S
Br796  C804    1.928   .     S
C797   C800    1.451   .     S
C797   O824    1.301   .     A
C797   O821    1.301   .     A
C798   H818    1.083   .     S
C798   C800    1.401   .     A
C799   C811    1.401   .     A
C799   C805    1.451   .     S
C799   C812    1.401   .     A
C800   C810    1.401   .     A
C801   N820    1.376   .     A
C802   N819    1.376   .     A
C802   C911    1.425   .     S
C803   N820    1.376   .     A
C804   N819    1.376   .     A
C804   C909    1.425   .     S
C805   O822    1.301   .     A
C805   O823    1.301   .     A
C806   O825    1.297   .     A
C806   O828    1.297   .     A
C806   C808    1.409   .     S
C807   O826    1.297   .     A
C807   O827    1.297   .     A
C807   C809    1.409   .     S
C809   C160    1.190   1_556 S
C810   H815    1.083   .     S
C811   H816    1.083   .     S
C811   C834    1.383   .     S
C812   H817    1.083   .     S
C812   C846    1.383   .     S
Cu813  O827    1.931   .     S
Cu813  O825    1.931   .     S
Cu813  N819    2.036   .     S
Cu813  Cu814   2.709   .     S
Cu813  O823    1.965   .     S
Cu813  O821    1.965   .     S
Cu814  O828    1.931   .     S
Cu814  N820    2.036   .     S
Cu814  O824    1.965   .     S
Cu814  O826    1.931   .     S
Cu814  O822    1.965   .     S
Br829  C837    1.928   .     S
Br830  C838    1.928   .     S
Br831  C839    1.928   .     S
Br832  C840    1.928   .     S
C833   C836    1.451   .     S
C833   O860    1.301   .     A
C833   O857    1.301   .     A
C834   H854    1.083   .     S
C834   C836    1.401   .     A
C835   C847    1.401   .     A
C835   C841    1.451   .     S
C835   C848    1.401   .     A
C836   C846    1.401   .     A
C837   N856    1.376   .     A
C838   N855    1.376   .     A
C838   C947    1.425   .     S
C839   N856    1.376   .     A
C840   N855    1.376   .     A
C840   C945    1.425   .     S
C841   O858    1.301   .     A
C841   O859    1.301   .     A
C842   O861    1.297   .     A
C842   O864    1.297   .     A
C842   C844    1.409   .     S
C843   O862    1.297   .     A
C843   O863    1.297   .     A
C843   C845    1.409   .     S
C845   C196    1.190   1_556 S
C846   H851    1.083   .     S
C847   H852    1.083   .     S
C847   C762    1.383   1_655 S
C848   H853    1.083   .     S
C848   C774    1.383   1_655 S
Cu849  O863    1.931   .     S
Cu849  O861    1.931   .     S
Cu849  N855    2.036   .     S
Cu849  Cu850   2.709   .     S
Cu849  O859    1.965   .     S
Cu849  O857    1.965   .     S
Cu850  O864    1.931   .     S
Cu850  N856    2.036   .     S
Cu850  O860    1.965   .     S
Cu850  O862    1.931   .     S
Cu850  O858    1.965   .     S
Br865  C873    1.928   .     S
Br866  C874    1.928   .     S
Br867  C875    1.928   .     S
Br868  C876    1.928   .     S
C869   C872    1.451   .     S
C869   O896    1.301   .     A
C869   O893    1.301   .     A
C870   H890    1.083   .     S
C870   C872    1.401   .     A
C870   C955    1.383   1_455 S
C871   C883    1.401   .     A
C871   C877    1.451   .     S
C871   C884    1.401   .     A
C872   C882    1.401   .     A
C873   N892    1.376   .     A
C874   N891    1.376   .     A
C874   C659    1.425   1_565 S
C875   N892    1.376   .     A
C876   N891    1.376   .     A
C876   C657    1.425   1_565 S
C877   O894    1.301   .     A
C877   O895    1.301   .     A
C878   O897    1.297   .     A
C878   O900    1.297   .     A
C878   C880    1.409   .     S
C879   O898    1.297   .     A
C879   O899    1.297   .     A
C879   C881    1.409   .     S
C881   C232    1.190   1_556 S
C882   H887    1.083   .     S
C882   C956    1.383   1_455 S
C883   H888    1.083   .     S
C883   C906    1.383   .     S
C884   H889    1.083   .     S
C884   C918    1.383   .     S
Cu885  O899    1.931   .     S
Cu885  O897    1.931   .     S
Cu885  N891    2.036   .     S
Cu885  Cu886   2.709   .     S
Cu885  O895    1.965   .     S
Cu885  O893    1.965   .     S
Cu886  O900    1.931   .     S
Cu886  N892    2.036   .     S
Cu886  O896    1.965   .     S
Cu886  O898    1.931   .     S
Cu886  O894    1.965   .     S
Br901  C909    1.928   .     S
Br902  C910    1.928   .     S
Br903  C911    1.928   .     S
Br904  C912    1.928   .     S
C905   C908    1.451   .     S
C905   O932    1.301   .     A
C905   O929    1.301   .     A
C906   H926    1.083   .     S
C906   C908    1.401   .     A
C907   C919    1.401   .     A
C907   C913    1.451   .     S
C907   C920    1.401   .     A
C908   C918    1.401   .     A
C909   N928    1.376   .     A
C910   N927    1.376   .     A
C910   C695    1.425   1_565 S
C911   N928    1.376   .     A
C912   N927    1.376   .     A
C912   C693    1.425   1_565 S
C913   O930    1.301   .     A
C913   O931    1.301   .     A
C914   O933    1.297   .     A
C914   O936    1.297   .     A
C914   C916    1.409   .     S
C915   O934    1.297   .     A
C915   O935    1.297   .     A
C915   C917    1.409   .     S
C917   C268    1.190   1_556 S
C918   H923    1.083   .     S
C919   H924    1.083   .     S
C919   C942    1.383   .     S
C920   H925    1.083   .     S
C920   C954    1.383   .     S
Cu921  O935    1.931   .     S
Cu921  O933    1.931   .     S
Cu921  N927    2.036   .     S
Cu921  Cu922   2.709   .     S
Cu921  O931    1.965   .     S
Cu921  O929    1.965   .     S
Cu922  O936    1.931   .     S
Cu922  N928    2.036   .     S
Cu922  O932    1.965   .     S
Cu922  O934    1.931   .     S
Cu922  O930    1.965   .     S
Br937  C945    1.928   .     S
Br938  C946    1.928   .     S
Br939  C947    1.928   .     S
Br940  C948    1.928   .     S
C941   C944    1.451   .     S
C941   O968    1.301   .     A
C941   O965    1.301   .     A
C942   H962    1.083   .     S
C942   C944    1.401   .     A
C943   C955    1.401   .     A
C943   C949    1.451   .     S
C943   C956    1.401   .     A
C944   C954    1.401   .     A
C945   N964    1.376   .     A
C946   N963    1.376   .     A
C946   C731    1.425   1_565 S
C947   N964    1.376   .     A
C948   N963    1.376   .     A
C948   C729    1.425   1_565 S
C949   O966    1.301   .     A
C949   O967    1.301   .     A
C950   O969    1.297   .     A
C950   O972    1.297   .     A
C950   C952    1.409   .     S
C951   O970    1.297   .     A
C951   O971    1.297   .     A
C951   C953    1.409   .     S
C953   C304    1.190   1_556 S
C954   H959    1.083   .     S
C955   H960    1.083   .     S
C955   C870    1.383   1_655 S
C956   H961    1.083   .     S
C956   C882    1.383   1_655 S
Cu957  O971    1.931   .     S
Cu957  O969    1.931   .     S
Cu957  N963    2.036   .     S
Cu957  Cu958   2.709   .     S
Cu957  O967    1.965   .     S
Cu957  O965    1.965   .     S
Cu958  O972    1.931   .     S
Cu958  N964    2.036   .     S
Cu958  O968    1.965   .     S
Cu958  O970    1.931   .     S
Cu958  O966    1.965   .     S
