data_str_m2_o1_o17_pcu_sym.151
_audit_creation_date              2020-01-03
_audit_creation_method            'Materials Studio'
_symmetry_space_group_name_H-M    'P1'
_symmetry_Int_Tables_number       1
_symmetry_cell_setting            triclinic
loop_
_symmetry_equiv_pos_as_xyz
  x,y,z
_cell_length_a                    32.4653
_cell_length_b                    28.4720
_cell_length_c                    30.2585
_cell_angle_alpha                 90.9739
_cell_angle_beta                  90.4093
_cell_angle_gamma                 90.0137
loop_
_atom_site_label
_atom_site_type_symbol
_atom_site_fract_x
_atom_site_fract_y
_atom_site_fract_z
_atom_site_U_iso_or_equiv
_atom_site_adp_type
_atom_site_occupancy
C1     C     0.08733   0.16666   0.24996   0.00000  Uiso   1.00
C2     C     0.24600   0.16667   0.25004   0.00000  Uiso   1.00
C3     C     0.12534   0.23610   0.02792   0.00000  Uiso   1.00
C4     C     0.20800   0.09724   0.47208   0.00000  Uiso   1.00
C5     C     0.02134   0.12478   0.25715   0.00000  Uiso   1.00
C6     C     0.31199   0.20855   0.24285   0.00000  Uiso   1.00
C7     C     0.31207   0.12482   0.25729   0.00000  Uiso   1.00
C8     C     0.02126   0.20851   0.24271   0.00000  Uiso   1.00
C9     C     0.29060   0.16668   0.25006   0.00000  Uiso   1.00
C10    C     0.04274   0.16665   0.24994   0.00000  Uiso   1.00
C11    C     0.13775   0.02440   0.22641   0.00000  Uiso   1.00
C12    C     0.19558   0.30893   0.27359   0.00000  Uiso   1.00
C13    C     0.19558   0.02526   0.27359   0.00000  Uiso   1.00
C14    C     0.13776   0.30807   0.22641   0.00000  Uiso   1.00
C15    C     0.16820   0.16616   0.16438   0.00000  Uiso   1.00
C16    C     0.16513   0.16717   0.33562   0.00000  Uiso   1.00
C17    C     0.18293   0.13218   0.40598   0.00000  Uiso   1.00
C18    C     0.15040   0.20115   0.09403   0.00000  Uiso   1.00
C19    C     0.16315   0.16830   0.38400   0.00000  Uiso   1.00
C20    C     0.17019   0.16503   0.11600   0.00000  Uiso   1.00
C21    C     0.14319   0.20491   0.40802   0.00000  Uiso   1.00
C22    C     0.19014   0.12842   0.09198   0.00000  Uiso   1.00
C23    C     0.14291   0.20390   0.45521   0.00000  Uiso   1.00
C24    C     0.19042   0.12944   0.04479   0.00000  Uiso   1.00
C25    C     0.16533   0.16741   0.47669   0.00000  Uiso   1.00
C26    C     0.16801   0.16592   0.02331   0.00000  Uiso   1.00
C27    C     0.18508   0.13209   0.45163   0.00000  Uiso   1.00
C28    C     0.14826   0.20125   0.04837   0.00000  Uiso   1.00
C29    C     0.12145   0.23735   0.48221   0.00000  Uiso   1.00
C30    C     0.21188   0.09599   0.01779   0.00000  Uiso   1.00
Cu31   Cu    0.16667   0.21355   0.25000   0.00000  Uiso   1.00
Cu32   Cu    0.16667   0.11978   0.25000   0.00000  Uiso   1.00
H33    H     0.19846   0.10471   0.38716   0.00000  Uiso   1.00
H34    H     0.13488   0.22862   0.11284   0.00000  Uiso   1.00
H35    H     0.10934   0.26218   0.04804   0.00000  Uiso   1.00
H36    H     0.22399   0.07116   0.45196   0.00000  Uiso   1.00
H37    H     0.03744   0.09211   0.26296   0.00000  Uiso   1.00
H38    H     0.29589   0.24122   0.23704   0.00000  Uiso   1.00
H39    H     0.29602   0.09219   0.26324   0.00000  Uiso   1.00
H40    H     0.03731   0.24114   0.23676   0.00000  Uiso   1.00
H41    H     0.11476   0.04282   0.20733   0.00000  Uiso   1.00
H42    H     0.21857   0.29052   0.29267   0.00000  Uiso   1.00
H43    H     0.21860   0.04437   0.29264   0.00000  Uiso   1.00
H44    H     0.11473   0.28897   0.20736   0.00000  Uiso   1.00
N45    N     0.16667   0.28402   0.25000   0.00000  Uiso   1.00
N46    N     0.16667   0.04931   0.25000   0.00000  Uiso   1.00
O47    O     0.10655   0.20625   0.25000   0.00000  Uiso   1.00
O48    O     0.22679   0.12709   0.25000   0.00000  Uiso   1.00
O49    O     0.22679   0.20625   0.25001   0.00000  Uiso   1.00
O50    O     0.10655   0.12709   0.25000   0.00000  Uiso   1.00
O51    O     0.16666   0.20627   0.18513   0.00000  Uiso   1.00
O52    O     0.16668   0.12707   0.31487   0.00000  Uiso   1.00
O53    O     0.16668   0.20627   0.31487   0.00000  Uiso   1.00
O54    O     0.16666   0.12707   0.18513   0.00000  Uiso   1.00
C55    C     0.12456   0.24430   0.38331   0.00000  Uiso   1.00
C56    C     0.14509   0.28769   0.38144   0.00000  Uiso   1.00
C57    C     0.12783   0.32468   0.35778   0.00000  Uiso   1.00
C58    C     0.09042   0.31837   0.33533   0.00000  Uiso   1.00
C59    C     0.07006   0.27514   0.33668   0.00000  Uiso   1.00
C60    C     0.08706   0.23809   0.36049   0.00000  Uiso   1.00
H61    H     0.17424   0.29282   0.39848   0.00000  Uiso   1.00
H62    H     0.14355   0.02483   0.35671   0.00000  Uiso   1.00
H63    H     0.07723   0.01364   0.31683   0.00000  Uiso   1.00
H64    H     0.04105   0.27040   0.31937   0.00000  Uiso   1.00
H65    H     0.07112   0.20470   0.36120   0.00000  Uiso   1.00
C66    C     0.20878   0.08904   0.11669   0.00000  Uiso   1.00
C67    C     0.24628   0.09524   0.13951   0.00000  Uiso   1.00
C68    C     0.26328   0.05819   0.16332   0.00000  Uiso   1.00
C69    C     0.24292   0.01496   0.16467   0.00000  Uiso   1.00
C70    C     0.20550   0.00866   0.14222   0.00000  Uiso   1.00
C71    C     0.18824   0.04565   0.11856   0.00000  Uiso   1.00
H72    H     0.26222   0.12864   0.13880   0.00000  Uiso   1.00
H73    H     0.29228   0.06293   0.18063   0.00000  Uiso   1.00
H74    H     0.25611   0.31969   0.18317   0.00000  Uiso   1.00
H75    H     0.18978   0.30850   0.14329   0.00000  Uiso   1.00
H76    H     0.15909   0.04052   0.10152   0.00000  Uiso   1.00
C77    C     0.09303   0.27218   0.46584   0.00000  Uiso   1.00
N78    N     0.07009   0.30018   0.45332   0.00000  Uiso   1.00
C79    C     0.24030   0.06115   0.03416   0.00000  Uiso   1.00
N80    N     0.26325   0.03315   0.04668   0.00000  Uiso   1.00
C81    C     0.42067   0.16666   0.24996   0.00000  Uiso   1.00
C82    C     0.57934   0.16667   0.25004   0.00000  Uiso   1.00
C83    C     0.45867   0.23610   0.02792   0.00000  Uiso   1.00
C84    C     0.54133   0.09724   0.47208   0.00000  Uiso   1.00
C85    C     0.35467   0.12478   0.25715   0.00000  Uiso   1.00
C86    C     0.64533   0.20855   0.24285   0.00000  Uiso   1.00
C87    C     0.64540   0.12482   0.25729   0.00000  Uiso   1.00
C88    C     0.35460   0.20851   0.24271   0.00000  Uiso   1.00
C89    C     0.62393   0.16668   0.25006   0.00000  Uiso   1.00
C90    C     0.37607   0.16665   0.24994   0.00000  Uiso   1.00
C91    C     0.47109   0.02440   0.22641   0.00000  Uiso   1.00
C92    C     0.52891   0.30893   0.27359   0.00000  Uiso   1.00
C93    C     0.52891   0.02526   0.27359   0.00000  Uiso   1.00
C94    C     0.47109   0.30807   0.22641   0.00000  Uiso   1.00
C95    C     0.50154   0.16616   0.16438   0.00000  Uiso   1.00
C96    C     0.49846   0.16717   0.33562   0.00000  Uiso   1.00
C97    C     0.51627   0.13218   0.40598   0.00000  Uiso   1.00
C98    C     0.48373   0.20115   0.09403   0.00000  Uiso   1.00
C99    C     0.49648   0.16830   0.38400   0.00000  Uiso   1.00
C100   C     0.50352   0.16503   0.11600   0.00000  Uiso   1.00
C101   C     0.47652   0.20491   0.40802   0.00000  Uiso   1.00
C102   C     0.52348   0.12842   0.09198   0.00000  Uiso   1.00
C103   C     0.47625   0.20390   0.45521   0.00000  Uiso   1.00
C104   C     0.52375   0.12944   0.04479   0.00000  Uiso   1.00
C105   C     0.49866   0.16741   0.47669   0.00000  Uiso   1.00
C106   C     0.50134   0.16592   0.02331   0.00000  Uiso   1.00
C107   C     0.51841   0.13209   0.45163   0.00000  Uiso   1.00
C108   C     0.48159   0.20125   0.04837   0.00000  Uiso   1.00
C109   C     0.45479   0.23735   0.48221   0.00000  Uiso   1.00
C110   C     0.54521   0.09599   0.01779   0.00000  Uiso   1.00
Cu111  Cu    0.50000   0.21355   0.25000   0.00000  Uiso   1.00
Cu112  Cu    0.50000   0.11978   0.25000   0.00000  Uiso   1.00
H113   H     0.53179   0.10471   0.38716   0.00000  Uiso   1.00
H114   H     0.46821   0.22862   0.11284   0.00000  Uiso   1.00
H115   H     0.44267   0.26218   0.04804   0.00000  Uiso   1.00
H116   H     0.55733   0.07116   0.45196   0.00000  Uiso   1.00
H117   H     0.37078   0.09211   0.26296   0.00000  Uiso   1.00
H118   H     0.62922   0.24122   0.23704   0.00000  Uiso   1.00
H119   H     0.62936   0.09219   0.26324   0.00000  Uiso   1.00
H120   H     0.37064   0.24114   0.23676   0.00000  Uiso   1.00
H121   H     0.44809   0.04282   0.20733   0.00000  Uiso   1.00
H122   H     0.55191   0.29052   0.29267   0.00000  Uiso   1.00
H123   H     0.55194   0.04437   0.29264   0.00000  Uiso   1.00
H124   H     0.44807   0.28897   0.20736   0.00000  Uiso   1.00
N125   N     0.50000   0.28402   0.25000   0.00000  Uiso   1.00
N126   N     0.50000   0.04931   0.25000   0.00000  Uiso   1.00
O127   O     0.43988   0.20625   0.25000   0.00000  Uiso   1.00
O128   O     0.56012   0.12709   0.25000   0.00000  Uiso   1.00
O129   O     0.56012   0.20625   0.25001   0.00000  Uiso   1.00
O130   O     0.43988   0.12709   0.25000   0.00000  Uiso   1.00
O131   O     0.49999   0.20627   0.18513   0.00000  Uiso   1.00
O132   O     0.50001   0.12707   0.31487   0.00000  Uiso   1.00
O133   O     0.50001   0.20627   0.31487   0.00000  Uiso   1.00
O134   O     0.49999   0.12707   0.18513   0.00000  Uiso   1.00
C135   C     0.45789   0.24430   0.38331   0.00000  Uiso   1.00
C136   C     0.47843   0.28769   0.38144   0.00000  Uiso   1.00
C137   C     0.46117   0.32468   0.35778   0.00000  Uiso   1.00
C138   C     0.42375   0.31837   0.33533   0.00000  Uiso   1.00
C139   C     0.40339   0.27514   0.33668   0.00000  Uiso   1.00
C140   C     0.42039   0.23809   0.36049   0.00000  Uiso   1.00
H141   H     0.50757   0.29282   0.39848   0.00000  Uiso   1.00
H142   H     0.47688   0.02483   0.35671   0.00000  Uiso   1.00
H143   H     0.41056   0.01364   0.31683   0.00000  Uiso   1.00
H144   H     0.37438   0.27040   0.31937   0.00000  Uiso   1.00
H145   H     0.40445   0.20470   0.36120   0.00000  Uiso   1.00
C146   C     0.54211   0.08904   0.11669   0.00000  Uiso   1.00
C147   C     0.57961   0.09524   0.13951   0.00000  Uiso   1.00
C148   C     0.59661   0.05819   0.16332   0.00000  Uiso   1.00
C149   C     0.57625   0.01496   0.16467   0.00000  Uiso   1.00
C150   C     0.53883   0.00866   0.14222   0.00000  Uiso   1.00
C151   C     0.52157   0.04565   0.11856   0.00000  Uiso   1.00
H152   H     0.59555   0.12864   0.13880   0.00000  Uiso   1.00
H153   H     0.62562   0.06293   0.18063   0.00000  Uiso   1.00
H154   H     0.58944   0.31969   0.18317   0.00000  Uiso   1.00
H155   H     0.52312   0.30850   0.14329   0.00000  Uiso   1.00
H156   H     0.49243   0.04052   0.10152   0.00000  Uiso   1.00
C157   C     0.42637   0.27218   0.46584   0.00000  Uiso   1.00
N158   N     0.40342   0.30018   0.45332   0.00000  Uiso   1.00
C159   C     0.57363   0.06115   0.03416   0.00000  Uiso   1.00
N160   N     0.59658   0.03315   0.04668   0.00000  Uiso   1.00
C161   C     0.75400   0.16666   0.24996   0.00000  Uiso   1.00
C162   C     0.91267   0.16667   0.25004   0.00000  Uiso   1.00
C163   C     0.79200   0.23610   0.02792   0.00000  Uiso   1.00
C164   C     0.87466   0.09724   0.47208   0.00000  Uiso   1.00
C165   C     0.68801   0.12478   0.25715   0.00000  Uiso   1.00
C166   C     0.97866   0.20855   0.24285   0.00000  Uiso   1.00
C167   C     0.97874   0.12482   0.25729   0.00000  Uiso   1.00
C168   C     0.68793   0.20851   0.24271   0.00000  Uiso   1.00
C169   C     0.95726   0.16668   0.25006   0.00000  Uiso   1.00
C170   C     0.70940   0.16665   0.24994   0.00000  Uiso   1.00
C171   C     0.80442   0.02440   0.22641   0.00000  Uiso   1.00
C172   C     0.86225   0.30893   0.27359   0.00000  Uiso   1.00
C173   C     0.86224   0.02526   0.27359   0.00000  Uiso   1.00
C174   C     0.80442   0.30807   0.22641   0.00000  Uiso   1.00
C175   C     0.83487   0.16616   0.16438   0.00000  Uiso   1.00
C176   C     0.83180   0.16717   0.33562   0.00000  Uiso   1.00
C177   C     0.84960   0.13218   0.40598   0.00000  Uiso   1.00
C178   C     0.81707   0.20115   0.09403   0.00000  Uiso   1.00
C179   C     0.82981   0.16830   0.38400   0.00000  Uiso   1.00
C180   C     0.83686   0.16503   0.11600   0.00000  Uiso   1.00
C181   C     0.80986   0.20491   0.40802   0.00000  Uiso   1.00
C182   C     0.85681   0.12842   0.09198   0.00000  Uiso   1.00
C183   C     0.80958   0.20390   0.45521   0.00000  Uiso   1.00
C184   C     0.85709   0.12944   0.04479   0.00000  Uiso   1.00
C185   C     0.83199   0.16741   0.47669   0.00000  Uiso   1.00
C186   C     0.83467   0.16592   0.02331   0.00000  Uiso   1.00
C187   C     0.85174   0.13209   0.45163   0.00000  Uiso   1.00
C188   C     0.81493   0.20125   0.04837   0.00000  Uiso   1.00
C189   C     0.78812   0.23735   0.48221   0.00000  Uiso   1.00
C190   C     0.87855   0.09599   0.01779   0.00000  Uiso   1.00
Cu191  Cu    0.83333   0.21355   0.25000   0.00000  Uiso   1.00
Cu192  Cu    0.83333   0.11978   0.25000   0.00000  Uiso   1.00
H193   H     0.86512   0.10471   0.38716   0.00000  Uiso   1.00
H194   H     0.80154   0.22862   0.11284   0.00000  Uiso   1.00
H195   H     0.77601   0.26218   0.04804   0.00000  Uiso   1.00
H196   H     0.89066   0.07116   0.45196   0.00000  Uiso   1.00
H197   H     0.70411   0.09211   0.26296   0.00000  Uiso   1.00
H198   H     0.96256   0.24122   0.23704   0.00000  Uiso   1.00
H199   H     0.96269   0.09219   0.26324   0.00000  Uiso   1.00
H200   H     0.70398   0.24114   0.23676   0.00000  Uiso   1.00
H201   H     0.78143   0.04282   0.20733   0.00000  Uiso   1.00
H202   H     0.88524   0.29052   0.29267   0.00000  Uiso   1.00
H203   H     0.88527   0.04437   0.29264   0.00000  Uiso   1.00
H204   H     0.78140   0.28897   0.20736   0.00000  Uiso   1.00
N205   N     0.83333   0.28402   0.25000   0.00000  Uiso   1.00
N206   N     0.83333   0.04931   0.25000   0.00000  Uiso   1.00
O207   O     0.77321   0.20625   0.25000   0.00000  Uiso   1.00
O208   O     0.89345   0.12709   0.25000   0.00000  Uiso   1.00
O209   O     0.89345   0.20625   0.25001   0.00000  Uiso   1.00
O210   O     0.77321   0.12709   0.25000   0.00000  Uiso   1.00
O211   O     0.83332   0.20627   0.18513   0.00000  Uiso   1.00
O212   O     0.83334   0.12707   0.31487   0.00000  Uiso   1.00
O213   O     0.83334   0.20627   0.31487   0.00000  Uiso   1.00
O214   O     0.83332   0.12707   0.18513   0.00000  Uiso   1.00
C215   C     0.79122   0.24430   0.38331   0.00000  Uiso   1.00
C216   C     0.81176   0.28769   0.38144   0.00000  Uiso   1.00
C217   C     0.79450   0.32468   0.35778   0.00000  Uiso   1.00
C218   C     0.75708   0.31837   0.33533   0.00000  Uiso   1.00
C219   C     0.73672   0.27514   0.33668   0.00000  Uiso   1.00
C220   C     0.75372   0.23809   0.36049   0.00000  Uiso   1.00
H221   H     0.84091   0.29282   0.39848   0.00000  Uiso   1.00
H222   H     0.81022   0.02483   0.35671   0.00000  Uiso   1.00
H223   H     0.74389   0.01364   0.31683   0.00000  Uiso   1.00
H224   H     0.70772   0.27040   0.31937   0.00000  Uiso   1.00
H225   H     0.73778   0.20470   0.36120   0.00000  Uiso   1.00
C226   C     0.87544   0.08904   0.11669   0.00000  Uiso   1.00
C227   C     0.91294   0.09524   0.13951   0.00000  Uiso   1.00
C228   C     0.92994   0.05819   0.16332   0.00000  Uiso   1.00
C229   C     0.90959   0.01496   0.16467   0.00000  Uiso   1.00
C230   C     0.87217   0.00866   0.14222   0.00000  Uiso   1.00
C231   C     0.85491   0.04565   0.11856   0.00000  Uiso   1.00
H232   H     0.92888   0.12864   0.13880   0.00000  Uiso   1.00
H233   H     0.95895   0.06293   0.18063   0.00000  Uiso   1.00
H234   H     0.92277   0.31969   0.18317   0.00000  Uiso   1.00
H235   H     0.85645   0.30850   0.14329   0.00000  Uiso   1.00
H236   H     0.82576   0.04052   0.10152   0.00000  Uiso   1.00
C237   C     0.75970   0.27218   0.46584   0.00000  Uiso   1.00
N238   N     0.73675   0.30018   0.45332   0.00000  Uiso   1.00
C239   C     0.90697   0.06115   0.03416   0.00000  Uiso   1.00
N240   N     0.92991   0.03315   0.04668   0.00000  Uiso   1.00
C241   C     0.08733   0.50000   0.24996   0.00000  Uiso   1.00
C242   C     0.24600   0.50000   0.25004   0.00000  Uiso   1.00
C243   C     0.12534   0.56943   0.02792   0.00000  Uiso   1.00
C244   C     0.20800   0.43057   0.47208   0.00000  Uiso   1.00
C245   C     0.02134   0.45811   0.25715   0.00000  Uiso   1.00
C246   C     0.31199   0.54189   0.24285   0.00000  Uiso   1.00
C247   C     0.31207   0.45815   0.25729   0.00000  Uiso   1.00
C248   C     0.02126   0.54185   0.24271   0.00000  Uiso   1.00
C249   C     0.29060   0.50002   0.25006   0.00000  Uiso   1.00
C250   C     0.04274   0.49998   0.24994   0.00000  Uiso   1.00
C251   C     0.13775   0.35774   0.22641   0.00000  Uiso   1.00
C252   C     0.19558   0.64226   0.27359   0.00000  Uiso   1.00
C253   C     0.19558   0.35860   0.27359   0.00000  Uiso   1.00
C254   C     0.13776   0.64140   0.22641   0.00000  Uiso   1.00
C255   C     0.16820   0.49950   0.16438   0.00000  Uiso   1.00
C256   C     0.16513   0.50051   0.33562   0.00000  Uiso   1.00
C257   C     0.18293   0.46552   0.40598   0.00000  Uiso   1.00
C258   C     0.15040   0.53448   0.09403   0.00000  Uiso   1.00
C259   C     0.16315   0.50163   0.38400   0.00000  Uiso   1.00
C260   C     0.17019   0.49837   0.11600   0.00000  Uiso   1.00
C261   C     0.14319   0.53825   0.40802   0.00000  Uiso   1.00
C262   C     0.19014   0.46175   0.09198   0.00000  Uiso   1.00
C263   C     0.14291   0.53723   0.45521   0.00000  Uiso   1.00
C264   C     0.19042   0.46277   0.04479   0.00000  Uiso   1.00
C265   C     0.16533   0.50074   0.47669   0.00000  Uiso   1.00
C266   C     0.16801   0.49926   0.02331   0.00000  Uiso   1.00
C267   C     0.18508   0.46542   0.45163   0.00000  Uiso   1.00
C268   C     0.14826   0.53458   0.04837   0.00000  Uiso   1.00
C269   C     0.12145   0.57068   0.48221   0.00000  Uiso   1.00
C270   C     0.21188   0.42932   0.01779   0.00000  Uiso   1.00
Cu271  Cu    0.16667   0.54689   0.25000   0.00000  Uiso   1.00
Cu272  Cu    0.16667   0.45311   0.25000   0.00000  Uiso   1.00
H273   H     0.19846   0.43804   0.38716   0.00000  Uiso   1.00
H274   H     0.13488   0.56196   0.11284   0.00000  Uiso   1.00
H275   H     0.10934   0.59551   0.04804   0.00000  Uiso   1.00
H276   H     0.22399   0.40449   0.45196   0.00000  Uiso   1.00
H277   H     0.03744   0.42544   0.26296   0.00000  Uiso   1.00
H278   H     0.29589   0.57456   0.23704   0.00000  Uiso   1.00
H279   H     0.29602   0.42552   0.26324   0.00000  Uiso   1.00
H280   H     0.03731   0.57448   0.23676   0.00000  Uiso   1.00
H281   H     0.11476   0.37615   0.20733   0.00000  Uiso   1.00
H282   H     0.21857   0.62385   0.29267   0.00000  Uiso   1.00
H283   H     0.21860   0.37770   0.29264   0.00000  Uiso   1.00
H284   H     0.11473   0.62230   0.20736   0.00000  Uiso   1.00
N285   N     0.16667   0.61736   0.25000   0.00000  Uiso   1.00
N286   N     0.16667   0.38264   0.25000   0.00000  Uiso   1.00
O287   O     0.10655   0.53958   0.25000   0.00000  Uiso   1.00
O288   O     0.22679   0.46042   0.25000   0.00000  Uiso   1.00
O289   O     0.22679   0.53958   0.25001   0.00000  Uiso   1.00
O290   O     0.10655   0.46042   0.25000   0.00000  Uiso   1.00
O291   O     0.16666   0.53960   0.18513   0.00000  Uiso   1.00
O292   O     0.16668   0.46040   0.31487   0.00000  Uiso   1.00
O293   O     0.16668   0.53960   0.31487   0.00000  Uiso   1.00
O294   O     0.16666   0.46040   0.18513   0.00000  Uiso   1.00
C295   C     0.12456   0.57763   0.38331   0.00000  Uiso   1.00
C296   C     0.14509   0.62102   0.38144   0.00000  Uiso   1.00
C297   C     0.12783   0.65801   0.35778   0.00000  Uiso   1.00
C298   C     0.09042   0.65171   0.33533   0.00000  Uiso   1.00
C299   C     0.07006   0.60848   0.33668   0.00000  Uiso   1.00
C300   C     0.08706   0.57143   0.36049   0.00000  Uiso   1.00
H301   H     0.17424   0.62615   0.39848   0.00000  Uiso   1.00
H302   H     0.14355   0.35817   0.35671   0.00000  Uiso   1.00
H303   H     0.07723   0.34697   0.31683   0.00000  Uiso   1.00
H304   H     0.04105   0.60373   0.31937   0.00000  Uiso   1.00
H305   H     0.07112   0.53803   0.36120   0.00000  Uiso   1.00
C306   C     0.20878   0.42237   0.11669   0.00000  Uiso   1.00
C307   C     0.24628   0.42857   0.13951   0.00000  Uiso   1.00
C308   C     0.26328   0.39152   0.16332   0.00000  Uiso   1.00
C309   C     0.24292   0.34829   0.16467   0.00000  Uiso   1.00
C310   C     0.20550   0.34199   0.14222   0.00000  Uiso   1.00
C311   C     0.18824   0.37898   0.11856   0.00000  Uiso   1.00
H312   H     0.26222   0.46197   0.13880   0.00000  Uiso   1.00
H313   H     0.29228   0.39627   0.18063   0.00000  Uiso   1.00
H314   H     0.25611   0.65303   0.18317   0.00000  Uiso   1.00
H315   H     0.18978   0.64183   0.14329   0.00000  Uiso   1.00
H316   H     0.15909   0.37385   0.10152   0.00000  Uiso   1.00
C317   C     0.09303   0.60551   0.46584   0.00000  Uiso   1.00
N318   N     0.07009   0.63351   0.45332   0.00000  Uiso   1.00
C319   C     0.24030   0.39449   0.03416   0.00000  Uiso   1.00
N320   N     0.26325   0.36649   0.04668   0.00000  Uiso   1.00
C321   C     0.42067   0.50000   0.24996   0.00000  Uiso   1.00
C322   C     0.57934   0.50000   0.25004   0.00000  Uiso   1.00
C323   C     0.45867   0.56943   0.02792   0.00000  Uiso   1.00
C324   C     0.54133   0.43057   0.47208   0.00000  Uiso   1.00
C325   C     0.35467   0.45811   0.25715   0.00000  Uiso   1.00
C326   C     0.64533   0.54189   0.24285   0.00000  Uiso   1.00
C327   C     0.64540   0.45815   0.25729   0.00000  Uiso   1.00
C328   C     0.35460   0.54185   0.24271   0.00000  Uiso   1.00
C329   C     0.62393   0.50002   0.25006   0.00000  Uiso   1.00
C330   C     0.37607   0.49998   0.24994   0.00000  Uiso   1.00
C331   C     0.47109   0.35774   0.22641   0.00000  Uiso   1.00
C332   C     0.52891   0.64226   0.27359   0.00000  Uiso   1.00
C333   C     0.52891   0.35860   0.27359   0.00000  Uiso   1.00
C334   C     0.47109   0.64140   0.22641   0.00000  Uiso   1.00
C335   C     0.50154   0.49950   0.16438   0.00000  Uiso   1.00
C336   C     0.49846   0.50051   0.33562   0.00000  Uiso   1.00
C337   C     0.51627   0.46552   0.40598   0.00000  Uiso   1.00
C338   C     0.48373   0.53448   0.09403   0.00000  Uiso   1.00
C339   C     0.49648   0.50163   0.38400   0.00000  Uiso   1.00
C340   C     0.50352   0.49837   0.11600   0.00000  Uiso   1.00
C341   C     0.47652   0.53825   0.40802   0.00000  Uiso   1.00
C342   C     0.52348   0.46175   0.09198   0.00000  Uiso   1.00
C343   C     0.47625   0.53723   0.45521   0.00000  Uiso   1.00
C344   C     0.52375   0.46277   0.04479   0.00000  Uiso   1.00
C345   C     0.49866   0.50074   0.47669   0.00000  Uiso   1.00
C346   C     0.50134   0.49926   0.02331   0.00000  Uiso   1.00
C347   C     0.51841   0.46542   0.45163   0.00000  Uiso   1.00
C348   C     0.48159   0.53458   0.04837   0.00000  Uiso   1.00
C349   C     0.45479   0.57068   0.48221   0.00000  Uiso   1.00
C350   C     0.54521   0.42932   0.01779   0.00000  Uiso   1.00
Cu351  Cu    0.50000   0.54689   0.25000   0.00000  Uiso   1.00
Cu352  Cu    0.50000   0.45311   0.25000   0.00000  Uiso   1.00
H353   H     0.53179   0.43804   0.38716   0.00000  Uiso   1.00
H354   H     0.46821   0.56196   0.11284   0.00000  Uiso   1.00
H355   H     0.44267   0.59551   0.04804   0.00000  Uiso   1.00
H356   H     0.55733   0.40449   0.45196   0.00000  Uiso   1.00
H357   H     0.37078   0.42544   0.26296   0.00000  Uiso   1.00
H358   H     0.62922   0.57456   0.23704   0.00000  Uiso   1.00
H359   H     0.62936   0.42552   0.26324   0.00000  Uiso   1.00
H360   H     0.37064   0.57448   0.23676   0.00000  Uiso   1.00
H361   H     0.44809   0.37615   0.20733   0.00000  Uiso   1.00
H362   H     0.55191   0.62385   0.29267   0.00000  Uiso   1.00
H363   H     0.55194   0.37770   0.29264   0.00000  Uiso   1.00
H364   H     0.44807   0.62230   0.20736   0.00000  Uiso   1.00
N365   N     0.50000   0.61736   0.25000   0.00000  Uiso   1.00
N366   N     0.50000   0.38264   0.25000   0.00000  Uiso   1.00
O367   O     0.43988   0.53958   0.25000   0.00000  Uiso   1.00
O368   O     0.56012   0.46042   0.25000   0.00000  Uiso   1.00
O369   O     0.56012   0.53958   0.25001   0.00000  Uiso   1.00
O370   O     0.43988   0.46042   0.25000   0.00000  Uiso   1.00
O371   O     0.49999   0.53960   0.18513   0.00000  Uiso   1.00
O372   O     0.50001   0.46040   0.31487   0.00000  Uiso   1.00
O373   O     0.50001   0.53960   0.31487   0.00000  Uiso   1.00
O374   O     0.49999   0.46040   0.18513   0.00000  Uiso   1.00
C375   C     0.45789   0.57763   0.38331   0.00000  Uiso   1.00
C376   C     0.47843   0.62102   0.38144   0.00000  Uiso   1.00
C377   C     0.46117   0.65801   0.35778   0.00000  Uiso   1.00
C378   C     0.42375   0.65171   0.33533   0.00000  Uiso   1.00
C379   C     0.40339   0.60848   0.33668   0.00000  Uiso   1.00
C380   C     0.42039   0.57143   0.36049   0.00000  Uiso   1.00
H381   H     0.50757   0.62615   0.39848   0.00000  Uiso   1.00
H382   H     0.47688   0.35817   0.35671   0.00000  Uiso   1.00
H383   H     0.41056   0.34697   0.31683   0.00000  Uiso   1.00
H384   H     0.37438   0.60373   0.31937   0.00000  Uiso   1.00
H385   H     0.40445   0.53803   0.36120   0.00000  Uiso   1.00
C386   C     0.54211   0.42237   0.11669   0.00000  Uiso   1.00
C387   C     0.57961   0.42857   0.13951   0.00000  Uiso   1.00
C388   C     0.59661   0.39152   0.16332   0.00000  Uiso   1.00
C389   C     0.57625   0.34829   0.16467   0.00000  Uiso   1.00
C390   C     0.53883   0.34199   0.14222   0.00000  Uiso   1.00
C391   C     0.52157   0.37898   0.11856   0.00000  Uiso   1.00
H392   H     0.59555   0.46197   0.13880   0.00000  Uiso   1.00
H393   H     0.62562   0.39627   0.18063   0.00000  Uiso   1.00
H394   H     0.58944   0.65303   0.18317   0.00000  Uiso   1.00
H395   H     0.52312   0.64183   0.14329   0.00000  Uiso   1.00
H396   H     0.49243   0.37385   0.10152   0.00000  Uiso   1.00
C397   C     0.42637   0.60551   0.46584   0.00000  Uiso   1.00
N398   N     0.40342   0.63351   0.45332   0.00000  Uiso   1.00
C399   C     0.57363   0.39449   0.03416   0.00000  Uiso   1.00
N400   N     0.59658   0.36649   0.04668   0.00000  Uiso   1.00
C401   C     0.75400   0.50000   0.24996   0.00000  Uiso   1.00
C402   C     0.91267   0.50000   0.25004   0.00000  Uiso   1.00
C403   C     0.79200   0.56943   0.02792   0.00000  Uiso   1.00
C404   C     0.87466   0.43057   0.47208   0.00000  Uiso   1.00
C405   C     0.68801   0.45811   0.25715   0.00000  Uiso   1.00
C406   C     0.97866   0.54189   0.24285   0.00000  Uiso   1.00
C407   C     0.97874   0.45815   0.25729   0.00000  Uiso   1.00
C408   C     0.68793   0.54185   0.24271   0.00000  Uiso   1.00
C409   C     0.95726   0.50002   0.25006   0.00000  Uiso   1.00
C410   C     0.70940   0.49998   0.24994   0.00000  Uiso   1.00
C411   C     0.80442   0.35774   0.22641   0.00000  Uiso   1.00
C412   C     0.86225   0.64226   0.27359   0.00000  Uiso   1.00
C413   C     0.86224   0.35860   0.27359   0.00000  Uiso   1.00
C414   C     0.80442   0.64140   0.22641   0.00000  Uiso   1.00
C415   C     0.83487   0.49950   0.16438   0.00000  Uiso   1.00
C416   C     0.83180   0.50051   0.33562   0.00000  Uiso   1.00
C417   C     0.84960   0.46552   0.40598   0.00000  Uiso   1.00
C418   C     0.81707   0.53448   0.09403   0.00000  Uiso   1.00
C419   C     0.82981   0.50163   0.38400   0.00000  Uiso   1.00
C420   C     0.83686   0.49837   0.11600   0.00000  Uiso   1.00
C421   C     0.80986   0.53825   0.40802   0.00000  Uiso   1.00
C422   C     0.85681   0.46175   0.09198   0.00000  Uiso   1.00
C423   C     0.80958   0.53723   0.45521   0.00000  Uiso   1.00
C424   C     0.85709   0.46277   0.04479   0.00000  Uiso   1.00
C425   C     0.83199   0.50074   0.47669   0.00000  Uiso   1.00
C426   C     0.83467   0.49926   0.02331   0.00000  Uiso   1.00
C427   C     0.85174   0.46542   0.45163   0.00000  Uiso   1.00
C428   C     0.81493   0.53458   0.04837   0.00000  Uiso   1.00
C429   C     0.78812   0.57068   0.48221   0.00000  Uiso   1.00
C430   C     0.87855   0.42932   0.01779   0.00000  Uiso   1.00
Cu431  Cu    0.83333   0.54689   0.25000   0.00000  Uiso   1.00
Cu432  Cu    0.83333   0.45311   0.25000   0.00000  Uiso   1.00
H433   H     0.86512   0.43804   0.38716   0.00000  Uiso   1.00
H434   H     0.80154   0.56196   0.11284   0.00000  Uiso   1.00
H435   H     0.77601   0.59551   0.04804   0.00000  Uiso   1.00
H436   H     0.89066   0.40449   0.45196   0.00000  Uiso   1.00
H437   H     0.70411   0.42544   0.26296   0.00000  Uiso   1.00
H438   H     0.96256   0.57456   0.23704   0.00000  Uiso   1.00
H439   H     0.96269   0.42552   0.26324   0.00000  Uiso   1.00
H440   H     0.70398   0.57448   0.23676   0.00000  Uiso   1.00
H441   H     0.78143   0.37615   0.20733   0.00000  Uiso   1.00
H442   H     0.88524   0.62385   0.29267   0.00000  Uiso   1.00
H443   H     0.88527   0.37770   0.29264   0.00000  Uiso   1.00
H444   H     0.78140   0.62230   0.20736   0.00000  Uiso   1.00
N445   N     0.83333   0.61736   0.25000   0.00000  Uiso   1.00
N446   N     0.83333   0.38264   0.25000   0.00000  Uiso   1.00
O447   O     0.77321   0.53958   0.25000   0.00000  Uiso   1.00
O448   O     0.89345   0.46042   0.25000   0.00000  Uiso   1.00
O449   O     0.89345   0.53958   0.25001   0.00000  Uiso   1.00
O450   O     0.77321   0.46042   0.25000   0.00000  Uiso   1.00
O451   O     0.83332   0.53960   0.18513   0.00000  Uiso   1.00
O452   O     0.83334   0.46040   0.31487   0.00000  Uiso   1.00
O453   O     0.83334   0.53960   0.31487   0.00000  Uiso   1.00
O454   O     0.83332   0.46040   0.18513   0.00000  Uiso   1.00
C455   C     0.79122   0.57763   0.38331   0.00000  Uiso   1.00
C456   C     0.81176   0.62102   0.38144   0.00000  Uiso   1.00
C457   C     0.79450   0.65801   0.35778   0.00000  Uiso   1.00
C458   C     0.75708   0.65171   0.33533   0.00000  Uiso   1.00
C459   C     0.73672   0.60848   0.33668   0.00000  Uiso   1.00
C460   C     0.75372   0.57143   0.36049   0.00000  Uiso   1.00
H461   H     0.84091   0.62615   0.39848   0.00000  Uiso   1.00
H462   H     0.81022   0.35817   0.35671   0.00000  Uiso   1.00
H463   H     0.74389   0.34697   0.31683   0.00000  Uiso   1.00
H464   H     0.70772   0.60373   0.31937   0.00000  Uiso   1.00
H465   H     0.73778   0.53803   0.36120   0.00000  Uiso   1.00
C466   C     0.87544   0.42237   0.11669   0.00000  Uiso   1.00
C467   C     0.91294   0.42857   0.13951   0.00000  Uiso   1.00
C468   C     0.92994   0.39152   0.16332   0.00000  Uiso   1.00
C469   C     0.90959   0.34829   0.16467   0.00000  Uiso   1.00
C470   C     0.87217   0.34199   0.14222   0.00000  Uiso   1.00
C471   C     0.85491   0.37898   0.11856   0.00000  Uiso   1.00
H472   H     0.92888   0.46197   0.13880   0.00000  Uiso   1.00
H473   H     0.95895   0.39627   0.18063   0.00000  Uiso   1.00
H474   H     0.92277   0.65303   0.18317   0.00000  Uiso   1.00
H475   H     0.85645   0.64183   0.14329   0.00000  Uiso   1.00
H476   H     0.82576   0.37385   0.10152   0.00000  Uiso   1.00
C477   C     0.75970   0.60551   0.46584   0.00000  Uiso   1.00
N478   N     0.73675   0.63351   0.45332   0.00000  Uiso   1.00
C479   C     0.90697   0.39449   0.03416   0.00000  Uiso   1.00
N480   N     0.92991   0.36649   0.04668   0.00000  Uiso   1.00
C481   C     0.08733   0.83333   0.24996   0.00000  Uiso   1.00
C482   C     0.24600   0.83334   0.25004   0.00000  Uiso   1.00
C483   C     0.12534   0.90276   0.02792   0.00000  Uiso   1.00
C484   C     0.20800   0.76390   0.47208   0.00000  Uiso   1.00
C485   C     0.02134   0.79145   0.25715   0.00000  Uiso   1.00
C486   C     0.31199   0.87522   0.24285   0.00000  Uiso   1.00
C487   C     0.31207   0.79149   0.25729   0.00000  Uiso   1.00
C488   C     0.02126   0.87518   0.24271   0.00000  Uiso   1.00
C489   C     0.29060   0.83335   0.25006   0.00000  Uiso   1.00
C490   C     0.04274   0.83332   0.24994   0.00000  Uiso   1.00
C491   C     0.13775   0.69107   0.22641   0.00000  Uiso   1.00
C492   C     0.19558   0.97560   0.27359   0.00000  Uiso   1.00
C493   C     0.19558   0.69193   0.27359   0.00000  Uiso   1.00
C494   C     0.13776   0.97474   0.22641   0.00000  Uiso   1.00
C495   C     0.16820   0.83283   0.16438   0.00000  Uiso   1.00
C496   C     0.16513   0.83384   0.33562   0.00000  Uiso   1.00
C497   C     0.18293   0.79885   0.40598   0.00000  Uiso   1.00
C498   C     0.15040   0.86782   0.09403   0.00000  Uiso   1.00
C499   C     0.16315   0.83497   0.38400   0.00000  Uiso   1.00
C500   C     0.17019   0.83170   0.11600   0.00000  Uiso   1.00
C501   C     0.14319   0.87158   0.40802   0.00000  Uiso   1.00
C502   C     0.19014   0.79509   0.09198   0.00000  Uiso   1.00
C503   C     0.14291   0.87056   0.45521   0.00000  Uiso   1.00
C504   C     0.19042   0.79610   0.04479   0.00000  Uiso   1.00
C505   C     0.16533   0.83408   0.47669   0.00000  Uiso   1.00
C506   C     0.16801   0.83259   0.02331   0.00000  Uiso   1.00
C507   C     0.18508   0.79875   0.45163   0.00000  Uiso   1.00
C508   C     0.14826   0.86791   0.04837   0.00000  Uiso   1.00
C509   C     0.12145   0.90401   0.48221   0.00000  Uiso   1.00
C510   C     0.21188   0.76265   0.01779   0.00000  Uiso   1.00
Cu511  Cu    0.16667   0.88022   0.25000   0.00000  Uiso   1.00
Cu512  Cu    0.16667   0.78645   0.25000   0.00000  Uiso   1.00
H513   H     0.19846   0.77138   0.38716   0.00000  Uiso   1.00
H514   H     0.13488   0.89529   0.11284   0.00000  Uiso   1.00
H515   H     0.10934   0.92884   0.04804   0.00000  Uiso   1.00
H516   H     0.22399   0.73782   0.45196   0.00000  Uiso   1.00
H517   H     0.03744   0.75878   0.26296   0.00000  Uiso   1.00
H518   H     0.29589   0.90789   0.23704   0.00000  Uiso   1.00
H519   H     0.29602   0.75886   0.26324   0.00000  Uiso   1.00
H520   H     0.03731   0.90781   0.23676   0.00000  Uiso   1.00
H521   H     0.11476   0.70948   0.20733   0.00000  Uiso   1.00
H522   H     0.21857   0.95718   0.29267   0.00000  Uiso   1.00
H523   H     0.21860   0.71103   0.29264   0.00000  Uiso   1.00
H524   H     0.11473   0.95563   0.20736   0.00000  Uiso   1.00
N525   N     0.16667   0.95069   0.25000   0.00000  Uiso   1.00
N526   N     0.16667   0.71598   0.25000   0.00000  Uiso   1.00
O527   O     0.10655   0.87291   0.25000   0.00000  Uiso   1.00
O528   O     0.22679   0.79375   0.25000   0.00000  Uiso   1.00
O529   O     0.22679   0.87291   0.25001   0.00000  Uiso   1.00
O530   O     0.10655   0.79375   0.25000   0.00000  Uiso   1.00
O531   O     0.16666   0.87293   0.18513   0.00000  Uiso   1.00
O532   O     0.16668   0.79373   0.31487   0.00000  Uiso   1.00
O533   O     0.16668   0.87293   0.31487   0.00000  Uiso   1.00
O534   O     0.16666   0.79373   0.18513   0.00000  Uiso   1.00
C535   C     0.12456   0.91096   0.38331   0.00000  Uiso   1.00
C536   C     0.14509   0.95435   0.38144   0.00000  Uiso   1.00
C537   C     0.12783   0.99134   0.35778   0.00000  Uiso   1.00
C538   C     0.09042   0.98504   0.33533   0.00000  Uiso   1.00
C539   C     0.07006   0.94181   0.33668   0.00000  Uiso   1.00
C540   C     0.08706   0.90476   0.36049   0.00000  Uiso   1.00
H541   H     0.17424   0.95948   0.39848   0.00000  Uiso   1.00
H542   H     0.14355   0.69150   0.35671   0.00000  Uiso   1.00
H543   H     0.07723   0.68031   0.31683   0.00000  Uiso   1.00
H544   H     0.04105   0.93707   0.31937   0.00000  Uiso   1.00
H545   H     0.07112   0.87136   0.36120   0.00000  Uiso   1.00
C546   C     0.20878   0.75570   0.11669   0.00000  Uiso   1.00
C547   C     0.24628   0.76191   0.13951   0.00000  Uiso   1.00
C548   C     0.26328   0.72486   0.16332   0.00000  Uiso   1.00
C549   C     0.24292   0.68163   0.16467   0.00000  Uiso   1.00
C550   C     0.20550   0.67532   0.14222   0.00000  Uiso   1.00
C551   C     0.18824   0.71231   0.11856   0.00000  Uiso   1.00
H552   H     0.26222   0.79530   0.13880   0.00000  Uiso   1.00
H553   H     0.29228   0.72960   0.18063   0.00000  Uiso   1.00
H554   H     0.25611   0.98636   0.18317   0.00000  Uiso   1.00
H555   H     0.18978   0.97517   0.14329   0.00000  Uiso   1.00
H556   H     0.15909   0.70718   0.10152   0.00000  Uiso   1.00
C557   C     0.09303   0.93885   0.46584   0.00000  Uiso   1.00
N558   N     0.07009   0.96685   0.45332   0.00000  Uiso   1.00
C559   C     0.24030   0.72782   0.03416   0.00000  Uiso   1.00
N560   N     0.26325   0.69982   0.04668   0.00000  Uiso   1.00
C561   C     0.42067   0.83333   0.24996   0.00000  Uiso   1.00
C562   C     0.57934   0.83334   0.25004   0.00000  Uiso   1.00
C563   C     0.45867   0.90276   0.02792   0.00000  Uiso   1.00
C564   C     0.54133   0.76390   0.47208   0.00000  Uiso   1.00
C565   C     0.35467   0.79145   0.25715   0.00000  Uiso   1.00
C566   C     0.64533   0.87522   0.24285   0.00000  Uiso   1.00
C567   C     0.64540   0.79149   0.25729   0.00000  Uiso   1.00
C568   C     0.35460   0.87518   0.24271   0.00000  Uiso   1.00
C569   C     0.62393   0.83335   0.25006   0.00000  Uiso   1.00
C570   C     0.37607   0.83332   0.24994   0.00000  Uiso   1.00
C571   C     0.47109   0.69107   0.22641   0.00000  Uiso   1.00
C572   C     0.52891   0.97560   0.27359   0.00000  Uiso   1.00
C573   C     0.52891   0.69193   0.27359   0.00000  Uiso   1.00
C574   C     0.47109   0.97474   0.22641   0.00000  Uiso   1.00
C575   C     0.50154   0.83283   0.16438   0.00000  Uiso   1.00
C576   C     0.49846   0.83384   0.33562   0.00000  Uiso   1.00
C577   C     0.51627   0.79885   0.40598   0.00000  Uiso   1.00
C578   C     0.48373   0.86782   0.09403   0.00000  Uiso   1.00
C579   C     0.49648   0.83497   0.38400   0.00000  Uiso   1.00
C580   C     0.50352   0.83170   0.11600   0.00000  Uiso   1.00
C581   C     0.47652   0.87158   0.40802   0.00000  Uiso   1.00
C582   C     0.52348   0.79509   0.09198   0.00000  Uiso   1.00
C583   C     0.47625   0.87056   0.45521   0.00000  Uiso   1.00
C584   C     0.52375   0.79610   0.04479   0.00000  Uiso   1.00
C585   C     0.49866   0.83408   0.47669   0.00000  Uiso   1.00
C586   C     0.50134   0.83259   0.02331   0.00000  Uiso   1.00
C587   C     0.51841   0.79875   0.45163   0.00000  Uiso   1.00
C588   C     0.48159   0.86791   0.04837   0.00000  Uiso   1.00
C589   C     0.45479   0.90401   0.48221   0.00000  Uiso   1.00
C590   C     0.54521   0.76265   0.01779   0.00000  Uiso   1.00
Cu591  Cu    0.50000   0.88022   0.25000   0.00000  Uiso   1.00
Cu592  Cu    0.50000   0.78645   0.25000   0.00000  Uiso   1.00
H593   H     0.53179   0.77138   0.38716   0.00000  Uiso   1.00
H594   H     0.46821   0.89529   0.11284   0.00000  Uiso   1.00
H595   H     0.44267   0.92884   0.04804   0.00000  Uiso   1.00
H596   H     0.55733   0.73782   0.45196   0.00000  Uiso   1.00
H597   H     0.37078   0.75878   0.26296   0.00000  Uiso   1.00
H598   H     0.62922   0.90789   0.23704   0.00000  Uiso   1.00
H599   H     0.62936   0.75886   0.26324   0.00000  Uiso   1.00
H600   H     0.37064   0.90781   0.23676   0.00000  Uiso   1.00
H601   H     0.44809   0.70948   0.20733   0.00000  Uiso   1.00
H602   H     0.55191   0.95718   0.29267   0.00000  Uiso   1.00
H603   H     0.55194   0.71103   0.29264   0.00000  Uiso   1.00
H604   H     0.44807   0.95563   0.20736   0.00000  Uiso   1.00
N605   N     0.50000   0.95069   0.25000   0.00000  Uiso   1.00
N606   N     0.50000   0.71598   0.25000   0.00000  Uiso   1.00
O607   O     0.43988   0.87291   0.25000   0.00000  Uiso   1.00
O608   O     0.56012   0.79375   0.25000   0.00000  Uiso   1.00
O609   O     0.56012   0.87291   0.25001   0.00000  Uiso   1.00
O610   O     0.43988   0.79375   0.25000   0.00000  Uiso   1.00
O611   O     0.49999   0.87293   0.18513   0.00000  Uiso   1.00
O612   O     0.50001   0.79373   0.31487   0.00000  Uiso   1.00
O613   O     0.50001   0.87293   0.31487   0.00000  Uiso   1.00
O614   O     0.49999   0.79373   0.18513   0.00000  Uiso   1.00
C615   C     0.45789   0.91096   0.38331   0.00000  Uiso   1.00
C616   C     0.47843   0.95435   0.38144   0.00000  Uiso   1.00
C617   C     0.46117   0.99134   0.35778   0.00000  Uiso   1.00
C618   C     0.42375   0.98504   0.33533   0.00000  Uiso   1.00
C619   C     0.40339   0.94181   0.33668   0.00000  Uiso   1.00
C620   C     0.42039   0.90476   0.36049   0.00000  Uiso   1.00
H621   H     0.50757   0.95948   0.39848   0.00000  Uiso   1.00
H622   H     0.47688   0.69150   0.35671   0.00000  Uiso   1.00
H623   H     0.41056   0.68031   0.31683   0.00000  Uiso   1.00
H624   H     0.37438   0.93707   0.31937   0.00000  Uiso   1.00
H625   H     0.40445   0.87136   0.36120   0.00000  Uiso   1.00
C626   C     0.54211   0.75570   0.11669   0.00000  Uiso   1.00
C627   C     0.57961   0.76191   0.13951   0.00000  Uiso   1.00
C628   C     0.59661   0.72486   0.16332   0.00000  Uiso   1.00
C629   C     0.57625   0.68163   0.16467   0.00000  Uiso   1.00
C630   C     0.53883   0.67532   0.14222   0.00000  Uiso   1.00
C631   C     0.52157   0.71231   0.11856   0.00000  Uiso   1.00
H632   H     0.59555   0.79530   0.13880   0.00000  Uiso   1.00
H633   H     0.62562   0.72960   0.18063   0.00000  Uiso   1.00
H634   H     0.58944   0.98636   0.18317   0.00000  Uiso   1.00
H635   H     0.52312   0.97517   0.14329   0.00000  Uiso   1.00
H636   H     0.49243   0.70718   0.10152   0.00000  Uiso   1.00
C637   C     0.42637   0.93885   0.46584   0.00000  Uiso   1.00
N638   N     0.40342   0.96685   0.45332   0.00000  Uiso   1.00
C639   C     0.57363   0.72782   0.03416   0.00000  Uiso   1.00
N640   N     0.59658   0.69982   0.04668   0.00000  Uiso   1.00
C641   C     0.75400   0.83333   0.24996   0.00000  Uiso   1.00
C642   C     0.91267   0.83334   0.25004   0.00000  Uiso   1.00
C643   C     0.79200   0.90276   0.02792   0.00000  Uiso   1.00
C644   C     0.87466   0.76390   0.47208   0.00000  Uiso   1.00
C645   C     0.68801   0.79145   0.25715   0.00000  Uiso   1.00
C646   C     0.97866   0.87522   0.24285   0.00000  Uiso   1.00
C647   C     0.97874   0.79149   0.25729   0.00000  Uiso   1.00
C648   C     0.68793   0.87518   0.24271   0.00000  Uiso   1.00
C649   C     0.95726   0.83335   0.25006   0.00000  Uiso   1.00
C650   C     0.70940   0.83332   0.24994   0.00000  Uiso   1.00
C651   C     0.80442   0.69107   0.22641   0.00000  Uiso   1.00
C652   C     0.86225   0.97560   0.27359   0.00000  Uiso   1.00
C653   C     0.86224   0.69193   0.27359   0.00000  Uiso   1.00
C654   C     0.80442   0.97474   0.22641   0.00000  Uiso   1.00
C655   C     0.83487   0.83283   0.16438   0.00000  Uiso   1.00
C656   C     0.83180   0.83384   0.33562   0.00000  Uiso   1.00
C657   C     0.84960   0.79885   0.40598   0.00000  Uiso   1.00
C658   C     0.81707   0.86782   0.09403   0.00000  Uiso   1.00
C659   C     0.82981   0.83497   0.38400   0.00000  Uiso   1.00
C660   C     0.83686   0.83170   0.11600   0.00000  Uiso   1.00
C661   C     0.80986   0.87158   0.40802   0.00000  Uiso   1.00
C662   C     0.85681   0.79509   0.09198   0.00000  Uiso   1.00
C663   C     0.80958   0.87056   0.45521   0.00000  Uiso   1.00
C664   C     0.85709   0.79610   0.04479   0.00000  Uiso   1.00
C665   C     0.83199   0.83408   0.47669   0.00000  Uiso   1.00
C666   C     0.83467   0.83259   0.02331   0.00000  Uiso   1.00
C667   C     0.85174   0.79875   0.45163   0.00000  Uiso   1.00
C668   C     0.81493   0.86791   0.04837   0.00000  Uiso   1.00
C669   C     0.78812   0.90401   0.48221   0.00000  Uiso   1.00
C670   C     0.87855   0.76265   0.01779   0.00000  Uiso   1.00
Cu671  Cu    0.83333   0.88022   0.25000   0.00000  Uiso   1.00
Cu672  Cu    0.83333   0.78645   0.25000   0.00000  Uiso   1.00
H673   H     0.86512   0.77138   0.38716   0.00000  Uiso   1.00
H674   H     0.80154   0.89529   0.11284   0.00000  Uiso   1.00
H675   H     0.77601   0.92884   0.04804   0.00000  Uiso   1.00
H676   H     0.89066   0.73782   0.45196   0.00000  Uiso   1.00
H677   H     0.70411   0.75878   0.26296   0.00000  Uiso   1.00
H678   H     0.96256   0.90789   0.23704   0.00000  Uiso   1.00
H679   H     0.96269   0.75886   0.26324   0.00000  Uiso   1.00
H680   H     0.70398   0.90781   0.23676   0.00000  Uiso   1.00
H681   H     0.78143   0.70948   0.20733   0.00000  Uiso   1.00
H682   H     0.88524   0.95718   0.29267   0.00000  Uiso   1.00
H683   H     0.88527   0.71103   0.29264   0.00000  Uiso   1.00
H684   H     0.78140   0.95563   0.20736   0.00000  Uiso   1.00
N685   N     0.83333   0.95069   0.25000   0.00000  Uiso   1.00
N686   N     0.83333   0.71598   0.25000   0.00000  Uiso   1.00
O687   O     0.77321   0.87291   0.25000   0.00000  Uiso   1.00
O688   O     0.89345   0.79375   0.25000   0.00000  Uiso   1.00
O689   O     0.89345   0.87291   0.25001   0.00000  Uiso   1.00
O690   O     0.77321   0.79375   0.25000   0.00000  Uiso   1.00
O691   O     0.83332   0.87293   0.18513   0.00000  Uiso   1.00
O692   O     0.83334   0.79373   0.31487   0.00000  Uiso   1.00
O693   O     0.83334   0.87293   0.31487   0.00000  Uiso   1.00
O694   O     0.83332   0.79373   0.18513   0.00000  Uiso   1.00
C695   C     0.79122   0.91096   0.38331   0.00000  Uiso   1.00
C696   C     0.81176   0.95435   0.38144   0.00000  Uiso   1.00
C697   C     0.79450   0.99134   0.35778   0.00000  Uiso   1.00
C698   C     0.75708   0.98504   0.33533   0.00000  Uiso   1.00
C699   C     0.73672   0.94181   0.33668   0.00000  Uiso   1.00
C700   C     0.75372   0.90476   0.36049   0.00000  Uiso   1.00
H701   H     0.84091   0.95948   0.39848   0.00000  Uiso   1.00
H702   H     0.81022   0.69150   0.35671   0.00000  Uiso   1.00
H703   H     0.74389   0.68031   0.31683   0.00000  Uiso   1.00
H704   H     0.70772   0.93707   0.31937   0.00000  Uiso   1.00
H705   H     0.73778   0.87136   0.36120   0.00000  Uiso   1.00
C706   C     0.87544   0.75570   0.11669   0.00000  Uiso   1.00
C707   C     0.91294   0.76191   0.13951   0.00000  Uiso   1.00
C708   C     0.92994   0.72486   0.16332   0.00000  Uiso   1.00
C709   C     0.90959   0.68163   0.16467   0.00000  Uiso   1.00
C710   C     0.87217   0.67532   0.14222   0.00000  Uiso   1.00
C711   C     0.85491   0.71231   0.11856   0.00000  Uiso   1.00
H712   H     0.92888   0.79530   0.13880   0.00000  Uiso   1.00
H713   H     0.95895   0.72960   0.18063   0.00000  Uiso   1.00
H714   H     0.92277   0.98636   0.18317   0.00000  Uiso   1.00
H715   H     0.85645   0.97517   0.14329   0.00000  Uiso   1.00
H716   H     0.82576   0.70718   0.10152   0.00000  Uiso   1.00
C717   C     0.75970   0.93885   0.46584   0.00000  Uiso   1.00
N718   N     0.73675   0.96685   0.45332   0.00000  Uiso   1.00
C719   C     0.90697   0.72782   0.03416   0.00000  Uiso   1.00
N720   N     0.92991   0.69982   0.04668   0.00000  Uiso   1.00
C721   C     0.08733   0.16666   0.74996   0.00000  Uiso   1.00
C722   C     0.24600   0.16667   0.75004   0.00000  Uiso   1.00
C723   C     0.12534   0.23610   0.52792   0.00000  Uiso   1.00
C724   C     0.20800   0.09724   0.97208   0.00000  Uiso   1.00
C725   C     0.02134   0.12478   0.75715   0.00000  Uiso   1.00
C726   C     0.31199   0.20855   0.74285   0.00000  Uiso   1.00
C727   C     0.31207   0.12482   0.75729   0.00000  Uiso   1.00
C728   C     0.02126   0.20851   0.74271   0.00000  Uiso   1.00
C729   C     0.29060   0.16668   0.75006   0.00000  Uiso   1.00
C730   C     0.04274   0.16665   0.74994   0.00000  Uiso   1.00
C731   C     0.13775   0.02440   0.72641   0.00000  Uiso   1.00
C732   C     0.19558   0.30893   0.77359   0.00000  Uiso   1.00
C733   C     0.19558   0.02526   0.77359   0.00000  Uiso   1.00
C734   C     0.13776   0.30807   0.72641   0.00000  Uiso   1.00
C735   C     0.16820   0.16616   0.66438   0.00000  Uiso   1.00
C736   C     0.16513   0.16717   0.83562   0.00000  Uiso   1.00
C737   C     0.18293   0.13218   0.90598   0.00000  Uiso   1.00
C738   C     0.15040   0.20115   0.59403   0.00000  Uiso   1.00
C739   C     0.16315   0.16830   0.88400   0.00000  Uiso   1.00
C740   C     0.17019   0.16503   0.61600   0.00000  Uiso   1.00
C741   C     0.14319   0.20491   0.90802   0.00000  Uiso   1.00
C742   C     0.19014   0.12842   0.59198   0.00000  Uiso   1.00
C743   C     0.14291   0.20390   0.95521   0.00000  Uiso   1.00
C744   C     0.19042   0.12944   0.54479   0.00000  Uiso   1.00
C745   C     0.16533   0.16741   0.97669   0.00000  Uiso   1.00
C746   C     0.16801   0.16592   0.52331   0.00000  Uiso   1.00
C747   C     0.18508   0.13209   0.95163   0.00000  Uiso   1.00
C748   C     0.14826   0.20125   0.54837   0.00000  Uiso   1.00
C749   C     0.12145   0.23735   0.98221   0.00000  Uiso   1.00
C750   C     0.21188   0.09599   0.51779   0.00000  Uiso   1.00
Cu751  Cu    0.16667   0.21355   0.75000   0.00000  Uiso   1.00
Cu752  Cu    0.16667   0.11978   0.75000   0.00000  Uiso   1.00
H753   H     0.19846   0.10471   0.88716   0.00000  Uiso   1.00
H754   H     0.13488   0.22862   0.61284   0.00000  Uiso   1.00
H755   H     0.10934   0.26218   0.54804   0.00000  Uiso   1.00
H756   H     0.22399   0.07116   0.95196   0.00000  Uiso   1.00
H757   H     0.03744   0.09211   0.76296   0.00000  Uiso   1.00
H758   H     0.29589   0.24122   0.73704   0.00000  Uiso   1.00
H759   H     0.29602   0.09219   0.76324   0.00000  Uiso   1.00
H760   H     0.03731   0.24114   0.73676   0.00000  Uiso   1.00
H761   H     0.11476   0.04282   0.70733   0.00000  Uiso   1.00
H762   H     0.21857   0.29052   0.79267   0.00000  Uiso   1.00
H763   H     0.21860   0.04437   0.79264   0.00000  Uiso   1.00
H764   H     0.11473   0.28897   0.70736   0.00000  Uiso   1.00
N765   N     0.16667   0.28402   0.75000   0.00000  Uiso   1.00
N766   N     0.16667   0.04931   0.75000   0.00000  Uiso   1.00
O767   O     0.10655   0.20625   0.75000   0.00000  Uiso   1.00
O768   O     0.22679   0.12709   0.75000   0.00000  Uiso   1.00
O769   O     0.22679   0.20625   0.75001   0.00000  Uiso   1.00
O770   O     0.10655   0.12709   0.75000   0.00000  Uiso   1.00
O771   O     0.16666   0.20627   0.68513   0.00000  Uiso   1.00
O772   O     0.16668   0.12707   0.81487   0.00000  Uiso   1.00
O773   O     0.16668   0.20627   0.81487   0.00000  Uiso   1.00
O774   O     0.16666   0.12707   0.68513   0.00000  Uiso   1.00
C775   C     0.12456   0.24430   0.88331   0.00000  Uiso   1.00
C776   C     0.14509   0.28769   0.88144   0.00000  Uiso   1.00
C777   C     0.12783   0.32468   0.85778   0.00000  Uiso   1.00
C778   C     0.09042   0.31837   0.83533   0.00000  Uiso   1.00
C779   C     0.07006   0.27514   0.83668   0.00000  Uiso   1.00
C780   C     0.08706   0.23809   0.86049   0.00000  Uiso   1.00
H781   H     0.17424   0.29282   0.89848   0.00000  Uiso   1.00
H782   H     0.14355   0.02483   0.85671   0.00000  Uiso   1.00
H783   H     0.07723   0.01364   0.81683   0.00000  Uiso   1.00
H784   H     0.04105   0.27040   0.81937   0.00000  Uiso   1.00
H785   H     0.07112   0.20470   0.86120   0.00000  Uiso   1.00
C786   C     0.20878   0.08904   0.61669   0.00000  Uiso   1.00
C787   C     0.24628   0.09524   0.63951   0.00000  Uiso   1.00
C788   C     0.26328   0.05819   0.66332   0.00000  Uiso   1.00
C789   C     0.24292   0.01496   0.66467   0.00000  Uiso   1.00
C790   C     0.20550   0.00866   0.64222   0.00000  Uiso   1.00
C791   C     0.18824   0.04565   0.61856   0.00000  Uiso   1.00
H792   H     0.26222   0.12864   0.63880   0.00000  Uiso   1.00
H793   H     0.29228   0.06293   0.68063   0.00000  Uiso   1.00
H794   H     0.25611   0.31969   0.68317   0.00000  Uiso   1.00
H795   H     0.18978   0.30850   0.64329   0.00000  Uiso   1.00
H796   H     0.15909   0.04052   0.60152   0.00000  Uiso   1.00
C797   C     0.09303   0.27218   0.96584   0.00000  Uiso   1.00
N798   N     0.07009   0.30018   0.95332   0.00000  Uiso   1.00
C799   C     0.24030   0.06115   0.53416   0.00000  Uiso   1.00
N800   N     0.26325   0.03315   0.54668   0.00000  Uiso   1.00
C801   C     0.42067   0.16666   0.74996   0.00000  Uiso   1.00
C802   C     0.57934   0.16667   0.75004   0.00000  Uiso   1.00
C803   C     0.45867   0.23610   0.52792   0.00000  Uiso   1.00
C804   C     0.54133   0.09724   0.97208   0.00000  Uiso   1.00
C805   C     0.35467   0.12478   0.75715   0.00000  Uiso   1.00
C806   C     0.64533   0.20855   0.74285   0.00000  Uiso   1.00
C807   C     0.64540   0.12482   0.75729   0.00000  Uiso   1.00
C808   C     0.35460   0.20851   0.74271   0.00000  Uiso   1.00
C809   C     0.62393   0.16668   0.75006   0.00000  Uiso   1.00
C810   C     0.37607   0.16665   0.74994   0.00000  Uiso   1.00
C811   C     0.47109   0.02440   0.72641   0.00000  Uiso   1.00
C812   C     0.52891   0.30893   0.77359   0.00000  Uiso   1.00
C813   C     0.52891   0.02526   0.77359   0.00000  Uiso   1.00
C814   C     0.47109   0.30807   0.72641   0.00000  Uiso   1.00
C815   C     0.50154   0.16616   0.66438   0.00000  Uiso   1.00
C816   C     0.49846   0.16717   0.83562   0.00000  Uiso   1.00
C817   C     0.51627   0.13218   0.90598   0.00000  Uiso   1.00
C818   C     0.48373   0.20115   0.59403   0.00000  Uiso   1.00
C819   C     0.49648   0.16830   0.88400   0.00000  Uiso   1.00
C820   C     0.50352   0.16503   0.61600   0.00000  Uiso   1.00
C821   C     0.47652   0.20491   0.90802   0.00000  Uiso   1.00
C822   C     0.52348   0.12842   0.59198   0.00000  Uiso   1.00
C823   C     0.47625   0.20390   0.95521   0.00000  Uiso   1.00
C824   C     0.52375   0.12944   0.54479   0.00000  Uiso   1.00
C825   C     0.49866   0.16741   0.97669   0.00000  Uiso   1.00
C826   C     0.50134   0.16592   0.52331   0.00000  Uiso   1.00
C827   C     0.51841   0.13209   0.95163   0.00000  Uiso   1.00
C828   C     0.48159   0.20125   0.54837   0.00000  Uiso   1.00
C829   C     0.45479   0.23735   0.98221   0.00000  Uiso   1.00
C830   C     0.54521   0.09599   0.51779   0.00000  Uiso   1.00
Cu831  Cu    0.50000   0.21355   0.75000   0.00000  Uiso   1.00
Cu832  Cu    0.50000   0.11978   0.75000   0.00000  Uiso   1.00
H833   H     0.53179   0.10471   0.88716   0.00000  Uiso   1.00
H834   H     0.46821   0.22862   0.61284   0.00000  Uiso   1.00
H835   H     0.44267   0.26218   0.54804   0.00000  Uiso   1.00
H836   H     0.55733   0.07116   0.95196   0.00000  Uiso   1.00
H837   H     0.37078   0.09211   0.76296   0.00000  Uiso   1.00
H838   H     0.62922   0.24122   0.73704   0.00000  Uiso   1.00
H839   H     0.62936   0.09219   0.76324   0.00000  Uiso   1.00
H840   H     0.37064   0.24114   0.73676   0.00000  Uiso   1.00
H841   H     0.44809   0.04282   0.70733   0.00000  Uiso   1.00
H842   H     0.55191   0.29052   0.79267   0.00000  Uiso   1.00
H843   H     0.55194   0.04437   0.79264   0.00000  Uiso   1.00
H844   H     0.44807   0.28897   0.70736   0.00000  Uiso   1.00
N845   N     0.50000   0.28402   0.75000   0.00000  Uiso   1.00
N846   N     0.50000   0.04931   0.75000   0.00000  Uiso   1.00
O847   O     0.43988   0.20625   0.75000   0.00000  Uiso   1.00
O848   O     0.56012   0.12709   0.75000   0.00000  Uiso   1.00
O849   O     0.56012   0.20625   0.75001   0.00000  Uiso   1.00
O850   O     0.43988   0.12709   0.75000   0.00000  Uiso   1.00
O851   O     0.49999   0.20627   0.68513   0.00000  Uiso   1.00
O852   O     0.50001   0.12707   0.81487   0.00000  Uiso   1.00
O853   O     0.50001   0.20627   0.81487   0.00000  Uiso   1.00
O854   O     0.49999   0.12707   0.68513   0.00000  Uiso   1.00
C855   C     0.45789   0.24430   0.88331   0.00000  Uiso   1.00
C856   C     0.47843   0.28769   0.88144   0.00000  Uiso   1.00
C857   C     0.46117   0.32468   0.85778   0.00000  Uiso   1.00
C858   C     0.42375   0.31837   0.83533   0.00000  Uiso   1.00
C859   C     0.40339   0.27514   0.83668   0.00000  Uiso   1.00
C860   C     0.42039   0.23809   0.86049   0.00000  Uiso   1.00
H861   H     0.50757   0.29282   0.89848   0.00000  Uiso   1.00
H862   H     0.47688   0.02483   0.85671   0.00000  Uiso   1.00
H863   H     0.41056   0.01364   0.81683   0.00000  Uiso   1.00
H864   H     0.37438   0.27040   0.81937   0.00000  Uiso   1.00
H865   H     0.40445   0.20470   0.86120   0.00000  Uiso   1.00
C866   C     0.54211   0.08904   0.61669   0.00000  Uiso   1.00
C867   C     0.57961   0.09524   0.63951   0.00000  Uiso   1.00
C868   C     0.59661   0.05819   0.66332   0.00000  Uiso   1.00
C869   C     0.57625   0.01496   0.66467   0.00000  Uiso   1.00
C870   C     0.53883   0.00866   0.64222   0.00000  Uiso   1.00
C871   C     0.52157   0.04565   0.61856   0.00000  Uiso   1.00
H872   H     0.59555   0.12864   0.63880   0.00000  Uiso   1.00
H873   H     0.62562   0.06293   0.68063   0.00000  Uiso   1.00
H874   H     0.58944   0.31969   0.68317   0.00000  Uiso   1.00
H875   H     0.52312   0.30850   0.64329   0.00000  Uiso   1.00
H876   H     0.49243   0.04052   0.60152   0.00000  Uiso   1.00
C877   C     0.42637   0.27218   0.96584   0.00000  Uiso   1.00
N878   N     0.40342   0.30018   0.95332   0.00000  Uiso   1.00
C879   C     0.57363   0.06115   0.53416   0.00000  Uiso   1.00
N880   N     0.59658   0.03315   0.54668   0.00000  Uiso   1.00
C881   C     0.75400   0.16666   0.74996   0.00000  Uiso   1.00
C882   C     0.91267   0.16667   0.75004   0.00000  Uiso   1.00
C883   C     0.79200   0.23610   0.52792   0.00000  Uiso   1.00
C884   C     0.87466   0.09724   0.97208   0.00000  Uiso   1.00
C885   C     0.68801   0.12478   0.75715   0.00000  Uiso   1.00
C886   C     0.97866   0.20855   0.74285   0.00000  Uiso   1.00
C887   C     0.97874   0.12482   0.75729   0.00000  Uiso   1.00
C888   C     0.68793   0.20851   0.74271   0.00000  Uiso   1.00
C889   C     0.95726   0.16668   0.75006   0.00000  Uiso   1.00
C890   C     0.70940   0.16665   0.74994   0.00000  Uiso   1.00
C891   C     0.80442   0.02440   0.72641   0.00000  Uiso   1.00
C892   C     0.86225   0.30893   0.77359   0.00000  Uiso   1.00
C893   C     0.86224   0.02526   0.77359   0.00000  Uiso   1.00
C894   C     0.80442   0.30807   0.72641   0.00000  Uiso   1.00
C895   C     0.83487   0.16616   0.66438   0.00000  Uiso   1.00
C896   C     0.83180   0.16717   0.83562   0.00000  Uiso   1.00
C897   C     0.84960   0.13218   0.90598   0.00000  Uiso   1.00
C898   C     0.81707   0.20115   0.59403   0.00000  Uiso   1.00
C899   C     0.82981   0.16830   0.88400   0.00000  Uiso   1.00
C900   C     0.83686   0.16503   0.61600   0.00000  Uiso   1.00
C901   C     0.80986   0.20491   0.90802   0.00000  Uiso   1.00
C902   C     0.85681   0.12842   0.59198   0.00000  Uiso   1.00
C903   C     0.80958   0.20390   0.95521   0.00000  Uiso   1.00
C904   C     0.85709   0.12944   0.54479   0.00000  Uiso   1.00
C905   C     0.83199   0.16741   0.97669   0.00000  Uiso   1.00
C906   C     0.83467   0.16592   0.52331   0.00000  Uiso   1.00
C907   C     0.85174   0.13209   0.95163   0.00000  Uiso   1.00
C908   C     0.81493   0.20125   0.54837   0.00000  Uiso   1.00
C909   C     0.78812   0.23735   0.98221   0.00000  Uiso   1.00
C910   C     0.87855   0.09599   0.51779   0.00000  Uiso   1.00
Cu911  Cu    0.83333   0.21355   0.75000   0.00000  Uiso   1.00
Cu912  Cu    0.83333   0.11978   0.75000   0.00000  Uiso   1.00
H913   H     0.86512   0.10471   0.88716   0.00000  Uiso   1.00
H914   H     0.80154   0.22862   0.61284   0.00000  Uiso   1.00
H915   H     0.77601   0.26218   0.54804   0.00000  Uiso   1.00
H916   H     0.89066   0.07116   0.95196   0.00000  Uiso   1.00
H917   H     0.70411   0.09211   0.76296   0.00000  Uiso   1.00
H918   H     0.96256   0.24122   0.73704   0.00000  Uiso   1.00
H919   H     0.96269   0.09219   0.76324   0.00000  Uiso   1.00
H920   H     0.70398   0.24114   0.73676   0.00000  Uiso   1.00
H921   H     0.78143   0.04282   0.70733   0.00000  Uiso   1.00
H922   H     0.88524   0.29052   0.79267   0.00000  Uiso   1.00
H923   H     0.88527   0.04437   0.79264   0.00000  Uiso   1.00
H924   H     0.78140   0.28897   0.70736   0.00000  Uiso   1.00
N925   N     0.83333   0.28402   0.75000   0.00000  Uiso   1.00
N926   N     0.83333   0.04931   0.75000   0.00000  Uiso   1.00
O927   O     0.77321   0.20625   0.75000   0.00000  Uiso   1.00
O928   O     0.89345   0.12709   0.75000   0.00000  Uiso   1.00
O929   O     0.89345   0.20625   0.75001   0.00000  Uiso   1.00
O930   O     0.77321   0.12709   0.75000   0.00000  Uiso   1.00
O931   O     0.83332   0.20627   0.68513   0.00000  Uiso   1.00
O932   O     0.83334   0.12707   0.81487   0.00000  Uiso   1.00
O933   O     0.83334   0.20627   0.81487   0.00000  Uiso   1.00
O934   O     0.83332   0.12707   0.68513   0.00000  Uiso   1.00
C935   C     0.79122   0.24430   0.88331   0.00000  Uiso   1.00
C936   C     0.81176   0.28769   0.88144   0.00000  Uiso   1.00
C937   C     0.79450   0.32468   0.85778   0.00000  Uiso   1.00
C938   C     0.75708   0.31837   0.83533   0.00000  Uiso   1.00
C939   C     0.73672   0.27514   0.83668   0.00000  Uiso   1.00
C940   C     0.75372   0.23809   0.86049   0.00000  Uiso   1.00
H941   H     0.84091   0.29282   0.89848   0.00000  Uiso   1.00
H942   H     0.81022   0.02483   0.85671   0.00000  Uiso   1.00
H943   H     0.74389   0.01364   0.81683   0.00000  Uiso   1.00
H944   H     0.70772   0.27040   0.81937   0.00000  Uiso   1.00
H945   H     0.73778   0.20470   0.86120   0.00000  Uiso   1.00
C946   C     0.87544   0.08904   0.61669   0.00000  Uiso   1.00
C947   C     0.91294   0.09524   0.63951   0.00000  Uiso   1.00
C948   C     0.92994   0.05819   0.66332   0.00000  Uiso   1.00
C949   C     0.90959   0.01496   0.66467   0.00000  Uiso   1.00
C950   C     0.87217   0.00866   0.64222   0.00000  Uiso   1.00
C951   C     0.85491   0.04565   0.61856   0.00000  Uiso   1.00
H952   H     0.92888   0.12864   0.63880   0.00000  Uiso   1.00
H953   H     0.95895   0.06293   0.68063   0.00000  Uiso   1.00
H954   H     0.92277   0.31969   0.68317   0.00000  Uiso   1.00
H955   H     0.85645   0.30850   0.64329   0.00000  Uiso   1.00
H956   H     0.82576   0.04052   0.60152   0.00000  Uiso   1.00
C957   C     0.75970   0.27218   0.96584   0.00000  Uiso   1.00
N958   N     0.73675   0.30018   0.95332   0.00000  Uiso   1.00
C959   C     0.90697   0.06115   0.53416   0.00000  Uiso   1.00
N960   N     0.92991   0.03315   0.54668   0.00000  Uiso   1.00
C961   C     0.08733   0.50000   0.74996   0.00000  Uiso   1.00
C962   C     0.24600   0.50000   0.75004   0.00000  Uiso   1.00
C963   C     0.12534   0.56943   0.52792   0.00000  Uiso   1.00
C964   C     0.20800   0.43057   0.97208   0.00000  Uiso   1.00
C965   C     0.02134   0.45811   0.75715   0.00000  Uiso   1.00
C966   C     0.31199   0.54189   0.74285   0.00000  Uiso   1.00
C967   C     0.31207   0.45815   0.75729   0.00000  Uiso   1.00
C968   C     0.02126   0.54185   0.74271   0.00000  Uiso   1.00
C969   C     0.29060   0.50002   0.75006   0.00000  Uiso   1.00
C970   C     0.04274   0.49998   0.74994   0.00000  Uiso   1.00
C971   C     0.13775   0.35774   0.72641   0.00000  Uiso   1.00
C972   C     0.19558   0.64226   0.77359   0.00000  Uiso   1.00
C973   C     0.19558   0.35860   0.77359   0.00000  Uiso   1.00
C974   C     0.13776   0.64140   0.72641   0.00000  Uiso   1.00
C975   C     0.16820   0.49950   0.66438   0.00000  Uiso   1.00
C976   C     0.16513   0.50051   0.83562   0.00000  Uiso   1.00
C977   C     0.18293   0.46552   0.90598   0.00000  Uiso   1.00
C978   C     0.15040   0.53448   0.59403   0.00000  Uiso   1.00
C979   C     0.16315   0.50163   0.88400   0.00000  Uiso   1.00
C980   C     0.17019   0.49837   0.61600   0.00000  Uiso   1.00
C981   C     0.14319   0.53825   0.90802   0.00000  Uiso   1.00
C982   C     0.19014   0.46175   0.59198   0.00000  Uiso   1.00
C983   C     0.14291   0.53723   0.95521   0.00000  Uiso   1.00
C984   C     0.19042   0.46277   0.54479   0.00000  Uiso   1.00
C985   C     0.16533   0.50074   0.97669   0.00000  Uiso   1.00
C986   C     0.16801   0.49926   0.52331   0.00000  Uiso   1.00
C987   C     0.18508   0.46542   0.95163   0.00000  Uiso   1.00
C988   C     0.14826   0.53458   0.54837   0.00000  Uiso   1.00
C989   C     0.12145   0.57068   0.98221   0.00000  Uiso   1.00
C990   C     0.21188   0.42932   0.51779   0.00000  Uiso   1.00
Cu991  Cu    0.16667   0.54689   0.75000   0.00000  Uiso   1.00
Cu992  Cu    0.16667   0.45311   0.75000   0.00000  Uiso   1.00
H993   H     0.19846   0.43804   0.88716   0.00000  Uiso   1.00
H994   H     0.13488   0.56196   0.61284   0.00000  Uiso   1.00
H995   H     0.10934   0.59551   0.54804   0.00000  Uiso   1.00
H996   H     0.22399   0.40449   0.95196   0.00000  Uiso   1.00
H997   H     0.03744   0.42544   0.76296   0.00000  Uiso   1.00
H998   H     0.29589   0.57456   0.73704   0.00000  Uiso   1.00
H999   H     0.29602   0.42552   0.76324   0.00000  Uiso   1.00
H1000  H     0.03731   0.57448   0.73676   0.00000  Uiso   1.00
H1001  H     0.11476   0.37615   0.70733   0.00000  Uiso   1.00
H1002  H     0.21857   0.62385   0.79267   0.00000  Uiso   1.00
H1003  H     0.21860   0.37770   0.79264   0.00000  Uiso   1.00
H1004  H     0.11473   0.62230   0.70736   0.00000  Uiso   1.00
N1005  N     0.16667   0.61736   0.75000   0.00000  Uiso   1.00
N1006  N     0.16667   0.38264   0.75000   0.00000  Uiso   1.00
O1007  O     0.10655   0.53958   0.75000   0.00000  Uiso   1.00
O1008  O     0.22679   0.46042   0.75000   0.00000  Uiso   1.00
O1009  O     0.22679   0.53958   0.75001   0.00000  Uiso   1.00
O1010  O     0.10655   0.46042   0.75000   0.00000  Uiso   1.00
O1011  O     0.16666   0.53960   0.68513   0.00000  Uiso   1.00
O1012  O     0.16668   0.46040   0.81487   0.00000  Uiso   1.00
O1013  O     0.16668   0.53960   0.81487   0.00000  Uiso   1.00
O1014  O     0.16666   0.46040   0.68513   0.00000  Uiso   1.00
C1015  C     0.12456   0.57763   0.88331   0.00000  Uiso   1.00
C1016  C     0.14509   0.62102   0.88144   0.00000  Uiso   1.00
C1017  C     0.12783   0.65801   0.85778   0.00000  Uiso   1.00
C1018  C     0.09042   0.65171   0.83533   0.00000  Uiso   1.00
C1019  C     0.07006   0.60848   0.83668   0.00000  Uiso   1.00
C1020  C     0.08706   0.57143   0.86049   0.00000  Uiso   1.00
H1021  H     0.17424   0.62615   0.89848   0.00000  Uiso   1.00
H1022  H     0.14355   0.35817   0.85671   0.00000  Uiso   1.00
H1023  H     0.07723   0.34697   0.81683   0.00000  Uiso   1.00
H1024  H     0.04105   0.60373   0.81937   0.00000  Uiso   1.00
H1025  H     0.07112   0.53803   0.86120   0.00000  Uiso   1.00
C1026  C     0.20878   0.42237   0.61669   0.00000  Uiso   1.00
C1027  C     0.24628   0.42857   0.63951   0.00000  Uiso   1.00
C1028  C     0.26328   0.39152   0.66332   0.00000  Uiso   1.00
C1029  C     0.24292   0.34829   0.66467   0.00000  Uiso   1.00
C1030  C     0.20550   0.34199   0.64222   0.00000  Uiso   1.00
C1031  C     0.18824   0.37898   0.61856   0.00000  Uiso   1.00
H1032  H     0.26222   0.46197   0.63880   0.00000  Uiso   1.00
H1033  H     0.29228   0.39627   0.68063   0.00000  Uiso   1.00
H1034  H     0.25611   0.65303   0.68317   0.00000  Uiso   1.00
H1035  H     0.18978   0.64183   0.64329   0.00000  Uiso   1.00
H1036  H     0.15909   0.37385   0.60152   0.00000  Uiso   1.00
C1037  C     0.09303   0.60551   0.96584   0.00000  Uiso   1.00
N1038  N     0.07009   0.63351   0.95332   0.00000  Uiso   1.00
C1039  C     0.24030   0.39449   0.53416   0.00000  Uiso   1.00
N1040  N     0.26325   0.36649   0.54668   0.00000  Uiso   1.00
C1041  C     0.42067   0.50000   0.74996   0.00000  Uiso   1.00
C1042  C     0.57934   0.50000   0.75004   0.00000  Uiso   1.00
C1043  C     0.45867   0.56943   0.52792   0.00000  Uiso   1.00
C1044  C     0.54133   0.43057   0.97208   0.00000  Uiso   1.00
C1045  C     0.35467   0.45811   0.75715   0.00000  Uiso   1.00
C1046  C     0.64533   0.54189   0.74285   0.00000  Uiso   1.00
C1047  C     0.64540   0.45815   0.75729   0.00000  Uiso   1.00
C1048  C     0.35460   0.54185   0.74271   0.00000  Uiso   1.00
C1049  C     0.62393   0.50002   0.75006   0.00000  Uiso   1.00
C1050  C     0.37607   0.49998   0.74994   0.00000  Uiso   1.00
C1051  C     0.47109   0.35774   0.72641   0.00000  Uiso   1.00
C1052  C     0.52891   0.64226   0.77359   0.00000  Uiso   1.00
C1053  C     0.52891   0.35860   0.77359   0.00000  Uiso   1.00
C1054  C     0.47109   0.64140   0.72641   0.00000  Uiso   1.00
C1055  C     0.50154   0.49950   0.66438   0.00000  Uiso   1.00
C1056  C     0.49846   0.50051   0.83562   0.00000  Uiso   1.00
C1057  C     0.51627   0.46552   0.90598   0.00000  Uiso   1.00
C1058  C     0.48373   0.53448   0.59403   0.00000  Uiso   1.00
C1059  C     0.49648   0.50163   0.88400   0.00000  Uiso   1.00
C1060  C     0.50352   0.49837   0.61600   0.00000  Uiso   1.00
C1061  C     0.47652   0.53825   0.90802   0.00000  Uiso   1.00
C1062  C     0.52348   0.46175   0.59198   0.00000  Uiso   1.00
C1063  C     0.47625   0.53723   0.95521   0.00000  Uiso   1.00
C1064  C     0.52375   0.46277   0.54479   0.00000  Uiso   1.00
C1065  C     0.49866   0.50074   0.97669   0.00000  Uiso   1.00
C1066  C     0.50134   0.49926   0.52331   0.00000  Uiso   1.00
C1067  C     0.51841   0.46542   0.95163   0.00000  Uiso   1.00
C1068  C     0.48159   0.53458   0.54837   0.00000  Uiso   1.00
C1069  C     0.45479   0.57068   0.98221   0.00000  Uiso   1.00
C1070  C     0.54521   0.42932   0.51779   0.00000  Uiso   1.00
Cu1071 Cu    0.50000   0.54689   0.75000   0.00000  Uiso   1.00
Cu1072 Cu    0.50000   0.45311   0.75000   0.00000  Uiso   1.00
H1073  H     0.53179   0.43804   0.88716   0.00000  Uiso   1.00
H1074  H     0.46821   0.56196   0.61284   0.00000  Uiso   1.00
H1075  H     0.44267   0.59551   0.54804   0.00000  Uiso   1.00
H1076  H     0.55733   0.40449   0.95196   0.00000  Uiso   1.00
H1077  H     0.37078   0.42544   0.76296   0.00000  Uiso   1.00
H1078  H     0.62922   0.57456   0.73704   0.00000  Uiso   1.00
H1079  H     0.62936   0.42552   0.76324   0.00000  Uiso   1.00
H1080  H     0.37064   0.57448   0.73676   0.00000  Uiso   1.00
H1081  H     0.44809   0.37615   0.70733   0.00000  Uiso   1.00
H1082  H     0.55191   0.62385   0.79267   0.00000  Uiso   1.00
H1083  H     0.55194   0.37770   0.79264   0.00000  Uiso   1.00
H1084  H     0.44807   0.62230   0.70736   0.00000  Uiso   1.00
N1085  N     0.50000   0.61736   0.75000   0.00000  Uiso   1.00
N1086  N     0.50000   0.38264   0.75000   0.00000  Uiso   1.00
O1087  O     0.43988   0.53958   0.75000   0.00000  Uiso   1.00
O1088  O     0.56012   0.46042   0.75000   0.00000  Uiso   1.00
O1089  O     0.56012   0.53958   0.75001   0.00000  Uiso   1.00
O1090  O     0.43988   0.46042   0.75000   0.00000  Uiso   1.00
O1091  O     0.49999   0.53960   0.68513   0.00000  Uiso   1.00
O1092  O     0.50001   0.46040   0.81487   0.00000  Uiso   1.00
O1093  O     0.50001   0.53960   0.81487   0.00000  Uiso   1.00
O1094  O     0.49999   0.46040   0.68513   0.00000  Uiso   1.00
C1095  C     0.45789   0.57763   0.88331   0.00000  Uiso   1.00
C1096  C     0.47843   0.62102   0.88144   0.00000  Uiso   1.00
C1097  C     0.46117   0.65801   0.85778   0.00000  Uiso   1.00
C1098  C     0.42375   0.65171   0.83533   0.00000  Uiso   1.00
C1099  C     0.40339   0.60848   0.83668   0.00000  Uiso   1.00
C1100  C     0.42039   0.57143   0.86049   0.00000  Uiso   1.00
H1101  H     0.50757   0.62615   0.89848   0.00000  Uiso   1.00
H1102  H     0.47688   0.35817   0.85671   0.00000  Uiso   1.00
H1103  H     0.41056   0.34697   0.81683   0.00000  Uiso   1.00
H1104  H     0.37438   0.60373   0.81937   0.00000  Uiso   1.00
H1105  H     0.40445   0.53803   0.86120   0.00000  Uiso   1.00
C1106  C     0.54211   0.42237   0.61669   0.00000  Uiso   1.00
C1107  C     0.57961   0.42857   0.63951   0.00000  Uiso   1.00
C1108  C     0.59661   0.39152   0.66332   0.00000  Uiso   1.00
C1109  C     0.57625   0.34829   0.66467   0.00000  Uiso   1.00
C1110  C     0.53883   0.34199   0.64222   0.00000  Uiso   1.00
C1111  C     0.52157   0.37898   0.61856   0.00000  Uiso   1.00
H1112  H     0.59555   0.46197   0.63880   0.00000  Uiso   1.00
H1113  H     0.62562   0.39627   0.68063   0.00000  Uiso   1.00
H1114  H     0.58944   0.65303   0.68317   0.00000  Uiso   1.00
H1115  H     0.52312   0.64183   0.64329   0.00000  Uiso   1.00
H1116  H     0.49243   0.37385   0.60152   0.00000  Uiso   1.00
C1117  C     0.42637   0.60551   0.96584   0.00000  Uiso   1.00
N1118  N     0.40342   0.63351   0.95332   0.00000  Uiso   1.00
C1119  C     0.57363   0.39449   0.53416   0.00000  Uiso   1.00
N1120  N     0.59658   0.36649   0.54668   0.00000  Uiso   1.00
C1121  C     0.75400   0.50000   0.74996   0.00000  Uiso   1.00
C1122  C     0.91267   0.50000   0.75004   0.00000  Uiso   1.00
C1123  C     0.79200   0.56943   0.52792   0.00000  Uiso   1.00
C1124  C     0.87466   0.43057   0.97208   0.00000  Uiso   1.00
C1125  C     0.68801   0.45811   0.75715   0.00000  Uiso   1.00
C1126  C     0.97866   0.54189   0.74285   0.00000  Uiso   1.00
C1127  C     0.97874   0.45815   0.75729   0.00000  Uiso   1.00
C1128  C     0.68793   0.54185   0.74271   0.00000  Uiso   1.00
C1129  C     0.95726   0.50002   0.75006   0.00000  Uiso   1.00
C1130  C     0.70940   0.49998   0.74994   0.00000  Uiso   1.00
C1131  C     0.80442   0.35774   0.72641   0.00000  Uiso   1.00
C1132  C     0.86225   0.64226   0.77359   0.00000  Uiso   1.00
C1133  C     0.86224   0.35860   0.77359   0.00000  Uiso   1.00
C1134  C     0.80442   0.64140   0.72641   0.00000  Uiso   1.00
C1135  C     0.83487   0.49950   0.66438   0.00000  Uiso   1.00
C1136  C     0.83180   0.50051   0.83562   0.00000  Uiso   1.00
C1137  C     0.84960   0.46552   0.90598   0.00000  Uiso   1.00
C1138  C     0.81707   0.53448   0.59403   0.00000  Uiso   1.00
C1139  C     0.82981   0.50163   0.88400   0.00000  Uiso   1.00
C1140  C     0.83686   0.49837   0.61600   0.00000  Uiso   1.00
C1141  C     0.80986   0.53825   0.90802   0.00000  Uiso   1.00
C1142  C     0.85681   0.46175   0.59198   0.00000  Uiso   1.00
C1143  C     0.80958   0.53723   0.95521   0.00000  Uiso   1.00
C1144  C     0.85709   0.46277   0.54479   0.00000  Uiso   1.00
C1145  C     0.83199   0.50074   0.97669   0.00000  Uiso   1.00
C1146  C     0.83467   0.49926   0.52331   0.00000  Uiso   1.00
C1147  C     0.85174   0.46542   0.95163   0.00000  Uiso   1.00
C1148  C     0.81493   0.53458   0.54837   0.00000  Uiso   1.00
C1149  C     0.78812   0.57068   0.98221   0.00000  Uiso   1.00
C1150  C     0.87855   0.42932   0.51779   0.00000  Uiso   1.00
Cu1151 Cu    0.83333   0.54689   0.75000   0.00000  Uiso   1.00
Cu1152 Cu    0.83333   0.45311   0.75000   0.00000  Uiso   1.00
H1153  H     0.86512   0.43804   0.88716   0.00000  Uiso   1.00
H1154  H     0.80154   0.56196   0.61284   0.00000  Uiso   1.00
H1155  H     0.77601   0.59551   0.54804   0.00000  Uiso   1.00
H1156  H     0.89066   0.40449   0.95196   0.00000  Uiso   1.00
H1157  H     0.70411   0.42544   0.76296   0.00000  Uiso   1.00
H1158  H     0.96256   0.57456   0.73704   0.00000  Uiso   1.00
H1159  H     0.96269   0.42552   0.76324   0.00000  Uiso   1.00
H1160  H     0.70398   0.57448   0.73676   0.00000  Uiso   1.00
H1161  H     0.78143   0.37615   0.70733   0.00000  Uiso   1.00
H1162  H     0.88524   0.62385   0.79267   0.00000  Uiso   1.00
H1163  H     0.88527   0.37770   0.79264   0.00000  Uiso   1.00
H1164  H     0.78140   0.62230   0.70736   0.00000  Uiso   1.00
N1165  N     0.83333   0.61736   0.75000   0.00000  Uiso   1.00
N1166  N     0.83333   0.38264   0.75000   0.00000  Uiso   1.00
O1167  O     0.77321   0.53958   0.75000   0.00000  Uiso   1.00
O1168  O     0.89345   0.46042   0.75000   0.00000  Uiso   1.00
O1169  O     0.89345   0.53958   0.75001   0.00000  Uiso   1.00
O1170  O     0.77321   0.46042   0.75000   0.00000  Uiso   1.00
O1171  O     0.83332   0.53960   0.68513   0.00000  Uiso   1.00
O1172  O     0.83334   0.46040   0.81487   0.00000  Uiso   1.00
O1173  O     0.83334   0.53960   0.81487   0.00000  Uiso   1.00
O1174  O     0.83332   0.46040   0.68513   0.00000  Uiso   1.00
C1175  C     0.79122   0.57763   0.88331   0.00000  Uiso   1.00
C1176  C     0.81176   0.62102   0.88144   0.00000  Uiso   1.00
C1177  C     0.79450   0.65801   0.85778   0.00000  Uiso   1.00
C1178  C     0.75708   0.65171   0.83533   0.00000  Uiso   1.00
C1179  C     0.73672   0.60848   0.83668   0.00000  Uiso   1.00
C1180  C     0.75372   0.57143   0.86049   0.00000  Uiso   1.00
H1181  H     0.84091   0.62615   0.89848   0.00000  Uiso   1.00
H1182  H     0.81022   0.35817   0.85671   0.00000  Uiso   1.00
H1183  H     0.74389   0.34697   0.81683   0.00000  Uiso   1.00
H1184  H     0.70772   0.60373   0.81937   0.00000  Uiso   1.00
H1185  H     0.73778   0.53803   0.86120   0.00000  Uiso   1.00
C1186  C     0.87544   0.42237   0.61669   0.00000  Uiso   1.00
C1187  C     0.91294   0.42857   0.63951   0.00000  Uiso   1.00
C1188  C     0.92994   0.39152   0.66332   0.00000  Uiso   1.00
C1189  C     0.90959   0.34829   0.66467   0.00000  Uiso   1.00
C1190  C     0.87217   0.34199   0.64222   0.00000  Uiso   1.00
C1191  C     0.85491   0.37898   0.61856   0.00000  Uiso   1.00
H1192  H     0.92888   0.46197   0.63880   0.00000  Uiso   1.00
H1193  H     0.95895   0.39627   0.68063   0.00000  Uiso   1.00
H1194  H     0.92277   0.65303   0.68317   0.00000  Uiso   1.00
H1195  H     0.85645   0.64183   0.64329   0.00000  Uiso   1.00
H1196  H     0.82576   0.37385   0.60152   0.00000  Uiso   1.00
C1197  C     0.75970   0.60551   0.96584   0.00000  Uiso   1.00
N1198  N     0.73675   0.63351   0.95332   0.00000  Uiso   1.00
C1199  C     0.90697   0.39449   0.53416   0.00000  Uiso   1.00
N1200  N     0.92991   0.36649   0.54668   0.00000  Uiso   1.00
C1201  C     0.08733   0.83333   0.74996   0.00000  Uiso   1.00
C1202  C     0.24600   0.83334   0.75004   0.00000  Uiso   1.00
C1203  C     0.12534   0.90276   0.52792   0.00000  Uiso   1.00
C1204  C     0.20800   0.76390   0.97208   0.00000  Uiso   1.00
C1205  C     0.02134   0.79145   0.75715   0.00000  Uiso   1.00
C1206  C     0.31199   0.87522   0.74285   0.00000  Uiso   1.00
C1207  C     0.31207   0.79149   0.75729   0.00000  Uiso   1.00
C1208  C     0.02126   0.87518   0.74271   0.00000  Uiso   1.00
C1209  C     0.29060   0.83335   0.75006   0.00000  Uiso   1.00
C1210  C     0.04274   0.83332   0.74994   0.00000  Uiso   1.00
C1211  C     0.13775   0.69107   0.72641   0.00000  Uiso   1.00
C1212  C     0.19558   0.97560   0.77359   0.00000  Uiso   1.00
C1213  C     0.19558   0.69193   0.77359   0.00000  Uiso   1.00
C1214  C     0.13776   0.97474   0.72641   0.00000  Uiso   1.00
C1215  C     0.16820   0.83283   0.66438   0.00000  Uiso   1.00
C1216  C     0.16513   0.83384   0.83562   0.00000  Uiso   1.00
C1217  C     0.18293   0.79885   0.90598   0.00000  Uiso   1.00
C1218  C     0.15040   0.86782   0.59403   0.00000  Uiso   1.00
C1219  C     0.16315   0.83497   0.88400   0.00000  Uiso   1.00
C1220  C     0.17019   0.83170   0.61600   0.00000  Uiso   1.00
C1221  C     0.14319   0.87158   0.90802   0.00000  Uiso   1.00
C1222  C     0.19014   0.79509   0.59198   0.00000  Uiso   1.00
C1223  C     0.14291   0.87056   0.95521   0.00000  Uiso   1.00
C1224  C     0.19042   0.79610   0.54479   0.00000  Uiso   1.00
C1225  C     0.16533   0.83408   0.97669   0.00000  Uiso   1.00
C1226  C     0.16801   0.83259   0.52331   0.00000  Uiso   1.00
C1227  C     0.18508   0.79875   0.95163   0.00000  Uiso   1.00
C1228  C     0.14826   0.86791   0.54837   0.00000  Uiso   1.00
C1229  C     0.12145   0.90401   0.98221   0.00000  Uiso   1.00
C1230  C     0.21188   0.76265   0.51779   0.00000  Uiso   1.00
Cu1231 Cu    0.16667   0.88022   0.75000   0.00000  Uiso   1.00
Cu1232 Cu    0.16667   0.78645   0.75000   0.00000  Uiso   1.00
H1233  H     0.19846   0.77138   0.88716   0.00000  Uiso   1.00
H1234  H     0.13488   0.89529   0.61284   0.00000  Uiso   1.00
H1235  H     0.10934   0.92884   0.54804   0.00000  Uiso   1.00
H1236  H     0.22399   0.73782   0.95196   0.00000  Uiso   1.00
H1237  H     0.03744   0.75878   0.76296   0.00000  Uiso   1.00
H1238  H     0.29589   0.90789   0.73704   0.00000  Uiso   1.00
H1239  H     0.29602   0.75886   0.76324   0.00000  Uiso   1.00
H1240  H     0.03731   0.90781   0.73676   0.00000  Uiso   1.00
H1241  H     0.11476   0.70948   0.70733   0.00000  Uiso   1.00
H1242  H     0.21857   0.95718   0.79267   0.00000  Uiso   1.00
H1243  H     0.21860   0.71103   0.79264   0.00000  Uiso   1.00
H1244  H     0.11473   0.95563   0.70736   0.00000  Uiso   1.00
N1245  N     0.16667   0.95069   0.75000   0.00000  Uiso   1.00
N1246  N     0.16667   0.71598   0.75000   0.00000  Uiso   1.00
O1247  O     0.10655   0.87291   0.75000   0.00000  Uiso   1.00
O1248  O     0.22679   0.79375   0.75000   0.00000  Uiso   1.00
O1249  O     0.22679   0.87291   0.75001   0.00000  Uiso   1.00
O1250  O     0.10655   0.79375   0.75000   0.00000  Uiso   1.00
O1251  O     0.16666   0.87293   0.68513   0.00000  Uiso   1.00
O1252  O     0.16668   0.79373   0.81487   0.00000  Uiso   1.00
O1253  O     0.16668   0.87293   0.81487   0.00000  Uiso   1.00
O1254  O     0.16666   0.79373   0.68513   0.00000  Uiso   1.00
C1255  C     0.12456   0.91096   0.88331   0.00000  Uiso   1.00
C1256  C     0.14509   0.95435   0.88144   0.00000  Uiso   1.00
C1257  C     0.12783   0.99134   0.85778   0.00000  Uiso   1.00
C1258  C     0.09042   0.98504   0.83533   0.00000  Uiso   1.00
C1259  C     0.07006   0.94181   0.83668   0.00000  Uiso   1.00
C1260  C     0.08706   0.90476   0.86049   0.00000  Uiso   1.00
H1261  H     0.17424   0.95948   0.89848   0.00000  Uiso   1.00
H1262  H     0.14355   0.69150   0.85671   0.00000  Uiso   1.00
H1263  H     0.07723   0.68031   0.81683   0.00000  Uiso   1.00
H1264  H     0.04105   0.93707   0.81937   0.00000  Uiso   1.00
H1265  H     0.07112   0.87136   0.86120   0.00000  Uiso   1.00
C1266  C     0.20878   0.75570   0.61669   0.00000  Uiso   1.00
C1267  C     0.24628   0.76191   0.63951   0.00000  Uiso   1.00
C1268  C     0.26328   0.72486   0.66332   0.00000  Uiso   1.00
C1269  C     0.24292   0.68163   0.66467   0.00000  Uiso   1.00
C1270  C     0.20550   0.67532   0.64222   0.00000  Uiso   1.00
C1271  C     0.18824   0.71231   0.61856   0.00000  Uiso   1.00
H1272  H     0.26222   0.79530   0.63880   0.00000  Uiso   1.00
H1273  H     0.29228   0.72960   0.68063   0.00000  Uiso   1.00
H1274  H     0.25611   0.98636   0.68317   0.00000  Uiso   1.00
H1275  H     0.18978   0.97517   0.64329   0.00000  Uiso   1.00
H1276  H     0.15909   0.70718   0.60152   0.00000  Uiso   1.00
C1277  C     0.09303   0.93885   0.96584   0.00000  Uiso   1.00
N1278  N     0.07009   0.96685   0.95332   0.00000  Uiso   1.00
C1279  C     0.24030   0.72782   0.53416   0.00000  Uiso   1.00
N1280  N     0.26325   0.69982   0.54668   0.00000  Uiso   1.00
C1281  C     0.42067   0.83333   0.74996   0.00000  Uiso   1.00
C1282  C     0.57934   0.83334   0.75004   0.00000  Uiso   1.00
C1283  C     0.45867   0.90276   0.52792   0.00000  Uiso   1.00
C1284  C     0.54133   0.76390   0.97208   0.00000  Uiso   1.00
C1285  C     0.35467   0.79145   0.75715   0.00000  Uiso   1.00
C1286  C     0.64533   0.87522   0.74285   0.00000  Uiso   1.00
C1287  C     0.64540   0.79149   0.75729   0.00000  Uiso   1.00
C1288  C     0.35460   0.87518   0.74271   0.00000  Uiso   1.00
C1289  C     0.62393   0.83335   0.75006   0.00000  Uiso   1.00
C1290  C     0.37607   0.83332   0.74994   0.00000  Uiso   1.00
C1291  C     0.47109   0.69107   0.72641   0.00000  Uiso   1.00
C1292  C     0.52891   0.97560   0.77359   0.00000  Uiso   1.00
C1293  C     0.52891   0.69193   0.77359   0.00000  Uiso   1.00
C1294  C     0.47109   0.97474   0.72641   0.00000  Uiso   1.00
C1295  C     0.50154   0.83283   0.66438   0.00000  Uiso   1.00
C1296  C     0.49846   0.83384   0.83562   0.00000  Uiso   1.00
C1297  C     0.51627   0.79885   0.90598   0.00000  Uiso   1.00
C1298  C     0.48373   0.86782   0.59403   0.00000  Uiso   1.00
C1299  C     0.49648   0.83497   0.88400   0.00000  Uiso   1.00
C1300  C     0.50352   0.83170   0.61600   0.00000  Uiso   1.00
C1301  C     0.47652   0.87158   0.90802   0.00000  Uiso   1.00
C1302  C     0.52348   0.79509   0.59198   0.00000  Uiso   1.00
C1303  C     0.47625   0.87056   0.95521   0.00000  Uiso   1.00
C1304  C     0.52375   0.79610   0.54479   0.00000  Uiso   1.00
C1305  C     0.49866   0.83408   0.97669   0.00000  Uiso   1.00
C1306  C     0.50134   0.83259   0.52331   0.00000  Uiso   1.00
C1307  C     0.51841   0.79875   0.95163   0.00000  Uiso   1.00
C1308  C     0.48159   0.86791   0.54837   0.00000  Uiso   1.00
C1309  C     0.45479   0.90401   0.98221   0.00000  Uiso   1.00
C1310  C     0.54521   0.76265   0.51779   0.00000  Uiso   1.00
Cu1311 Cu    0.50000   0.88022   0.75000   0.00000  Uiso   1.00
Cu1312 Cu    0.50000   0.78645   0.75000   0.00000  Uiso   1.00
H1313  H     0.53179   0.77138   0.88716   0.00000  Uiso   1.00
H1314  H     0.46821   0.89529   0.61284   0.00000  Uiso   1.00
H1315  H     0.44267   0.92884   0.54804   0.00000  Uiso   1.00
H1316  H     0.55733   0.73782   0.95196   0.00000  Uiso   1.00
H1317  H     0.37078   0.75878   0.76296   0.00000  Uiso   1.00
H1318  H     0.62922   0.90789   0.73704   0.00000  Uiso   1.00
H1319  H     0.62936   0.75886   0.76324   0.00000  Uiso   1.00
H1320  H     0.37064   0.90781   0.73676   0.00000  Uiso   1.00
H1321  H     0.44809   0.70948   0.70733   0.00000  Uiso   1.00
H1322  H     0.55191   0.95718   0.79267   0.00000  Uiso   1.00
H1323  H     0.55194   0.71103   0.79264   0.00000  Uiso   1.00
H1324  H     0.44807   0.95563   0.70736   0.00000  Uiso   1.00
N1325  N     0.50000   0.95069   0.75000   0.00000  Uiso   1.00
N1326  N     0.50000   0.71598   0.75000   0.00000  Uiso   1.00
O1327  O     0.43988   0.87291   0.75000   0.00000  Uiso   1.00
O1328  O     0.56012   0.79375   0.75000   0.00000  Uiso   1.00
O1329  O     0.56012   0.87291   0.75001   0.00000  Uiso   1.00
O1330  O     0.43988   0.79375   0.75000   0.00000  Uiso   1.00
O1331  O     0.49999   0.87293   0.68513   0.00000  Uiso   1.00
O1332  O     0.50001   0.79373   0.81487   0.00000  Uiso   1.00
O1333  O     0.50001   0.87293   0.81487   0.00000  Uiso   1.00
O1334  O     0.49999   0.79373   0.68513   0.00000  Uiso   1.00
C1335  C     0.45789   0.91096   0.88331   0.00000  Uiso   1.00
C1336  C     0.47843   0.95435   0.88144   0.00000  Uiso   1.00
C1337  C     0.46117   0.99134   0.85778   0.00000  Uiso   1.00
C1338  C     0.42375   0.98504   0.83533   0.00000  Uiso   1.00
C1339  C     0.40339   0.94181   0.83668   0.00000  Uiso   1.00
C1340  C     0.42039   0.90476   0.86049   0.00000  Uiso   1.00
H1341  H     0.50757   0.95948   0.89848   0.00000  Uiso   1.00
H1342  H     0.47688   0.69150   0.85671   0.00000  Uiso   1.00
H1343  H     0.41056   0.68031   0.81683   0.00000  Uiso   1.00
H1344  H     0.37438   0.93707   0.81937   0.00000  Uiso   1.00
H1345  H     0.40445   0.87136   0.86120   0.00000  Uiso   1.00
C1346  C     0.54211   0.75570   0.61669   0.00000  Uiso   1.00
C1347  C     0.57961   0.76191   0.63951   0.00000  Uiso   1.00
C1348  C     0.59661   0.72486   0.66332   0.00000  Uiso   1.00
C1349  C     0.57625   0.68163   0.66467   0.00000  Uiso   1.00
C1350  C     0.53883   0.67532   0.64222   0.00000  Uiso   1.00
C1351  C     0.52157   0.71231   0.61856   0.00000  Uiso   1.00
H1352  H     0.59555   0.79530   0.63880   0.00000  Uiso   1.00
H1353  H     0.62562   0.72960   0.68063   0.00000  Uiso   1.00
H1354  H     0.58944   0.98636   0.68317   0.00000  Uiso   1.00
H1355  H     0.52312   0.97517   0.64329   0.00000  Uiso   1.00
H1356  H     0.49243   0.70718   0.60152   0.00000  Uiso   1.00
C1357  C     0.42637   0.93885   0.96584   0.00000  Uiso   1.00
N1358  N     0.40342   0.96685   0.95332   0.00000  Uiso   1.00
C1359  C     0.57363   0.72782   0.53416   0.00000  Uiso   1.00
N1360  N     0.59658   0.69982   0.54668   0.00000  Uiso   1.00
C1361  C     0.75400   0.83333   0.74996   0.00000  Uiso   1.00
C1362  C     0.91267   0.83334   0.75004   0.00000  Uiso   1.00
C1363  C     0.79200   0.90276   0.52792   0.00000  Uiso   1.00
C1364  C     0.87466   0.76390   0.97208   0.00000  Uiso   1.00
C1365  C     0.68801   0.79145   0.75715   0.00000  Uiso   1.00
C1366  C     0.97866   0.87522   0.74285   0.00000  Uiso   1.00
C1367  C     0.97874   0.79149   0.75729   0.00000  Uiso   1.00
C1368  C     0.68793   0.87518   0.74271   0.00000  Uiso   1.00
C1369  C     0.95726   0.83335   0.75006   0.00000  Uiso   1.00
C1370  C     0.70940   0.83332   0.74994   0.00000  Uiso   1.00
C1371  C     0.80442   0.69107   0.72641   0.00000  Uiso   1.00
C1372  C     0.86225   0.97560   0.77359   0.00000  Uiso   1.00
C1373  C     0.86224   0.69193   0.77359   0.00000  Uiso   1.00
C1374  C     0.80442   0.97474   0.72641   0.00000  Uiso   1.00
C1375  C     0.83487   0.83283   0.66438   0.00000  Uiso   1.00
C1376  C     0.83180   0.83384   0.83562   0.00000  Uiso   1.00
C1377  C     0.84960   0.79885   0.90598   0.00000  Uiso   1.00
C1378  C     0.81707   0.86782   0.59403   0.00000  Uiso   1.00
C1379  C     0.82981   0.83497   0.88400   0.00000  Uiso   1.00
C1380  C     0.83686   0.83170   0.61600   0.00000  Uiso   1.00
C1381  C     0.80986   0.87158   0.90802   0.00000  Uiso   1.00
C1382  C     0.85681   0.79509   0.59198   0.00000  Uiso   1.00
C1383  C     0.80958   0.87056   0.95521   0.00000  Uiso   1.00
C1384  C     0.85709   0.79610   0.54479   0.00000  Uiso   1.00
C1385  C     0.83199   0.83408   0.97669   0.00000  Uiso   1.00
C1386  C     0.83467   0.83259   0.52331   0.00000  Uiso   1.00
C1387  C     0.85174   0.79875   0.95163   0.00000  Uiso   1.00
C1388  C     0.81493   0.86791   0.54837   0.00000  Uiso   1.00
C1389  C     0.78812   0.90401   0.98221   0.00000  Uiso   1.00
C1390  C     0.87855   0.76265   0.51779   0.00000  Uiso   1.00
Cu1391 Cu    0.83333   0.88022   0.75000   0.00000  Uiso   1.00
Cu1392 Cu    0.83333   0.78645   0.75000   0.00000  Uiso   1.00
H1393  H     0.86512   0.77138   0.88716   0.00000  Uiso   1.00
H1394  H     0.80154   0.89529   0.61284   0.00000  Uiso   1.00
H1395  H     0.77601   0.92884   0.54804   0.00000  Uiso   1.00
H1396  H     0.89066   0.73782   0.95196   0.00000  Uiso   1.00
H1397  H     0.70411   0.75878   0.76296   0.00000  Uiso   1.00
H1398  H     0.96256   0.90789   0.73704   0.00000  Uiso   1.00
H1399  H     0.96269   0.75886   0.76324   0.00000  Uiso   1.00
H1400  H     0.70398   0.90781   0.73676   0.00000  Uiso   1.00
H1401  H     0.78143   0.70948   0.70733   0.00000  Uiso   1.00
H1402  H     0.88524   0.95718   0.79267   0.00000  Uiso   1.00
H1403  H     0.88527   0.71103   0.79264   0.00000  Uiso   1.00
H1404  H     0.78140   0.95563   0.70736   0.00000  Uiso   1.00
N1405  N     0.83333   0.95069   0.75000   0.00000  Uiso   1.00
N1406  N     0.83333   0.71598   0.75000   0.00000  Uiso   1.00
O1407  O     0.77321   0.87291   0.75000   0.00000  Uiso   1.00
O1408  O     0.89345   0.79375   0.75000   0.00000  Uiso   1.00
O1409  O     0.89345   0.87291   0.75001   0.00000  Uiso   1.00
O1410  O     0.77321   0.79375   0.75000   0.00000  Uiso   1.00
O1411  O     0.83332   0.87293   0.68513   0.00000  Uiso   1.00
O1412  O     0.83334   0.79373   0.81487   0.00000  Uiso   1.00
O1413  O     0.83334   0.87293   0.81487   0.00000  Uiso   1.00
O1414  O     0.83332   0.79373   0.68513   0.00000  Uiso   1.00
C1415  C     0.79122   0.91096   0.88331   0.00000  Uiso   1.00
C1416  C     0.81176   0.95435   0.88144   0.00000  Uiso   1.00
C1417  C     0.79450   0.99134   0.85778   0.00000  Uiso   1.00
C1418  C     0.75708   0.98504   0.83533   0.00000  Uiso   1.00
C1419  C     0.73672   0.94181   0.83668   0.00000  Uiso   1.00
C1420  C     0.75372   0.90476   0.86049   0.00000  Uiso   1.00
H1421  H     0.84091   0.95948   0.89848   0.00000  Uiso   1.00
H1422  H     0.81022   0.69150   0.85671   0.00000  Uiso   1.00
H1423  H     0.74389   0.68031   0.81683   0.00000  Uiso   1.00
H1424  H     0.70772   0.93707   0.81937   0.00000  Uiso   1.00
H1425  H     0.73778   0.87136   0.86120   0.00000  Uiso   1.00
C1426  C     0.87544   0.75570   0.61669   0.00000  Uiso   1.00
C1427  C     0.91294   0.76191   0.63951   0.00000  Uiso   1.00
C1428  C     0.92994   0.72486   0.66332   0.00000  Uiso   1.00
C1429  C     0.90959   0.68163   0.66467   0.00000  Uiso   1.00
C1430  C     0.87217   0.67532   0.64222   0.00000  Uiso   1.00
C1431  C     0.85491   0.71231   0.61856   0.00000  Uiso   1.00
H1432  H     0.92888   0.79530   0.63880   0.00000  Uiso   1.00
H1433  H     0.95895   0.72960   0.68063   0.00000  Uiso   1.00
H1434  H     0.92277   0.98636   0.68317   0.00000  Uiso   1.00
H1435  H     0.85645   0.97517   0.64329   0.00000  Uiso   1.00
H1436  H     0.82576   0.70718   0.60152   0.00000  Uiso   1.00
C1437  C     0.75970   0.93885   0.96584   0.00000  Uiso   1.00
N1438  N     0.73675   0.96685   0.95332   0.00000  Uiso   1.00
C1439  C     0.90697   0.72782   0.53416   0.00000  Uiso   1.00
N1440  N     0.92991   0.69982   0.54668   0.00000  Uiso   1.00
loop_
_geom_bond_atom_site_label_1
_geom_bond_atom_site_label_2
_geom_bond_distance
_geom_bond_site_symmetry_2
_ccdc_geom_bond_type
C1     O50     1.288   .     A
C1     O47     1.288   .     A
C1     C10     1.448   .     S
C2     O48     1.288   .     A
C2     O49     1.288   .     A
C2     C9      1.448   .     S
C3     C28     1.391   .     A
C3     H35     1.087   .     S
C3     C749    1.389   1_554 S
C4     H36     1.087   .     S
C4     C27     1.391   .     A
C4     C750    1.389   .     S
C5     H37     1.083   .     S
C5     C10     1.401   .     A
C5     C167    1.383   1_455 S
C6     C9      1.401   .     A
C6     H38     1.083   .     S
C6     C88     1.383   .     S
C7     C9      1.401   .     A
C7     H39     1.083   .     S
C7     C85     1.383   .     S
C8     C10     1.401   .     A
C8     H40     1.083   .     S
C8     C166    1.383   1_455 S
C11    H41     1.081   .     S
C11    N46     1.366   .     A
C11    C494    1.414   1_545 S
C12    H42     1.081   .     S
C12    N45     1.366   .     A
C12    C253    1.414   .     S
C13    N46     1.366   .     A
C13    H43     1.081   .     S
C13    C492    1.414   1_545 S
C14    N45     1.366   .     A
C14    H44     1.081   .     S
C14    C251    1.414   .     S
C15    O51     1.295   .     A
C15    C20     1.466   .     S
C15    O54     1.288   .     A
C16    O53     1.288   .     A
C16    O52     1.295   .     A
C16    C19     1.466   .     S
C17    H33     1.086   .     S
C17    C27     1.383   .     A
C17    C19     1.389   .     A
C18    C28     1.383   .     A
C18    H34     1.086   .     S
C18    C20     1.389   .     A
C19    C21     1.420   .     A
C20    C22     1.420   .     A
C21    C55     1.485   .     S
C21    C23     1.429   .     A
C22    C66     1.485   .     S
C22    C24     1.429   .     A
C23    C29     1.429   .     A
C23    C25     1.431   .     A
C24    C26     1.431   .     A
C24    C30     1.429   .     A
C25    C27     1.407   .     A
C25    C746    1.414   .     S
C26    C28     1.407   .     A
C26    C745    1.414   1_554 S
C29    C77     1.446   .     S
C29    C723    1.389   .     S
C30    C79     1.446   .     S
C30    C724    1.389   1_554 S
Cu31   O47     1.963   .     S
Cu31   O49     1.963   .     S
Cu31   Cu32    2.670   .     S
Cu31   O53     1.977   .     S
Cu31   O51     1.970   .     S
Cu31   N45     2.006   .     S
Cu32   O52     1.970   .     S
Cu32   O48     1.963   .     S
Cu32   O54     1.977   .     S
Cu32   O50     1.963   .     S
Cu32   N46     2.006   .     S
C55    C56     1.406   .     A
C55    C60     1.405   .     A
C56    C57     1.398   .     A
C56    H61     1.083   .     S
C57    C58     1.398   .     A
C57    H302    1.082   .     S
C58    C59     1.398   .     A
C58    H303    1.083   .     S
C59    H64     1.082   .     S
C59    C60     1.399   .     A
C60    H65     1.083   .     S
H62    C537    1.082   1_545 S
H63    C538    1.083   1_545 S
C66    C71     1.406   .     A
C66    C67     1.405   .     A
C67    H72     1.083   .     S
C67    C68     1.399   .     A
C68    C69     1.398   .     A
C68    H73     1.082   .     S
C69    C70     1.398   .     A
C69    H554    1.083   1_545 S
C70    C71     1.398   .     A
C70    H555    1.082   1_545 S
C71    H76     1.083   .     S
H74    C309    1.083   .     S
H75    C310    1.082   .     S
C77    N78     1.158   .     T
C79    N80     1.158   .     T
C81    O130    1.288   .     A
C81    O127    1.288   .     A
C81    C90     1.448   .     S
C82    O128    1.288   .     A
C82    O129    1.288   .     A
C82    C89     1.448   .     S
C83    C108    1.391   .     A
C83    H115    1.087   .     S
C83    C829    1.389   1_554 S
C84    H116    1.087   .     S
C84    C107    1.391   .     A
C84    C830    1.389   .     S
C85    H117    1.083   .     S
C85    C90     1.401   .     A
C86    C89     1.401   .     A
C86    H118    1.083   .     S
C86    C168    1.383   .     S
C87    C89     1.401   .     A
C87    H119    1.083   .     S
C87    C165    1.383   .     S
C88    C90     1.401   .     A
C88    H120    1.083   .     S
C91    H121    1.081   .     S
C91    N126    1.366   .     A
C91    C574    1.414   1_545 S
C92    H122    1.081   .     S
C92    N125    1.366   .     A
C92    C333    1.414   .     S
C93    N126    1.366   .     A
C93    H123    1.081   .     S
C93    C572    1.414   1_545 S
C94    N125    1.366   .     A
C94    H124    1.081   .     S
C94    C331    1.414   .     S
C95    O131    1.295   .     A
C95    C100    1.466   .     S
C95    O134    1.288   .     A
C96    O133    1.288   .     A
C96    O132    1.295   .     A
C96    C99     1.466   .     S
C97    H113    1.086   .     S
C97    C107    1.383   .     A
C97    C99     1.389   .     A
C98    C108    1.383   .     A
C98    H114    1.086   .     S
C98    C100    1.389   .     A
C99    C101    1.420   .     A
C100   C102    1.420   .     A
C101   C135    1.485   .     S
C101   C103    1.429   .     A
C102   C146    1.485   .     S
C102   C104    1.429   .     A
C103   C109    1.429   .     A
C103   C105    1.431   .     A
C104   C106    1.431   .     A
C104   C110    1.429   .     A
C105   C107    1.407   .     A
C105   C826    1.414   .     S
C106   C108    1.407   .     A
C106   C825    1.414   1_554 S
C109   C157    1.446   .     S
C109   C803    1.389   .     S
C110   C159    1.446   .     S
C110   C804    1.389   1_554 S
Cu111  O127    1.963   .     S
Cu111  O129    1.963   .     S
Cu111  Cu112   2.670   .     S
Cu111  O133    1.977   .     S
Cu111  O131    1.970   .     S
Cu111  N125    2.006   .     S
Cu112  O132    1.970   .     S
Cu112  O128    1.963   .     S
Cu112  O134    1.977   .     S
Cu112  O130    1.963   .     S
Cu112  N126    2.006   .     S
C135   C136    1.406   .     A
C135   C140    1.405   .     A
C136   C137    1.398   .     A
C136   H141    1.083   .     S
C137   C138    1.398   .     A
C137   H382    1.082   .     S
C138   C139    1.398   .     A
C138   H383    1.083   .     S
C139   H144    1.082   .     S
C139   C140    1.399   .     A
C140   H145    1.083   .     S
H142   C617    1.082   1_545 S
H143   C618    1.083   1_545 S
C146   C151    1.406   .     A
C146   C147    1.405   .     A
C147   H152    1.083   .     S
C147   C148    1.399   .     A
C148   C149    1.398   .     A
C148   H153    1.082   .     S
C149   C150    1.398   .     A
C149   H634    1.083   1_545 S
C150   C151    1.398   .     A
C150   H635    1.082   1_545 S
C151   H156    1.083   .     S
H154   C389    1.083   .     S
H155   C390    1.082   .     S
C157   N158    1.158   .     T
C159   N160    1.158   .     T
C161   O210    1.288   .     A
C161   O207    1.288   .     A
C161   C170    1.448   .     S
C162   O208    1.288   .     A
C162   O209    1.288   .     A
C162   C169    1.448   .     S
C163   C188    1.391   .     A
C163   H195    1.087   .     S
C163   C909    1.389   1_554 S
C164   H196    1.087   .     S
C164   C187    1.391   .     A
C164   C910    1.389   .     S
C165   H197    1.083   .     S
C165   C170    1.401   .     A
C166   C169    1.401   .     A
C166   H198    1.083   .     S
C166   C8      1.383   1_655 S
C167   C169    1.401   .     A
C167   H199    1.083   .     S
C167   C5      1.383   1_655 S
C168   C170    1.401   .     A
C168   H200    1.083   .     S
C171   H201    1.081   .     S
C171   N206    1.366   .     A
C171   C654    1.414   1_545 S
C172   H202    1.081   .     S
C172   N205    1.366   .     A
C172   C413    1.414   .     S
C173   N206    1.366   .     A
C173   H203    1.081   .     S
C173   C652    1.414   1_545 S
C174   N205    1.366   .     A
C174   H204    1.081   .     S
C174   C411    1.414   .     S
C175   O211    1.295   .     A
C175   C180    1.466   .     S
C175   O214    1.288   .     A
C176   O213    1.288   .     A
C176   O212    1.295   .     A
C176   C179    1.466   .     S
C177   H193    1.086   .     S
C177   C187    1.383   .     A
C177   C179    1.389   .     A
C178   C188    1.383   .     A
C178   H194    1.086   .     S
C178   C180    1.389   .     A
C179   C181    1.420   .     A
C180   C182    1.420   .     A
C181   C215    1.485   .     S
C181   C183    1.429   .     A
C182   C226    1.485   .     S
C182   C184    1.429   .     A
C183   C189    1.429   .     A
C183   C185    1.431   .     A
C184   C186    1.431   .     A
C184   C190    1.429   .     A
C185   C187    1.407   .     A
C185   C906    1.414   .     S
C186   C188    1.407   .     A
C186   C905    1.414   1_554 S
C189   C237    1.446   .     S
C189   C883    1.389   .     S
C190   C239    1.446   .     S
C190   C884    1.389   1_554 S
Cu191  O207    1.963   .     S
Cu191  O209    1.963   .     S
Cu191  Cu192   2.670   .     S
Cu191  O213    1.977   .     S
Cu191  O211    1.970   .     S
Cu191  N205    2.006   .     S
Cu192  O212    1.970   .     S
Cu192  O208    1.963   .     S
Cu192  O214    1.977   .     S
Cu192  O210    1.963   .     S
Cu192  N206    2.006   .     S
C215   C216    1.406   .     A
C215   C220    1.405   .     A
C216   C217    1.398   .     A
C216   H221    1.083   .     S
C217   C218    1.398   .     A
C217   H462    1.082   .     S
C218   C219    1.398   .     A
C218   H463    1.083   .     S
C219   H224    1.082   .     S
C219   C220    1.399   .     A
C220   H225    1.083   .     S
H222   C697    1.082   1_545 S
H223   C698    1.083   1_545 S
C226   C231    1.406   .     A
C226   C227    1.405   .     A
C227   H232    1.083   .     S
C227   C228    1.399   .     A
C228   C229    1.398   .     A
C228   H233    1.082   .     S
C229   C230    1.398   .     A
C229   H714    1.083   1_545 S
C230   C231    1.398   .     A
C230   H715    1.082   1_545 S
C231   H236    1.083   .     S
H234   C469    1.083   .     S
H235   C470    1.082   .     S
C237   N238    1.158   .     T
C239   N240    1.158   .     T
C241   O290    1.288   .     A
C241   O287    1.288   .     A
C241   C250    1.448   .     S
C242   O288    1.288   .     A
C242   O289    1.288   .     A
C242   C249    1.448   .     S
C243   C268    1.391   .     A
C243   H275    1.087   .     S
C243   C989    1.389   1_554 S
C244   H276    1.087   .     S
C244   C267    1.391   .     A
C244   C990    1.389   .     S
C245   H277    1.083   .     S
C245   C250    1.401   .     A
C245   C407    1.383   1_455 S
C246   C249    1.401   .     A
C246   H278    1.083   .     S
C246   C328    1.383   .     S
C247   C249    1.401   .     A
C247   H279    1.083   .     S
C247   C325    1.383   .     S
C248   C250    1.401   .     A
C248   H280    1.083   .     S
C248   C406    1.383   1_455 S
C251   H281    1.081   .     S
C251   N286    1.366   .     A
C252   H282    1.081   .     S
C252   N285    1.366   .     A
C252   C493    1.414   .     S
C253   N286    1.366   .     A
C253   H283    1.081   .     S
C254   N285    1.366   .     A
C254   H284    1.081   .     S
C254   C491    1.414   .     S
C255   O291    1.295   .     A
C255   C260    1.466   .     S
C255   O294    1.288   .     A
C256   O293    1.288   .     A
C256   O292    1.295   .     A
C256   C259    1.466   .     S
C257   H273    1.086   .     S
C257   C267    1.383   .     A
C257   C259    1.389   .     A
C258   C268    1.383   .     A
C258   H274    1.086   .     S
C258   C260    1.389   .     A
C259   C261    1.420   .     A
C260   C262    1.420   .     A
C261   C295    1.485   .     S
C261   C263    1.429   .     A
C262   C306    1.485   .     S
C262   C264    1.429   .     A
C263   C269    1.429   .     A
C263   C265    1.431   .     A
C264   C266    1.431   .     A
C264   C270    1.429   .     A
C265   C267    1.407   .     A
C265   C986    1.414   .     S
C266   C268    1.407   .     A
C266   C985    1.414   1_554 S
C269   C317    1.446   .     S
C269   C963    1.389   .     S
C270   C319    1.446   .     S
C270   C964    1.389   1_554 S
Cu271  O287    1.963   .     S
Cu271  O289    1.963   .     S
Cu271  Cu272   2.670   .     S
Cu271  O293    1.977   .     S
Cu271  O291    1.970   .     S
Cu271  N285    2.006   .     S
Cu272  O292    1.970   .     S
Cu272  O288    1.963   .     S
Cu272  O294    1.977   .     S
Cu272  O290    1.963   .     S
Cu272  N286    2.006   .     S
C295   C296    1.406   .     A
C295   C300    1.405   .     A
C296   C297    1.398   .     A
C296   H301    1.083   .     S
C297   C298    1.398   .     A
C297   H542    1.082   .     S
C298   C299    1.398   .     A
C298   H543    1.083   .     S
C299   H304    1.082   .     S
C299   C300    1.399   .     A
C300   H305    1.083   .     S
C306   C311    1.406   .     A
C306   C307    1.405   .     A
C307   H312    1.083   .     S
C307   C308    1.399   .     A
C308   C309    1.398   .     A
C308   H313    1.082   .     S
C309   C310    1.398   .     A
C310   C311    1.398   .     A
C311   H316    1.083   .     S
H314   C549    1.083   .     S
H315   C550    1.082   .     S
C317   N318    1.158   .     T
C319   N320    1.158   .     T
C321   O370    1.288   .     A
C321   O367    1.288   .     A
C321   C330    1.448   .     S
C322   O368    1.288   .     A
C322   O369    1.288   .     A
C322   C329    1.448   .     S
C323   C348    1.391   .     A
C323   H355    1.087   .     S
C323   C1069   1.389   1_554 S
C324   H356    1.087   .     S
C324   C347    1.391   .     A
C324   C1070   1.389   .     S
C325   H357    1.083   .     S
C325   C330    1.401   .     A
C326   C329    1.401   .     A
C326   H358    1.083   .     S
C326   C408    1.383   .     S
C327   C329    1.401   .     A
C327   H359    1.083   .     S
C327   C405    1.383   .     S
C328   C330    1.401   .     A
C328   H360    1.083   .     S
C331   H361    1.081   .     S
C331   N366    1.366   .     A
C332   H362    1.081   .     S
C332   N365    1.366   .     A
C332   C573    1.414   .     S
C333   N366    1.366   .     A
C333   H363    1.081   .     S
C334   N365    1.366   .     A
C334   H364    1.081   .     S
C334   C571    1.414   .     S
C335   O371    1.295   .     A
C335   C340    1.466   .     S
C335   O374    1.288   .     A
C336   O373    1.288   .     A
C336   O372    1.295   .     A
C336   C339    1.466   .     S
C337   H353    1.086   .     S
C337   C347    1.383   .     A
C337   C339    1.389   .     A
C338   C348    1.383   .     A
C338   H354    1.086   .     S
C338   C340    1.389   .     A
C339   C341    1.420   .     A
C340   C342    1.420   .     A
C341   C375    1.485   .     S
C341   C343    1.429   .     A
C342   C386    1.485   .     S
C342   C344    1.429   .     A
C343   C349    1.429   .     A
C343   C345    1.431   .     A
C344   C346    1.431   .     A
C344   C350    1.429   .     A
C345   C347    1.407   .     A
C345   C1066   1.414   .     S
C346   C348    1.407   .     A
C346   C1065   1.414   1_554 S
C349   C397    1.446   .     S
C349   C1043   1.389   .     S
C350   C399    1.446   .     S
C350   C1044   1.389   1_554 S
Cu351  O367    1.963   .     S
Cu351  O369    1.963   .     S
Cu351  Cu352   2.670   .     S
Cu351  O373    1.977   .     S
Cu351  O371    1.970   .     S
Cu351  N365    2.006   .     S
Cu352  O372    1.970   .     S
Cu352  O368    1.963   .     S
Cu352  O374    1.977   .     S
Cu352  O370    1.963   .     S
Cu352  N366    2.006   .     S
C375   C376    1.406   .     A
C375   C380    1.405   .     A
C376   C377    1.398   .     A
C376   H381    1.083   .     S
C377   C378    1.398   .     A
C377   H622    1.082   .     S
C378   C379    1.398   .     A
C378   H623    1.083   .     S
C379   H384    1.082   .     S
C379   C380    1.399   .     A
C380   H385    1.083   .     S
C386   C391    1.406   .     A
C386   C387    1.405   .     A
C387   H392    1.083   .     S
C387   C388    1.399   .     A
C388   C389    1.398   .     A
C388   H393    1.082   .     S
C389   C390    1.398   .     A
C390   C391    1.398   .     A
C391   H396    1.083   .     S
H394   C629    1.083   .     S
H395   C630    1.082   .     S
C397   N398    1.158   .     T
C399   N400    1.158   .     T
C401   O450    1.288   .     A
C401   O447    1.288   .     A
C401   C410    1.448   .     S
C402   O448    1.288   .     A
C402   O449    1.288   .     A
C402   C409    1.448   .     S
C403   C428    1.391   .     A
C403   H435    1.087   .     S
C403   C1149   1.389   1_554 S
C404   H436    1.087   .     S
C404   C427    1.391   .     A
C404   C1150   1.389   .     S
C405   H437    1.083   .     S
C405   C410    1.401   .     A
C406   C409    1.401   .     A
C406   H438    1.083   .     S
C406   C248    1.383   1_655 S
C407   C409    1.401   .     A
C407   H439    1.083   .     S
C407   C245    1.383   1_655 S
C408   C410    1.401   .     A
C408   H440    1.083   .     S
C411   H441    1.081   .     S
C411   N446    1.366   .     A
C412   H442    1.081   .     S
C412   N445    1.366   .     A
C412   C653    1.414   .     S
C413   N446    1.366   .     A
C413   H443    1.081   .     S
C414   N445    1.366   .     A
C414   H444    1.081   .     S
C414   C651    1.414   .     S
C415   O451    1.295   .     A
C415   C420    1.466   .     S
C415   O454    1.288   .     A
C416   O453    1.288   .     A
C416   O452    1.295   .     A
C416   C419    1.466   .     S
C417   H433    1.086   .     S
C417   C427    1.383   .     A
C417   C419    1.389   .     A
C418   C428    1.383   .     A
C418   H434    1.086   .     S
C418   C420    1.389   .     A
C419   C421    1.420   .     A
C420   C422    1.420   .     A
C421   C455    1.485   .     S
C421   C423    1.429   .     A
C422   C466    1.485   .     S
C422   C424    1.429   .     A
C423   C429    1.429   .     A
C423   C425    1.431   .     A
C424   C426    1.431   .     A
C424   C430    1.429   .     A
C425   C427    1.407   .     A
C425   C1146   1.414   .     S
C426   C428    1.407   .     A
C426   C1145   1.414   1_554 S
C429   C477    1.446   .     S
C429   C1123   1.389   .     S
C430   C479    1.446   .     S
C430   C1124   1.389   1_554 S
Cu431  O447    1.963   .     S
Cu431  O449    1.963   .     S
Cu431  Cu432   2.670   .     S
Cu431  O453    1.977   .     S
Cu431  O451    1.970   .     S
Cu431  N445    2.006   .     S
Cu432  O452    1.970   .     S
Cu432  O448    1.963   .     S
Cu432  O454    1.977   .     S
Cu432  O450    1.963   .     S
Cu432  N446    2.006   .     S
C455   C456    1.406   .     A
C455   C460    1.405   .     A
C456   C457    1.398   .     A
C456   H461    1.083   .     S
C457   C458    1.398   .     A
C457   H702    1.082   .     S
C458   C459    1.398   .     A
C458   H703    1.083   .     S
C459   H464    1.082   .     S
C459   C460    1.399   .     A
C460   H465    1.083   .     S
C466   C471    1.406   .     A
C466   C467    1.405   .     A
C467   H472    1.083   .     S
C467   C468    1.399   .     A
C468   C469    1.398   .     A
C468   H473    1.082   .     S
C469   C470    1.398   .     A
C470   C471    1.398   .     A
C471   H476    1.083   .     S
H474   C709    1.083   .     S
H475   C710    1.082   .     S
C477   N478    1.158   .     T
C479   N480    1.158   .     T
C481   O530    1.288   .     A
C481   O527    1.288   .     A
C481   C490    1.448   .     S
C482   O528    1.288   .     A
C482   O529    1.288   .     A
C482   C489    1.448   .     S
C483   C508    1.391   .     A
C483   H515    1.087   .     S
C483   C1229   1.389   1_554 S
C484   H516    1.087   .     S
C484   C507    1.391   .     A
C484   C1230   1.389   .     S
C485   H517    1.083   .     S
C485   C490    1.401   .     A
C485   C647    1.383   1_455 S
C486   C489    1.401   .     A
C486   H518    1.083   .     S
C486   C568    1.383   .     S
C487   C489    1.401   .     A
C487   H519    1.083   .     S
C487   C565    1.383   .     S
C488   C490    1.401   .     A
C488   H520    1.083   .     S
C488   C646    1.383   1_455 S
C491   H521    1.081   .     S
C491   N526    1.366   .     A
C492   H522    1.081   .     S
C492   N525    1.366   .     A
C492   C13     1.414   1_565 S
C493   N526    1.366   .     A
C493   H523    1.081   .     S
C494   N525    1.366   .     A
C494   H524    1.081   .     S
C494   C11     1.414   1_565 S
C495   O531    1.295   .     A
C495   C500    1.466   .     S
C495   O534    1.288   .     A
C496   O533    1.288   .     A
C496   O532    1.295   .     A
C496   C499    1.466   .     S
C497   H513    1.086   .     S
C497   C507    1.383   .     A
C497   C499    1.389   .     A
C498   C508    1.383   .     A
C498   H514    1.086   .     S
C498   C500    1.389   .     A
C499   C501    1.420   .     A
C500   C502    1.420   .     A
C501   C535    1.485   .     S
C501   C503    1.429   .     A
C502   C546    1.485   .     S
C502   C504    1.429   .     A
C503   C509    1.429   .     A
C503   C505    1.431   .     A
C504   C506    1.431   .     A
C504   C510    1.429   .     A
C505   C507    1.407   .     A
C505   C1226   1.414   .     S
C506   C508    1.407   .     A
C506   C1225   1.414   1_554 S
C509   C557    1.446   .     S
C509   C1203   1.389   .     S
C510   C559    1.446   .     S
C510   C1204   1.389   1_554 S
Cu511  O527    1.963   .     S
Cu511  O529    1.963   .     S
Cu511  Cu512   2.670   .     S
Cu511  O533    1.977   .     S
Cu511  O531    1.970   .     S
Cu511  N525    2.006   .     S
Cu512  O532    1.970   .     S
Cu512  O528    1.963   .     S
Cu512  O534    1.977   .     S
Cu512  O530    1.963   .     S
Cu512  N526    2.006   .     S
C535   C536    1.406   .     A
C535   C540    1.405   .     A
C536   C537    1.398   .     A
C536   H541    1.083   .     S
C537   C538    1.398   .     A
C537   H62     1.082   1_565 S
C538   C539    1.398   .     A
C538   H63     1.083   1_565 S
C539   H544    1.082   .     S
C539   C540    1.399   .     A
C540   H545    1.083   .     S
C546   C551    1.406   .     A
C546   C547    1.405   .     A
C547   H552    1.083   .     S
C547   C548    1.399   .     A
C548   C549    1.398   .     A
C548   H553    1.082   .     S
C549   C550    1.398   .     A
C550   C551    1.398   .     A
C551   H556    1.083   .     S
H554   C69     1.083   1_565 S
H555   C70     1.082   1_565 S
C557   N558    1.158   .     T
C559   N560    1.158   .     T
C561   O610    1.288   .     A
C561   O607    1.288   .     A
C561   C570    1.448   .     S
C562   O608    1.288   .     A
C562   O609    1.288   .     A
C562   C569    1.448   .     S
C563   C588    1.391   .     A
C563   H595    1.087   .     S
C563   C1309   1.389   1_554 S
C564   H596    1.087   .     S
C564   C587    1.391   .     A
C564   C1310   1.389   .     S
C565   H597    1.083   .     S
C565   C570    1.401   .     A
C566   C569    1.401   .     A
C566   H598    1.083   .     S
C566   C648    1.383   .     S
C567   C569    1.401   .     A
C567   H599    1.083   .     S
C567   C645    1.383   .     S
C568   C570    1.401   .     A
C568   H600    1.083   .     S
C571   H601    1.081   .     S
C571   N606    1.366   .     A
C572   H602    1.081   .     S
C572   N605    1.366   .     A
C572   C93     1.414   1_565 S
C573   N606    1.366   .     A
C573   H603    1.081   .     S
C574   N605    1.366   .     A
C574   H604    1.081   .     S
C574   C91     1.414   1_565 S
C575   O611    1.295   .     A
C575   C580    1.466   .     S
C575   O614    1.288   .     A
C576   O613    1.288   .     A
C576   O612    1.295   .     A
C576   C579    1.466   .     S
C577   H593    1.086   .     S
C577   C587    1.383   .     A
C577   C579    1.389   .     A
C578   C588    1.383   .     A
C578   H594    1.086   .     S
C578   C580    1.389   .     A
C579   C581    1.420   .     A
C580   C582    1.420   .     A
C581   C615    1.485   .     S
C581   C583    1.429   .     A
C582   C626    1.485   .     S
C582   C584    1.429   .     A
C583   C589    1.429   .     A
C583   C585    1.431   .     A
C584   C586    1.431   .     A
C584   C590    1.429   .     A
C585   C587    1.407   .     A
C585   C1306   1.414   .     S
C586   C588    1.407   .     A
C586   C1305   1.414   1_554 S
C589   C637    1.446   .     S
C589   C1283   1.389   .     S
C590   C639    1.446   .     S
C590   C1284   1.389   1_554 S
Cu591  O607    1.963   .     S
Cu591  O609    1.963   .     S
Cu591  Cu592   2.670   .     S
Cu591  O613    1.977   .     S
Cu591  O611    1.970   .     S
Cu591  N605    2.006   .     S
Cu592  O612    1.970   .     S
Cu592  O608    1.963   .     S
Cu592  O614    1.977   .     S
Cu592  O610    1.963   .     S
Cu592  N606    2.006   .     S
C615   C616    1.406   .     A
C615   C620    1.405   .     A
C616   C617    1.398   .     A
C616   H621    1.083   .     S
C617   C618    1.398   .     A
C617   H142    1.082   1_565 S
C618   C619    1.398   .     A
C618   H143    1.083   1_565 S
C619   H624    1.082   .     S
C619   C620    1.399   .     A
C620   H625    1.083   .     S
C626   C631    1.406   .     A
C626   C627    1.405   .     A
C627   H632    1.083   .     S
C627   C628    1.399   .     A
C628   C629    1.398   .     A
C628   H633    1.082   .     S
C629   C630    1.398   .     A
C630   C631    1.398   .     A
C631   H636    1.083   .     S
H634   C149    1.083   1_565 S
H635   C150    1.082   1_565 S
C637   N638    1.158   .     T
C639   N640    1.158   .     T
C641   O690    1.288   .     A
C641   O687    1.288   .     A
C641   C650    1.448   .     S
C642   O688    1.288   .     A
C642   O689    1.288   .     A
C642   C649    1.448   .     S
C643   C668    1.391   .     A
C643   H675    1.087   .     S
C643   C1389   1.389   1_554 S
C644   H676    1.087   .     S
C644   C667    1.391   .     A
C644   C1390   1.389   .     S
C645   H677    1.083   .     S
C645   C650    1.401   .     A
C646   C649    1.401   .     A
C646   H678    1.083   .     S
C646   C488    1.383   1_655 S
C647   C649    1.401   .     A
C647   H679    1.083   .     S
C647   C485    1.383   1_655 S
C648   C650    1.401   .     A
C648   H680    1.083   .     S
C651   H681    1.081   .     S
C651   N686    1.366   .     A
C652   H682    1.081   .     S
C652   N685    1.366   .     A
C652   C173    1.414   1_565 S
C653   N686    1.366   .     A
C653   H683    1.081   .     S
C654   N685    1.366   .     A
C654   H684    1.081   .     S
C654   C171    1.414   1_565 S
C655   O691    1.295   .     A
C655   C660    1.466   .     S
C655   O694    1.288   .     A
C656   O693    1.288   .     A
C656   O692    1.295   .     A
C656   C659    1.466   .     S
C657   H673    1.086   .     S
C657   C667    1.383   .     A
C657   C659    1.389   .     A
C658   C668    1.383   .     A
C658   H674    1.086   .     S
C658   C660    1.389   .     A
C659   C661    1.420   .     A
C660   C662    1.420   .     A
C661   C695    1.485   .     S
C661   C663    1.429   .     A
C662   C706    1.485   .     S
C662   C664    1.429   .     A
C663   C669    1.429   .     A
C663   C665    1.431   .     A
C664   C666    1.431   .     A
C664   C670    1.429   .     A
C665   C667    1.407   .     A
C665   C1386   1.414   .     S
C666   C668    1.407   .     A
C666   C1385   1.414   1_554 S
C669   C717    1.446   .     S
C669   C1363   1.389   .     S
C670   C719    1.446   .     S
C670   C1364   1.389   1_554 S
Cu671  O687    1.963   .     S
Cu671  O689    1.963   .     S
Cu671  Cu672   2.670   .     S
Cu671  O693    1.977   .     S
Cu671  O691    1.970   .     S
Cu671  N685    2.006   .     S
Cu672  O692    1.970   .     S
Cu672  O688    1.963   .     S
Cu672  O694    1.977   .     S
Cu672  O690    1.963   .     S
Cu672  N686    2.006   .     S
C695   C696    1.406   .     A
C695   C700    1.405   .     A
C696   C697    1.398   .     A
C696   H701    1.083   .     S
C697   C698    1.398   .     A
C697   H222    1.082   1_565 S
C698   C699    1.398   .     A
C698   H223    1.083   1_565 S
C699   H704    1.082   .     S
C699   C700    1.399   .     A
C700   H705    1.083   .     S
C706   C711    1.406   .     A
C706   C707    1.405   .     A
C707   H712    1.083   .     S
C707   C708    1.399   .     A
C708   C709    1.398   .     A
C708   H713    1.082   .     S
C709   C710    1.398   .     A
C710   C711    1.398   .     A
C711   H716    1.083   .     S
H714   C229    1.083   1_565 S
H715   C230    1.082   1_565 S
C717   N718    1.158   .     T
C719   N720    1.158   .     T
C721   O770    1.288   .     A
C721   O767    1.288   .     A
C721   C730    1.448   .     S
C722   O768    1.288   .     A
C722   O769    1.288   .     A
C722   C729    1.448   .     S
C723   C748    1.391   .     A
C723   H755    1.087   .     S
C724   H756    1.087   .     S
C724   C747    1.391   .     A
C724   C30     1.389   1_556 S
C725   H757    1.083   .     S
C725   C730    1.401   .     A
C725   C887    1.383   1_455 S
C726   C729    1.401   .     A
C726   H758    1.083   .     S
C726   C808    1.383   .     S
C727   C729    1.401   .     A
C727   H759    1.083   .     S
C727   C805    1.383   .     S
C728   C730    1.401   .     A
C728   H760    1.083   .     S
C728   C886    1.383   1_455 S
C731   H761    1.081   .     S
C731   N766    1.366   .     A
C731   C1214   1.414   1_545 S
C732   H762    1.081   .     S
C732   N765    1.366   .     A
C732   C973    1.414   .     S
C733   N766    1.366   .     A
C733   H763    1.081   .     S
C733   C1212   1.414   1_545 S
C734   N765    1.366   .     A
C734   H764    1.081   .     S
C734   C971    1.414   .     S
C735   O771    1.295   .     A
C735   C740    1.466   .     S
C735   O774    1.288   .     A
C736   O773    1.288   .     A
C736   O772    1.295   .     A
C736   C739    1.466   .     S
C737   H753    1.086   .     S
C737   C747    1.383   .     A
C737   C739    1.389   .     A
C738   C748    1.383   .     A
C738   H754    1.086   .     S
C738   C740    1.389   .     A
C739   C741    1.420   .     A
C740   C742    1.420   .     A
C741   C775    1.485   .     S
C741   C743    1.429   .     A
C742   C786    1.485   .     S
C742   C744    1.429   .     A
C743   C749    1.429   .     A
C743   C745    1.431   .     A
C744   C746    1.431   .     A
C744   C750    1.429   .     A
C745   C747    1.407   .     A
C745   C26     1.414   1_556 S
C746   C748    1.407   .     A
C749   C797    1.446   .     S
C749   C3      1.389   1_556 S
C750   C799    1.446   .     S
Cu751  O767    1.963   .     S
Cu751  O769    1.963   .     S
Cu751  Cu752   2.670   .     S
Cu751  O773    1.977   .     S
Cu751  O771    1.970   .     S
Cu751  N765    2.006   .     S
Cu752  O772    1.970   .     S
Cu752  O768    1.963   .     S
Cu752  O774    1.977   .     S
Cu752  O770    1.963   .     S
Cu752  N766    2.006   .     S
C775   C776    1.406   .     A
C775   C780    1.405   .     A
C776   C777    1.398   .     A
C776   H781    1.083   .     S
C777   C778    1.398   .     A
C777   H1022   1.082   .     S
C778   C779    1.398   .     A
C778   H1023   1.083   .     S
C779   H784    1.082   .     S
C779   C780    1.399   .     A
C780   H785    1.083   .     S
H782   C1257   1.082   1_545 S
H783   C1258   1.083   1_545 S
C786   C791    1.406   .     A
C786   C787    1.405   .     A
C787   H792    1.083   .     S
C787   C788    1.399   .     A
C788   C789    1.398   .     A
C788   H793    1.082   .     S
C789   C790    1.398   .     A
C789   H1274   1.083   1_545 S
C790   C791    1.398   .     A
C790   H1275   1.082   1_545 S
C791   H796    1.083   .     S
H794   C1029   1.083   .     S
H795   C1030   1.082   .     S
C797   N798    1.158   .     T
C799   N800    1.158   .     T
C801   O850    1.288   .     A
C801   O847    1.288   .     A
C801   C810    1.448   .     S
C802   O848    1.288   .     A
C802   O849    1.288   .     A
C802   C809    1.448   .     S
C803   C828    1.391   .     A
C803   H835    1.087   .     S
C804   H836    1.087   .     S
C804   C827    1.391   .     A
C804   C110    1.389   1_556 S
C805   H837    1.083   .     S
C805   C810    1.401   .     A
C806   C809    1.401   .     A
C806   H838    1.083   .     S
C806   C888    1.383   .     S
C807   C809    1.401   .     A
C807   H839    1.083   .     S
C807   C885    1.383   .     S
C808   C810    1.401   .     A
C808   H840    1.083   .     S
C811   H841    1.081   .     S
C811   N846    1.366   .     A
C811   C1294   1.414   1_545 S
C812   H842    1.081   .     S
C812   N845    1.366   .     A
C812   C1053   1.414   .     S
C813   N846    1.366   .     A
C813   H843    1.081   .     S
C813   C1292   1.414   1_545 S
C814   N845    1.366   .     A
C814   H844    1.081   .     S
C814   C1051   1.414   .     S
C815   O851    1.295   .     A
C815   C820    1.466   .     S
C815   O854    1.288   .     A
C816   O853    1.288   .     A
C816   O852    1.295   .     A
C816   C819    1.466   .     S
C817   H833    1.086   .     S
C817   C827    1.383   .     A
C817   C819    1.389   .     A
C818   C828    1.383   .     A
C818   H834    1.086   .     S
C818   C820    1.389   .     A
C819   C821    1.420   .     A
C820   C822    1.420   .     A
C821   C855    1.485   .     S
C821   C823    1.429   .     A
C822   C866    1.485   .     S
C822   C824    1.429   .     A
C823   C829    1.429   .     A
C823   C825    1.431   .     A
C824   C826    1.431   .     A
C824   C830    1.429   .     A
C825   C827    1.407   .     A
C825   C106    1.414   1_556 S
C826   C828    1.407   .     A
C829   C877    1.446   .     S
C829   C83     1.389   1_556 S
C830   C879    1.446   .     S
Cu831  O847    1.963   .     S
Cu831  O849    1.963   .     S
Cu831  Cu832   2.670   .     S
Cu831  O853    1.977   .     S
Cu831  O851    1.970   .     S
Cu831  N845    2.006   .     S
Cu832  O852    1.970   .     S
Cu832  O848    1.963   .     S
Cu832  O854    1.977   .     S
Cu832  O850    1.963   .     S
Cu832  N846    2.006   .     S
C855   C856    1.406   .     A
C855   C860    1.405   .     A
C856   C857    1.398   .     A
C856   H861    1.083   .     S
C857   C858    1.398   .     A
C857   H1102   1.082   .     S
C858   C859    1.398   .     A
C858   H1103   1.083   .     S
C859   H864    1.082   .     S
C859   C860    1.399   .     A
C860   H865    1.083   .     S
H862   C1337   1.082   1_545 S
H863   C1338   1.083   1_545 S
C866   C871    1.406   .     A
C866   C867    1.405   .     A
C867   H872    1.083   .     S
C867   C868    1.399   .     A
C868   C869    1.398   .     A
C868   H873    1.082   .     S
C869   C870    1.398   .     A
C869   H1354   1.083   1_545 S
C870   C871    1.398   .     A
C870   H1355   1.082   1_545 S
C871   H876    1.083   .     S
H874   C1109   1.083   .     S
H875   C1110   1.082   .     S
C877   N878    1.158   .     T
C879   N880    1.158   .     T
C881   O930    1.288   .     A
C881   O927    1.288   .     A
C881   C890    1.448   .     S
C882   O928    1.288   .     A
C882   O929    1.288   .     A
C882   C889    1.448   .     S
C883   C908    1.391   .     A
C883   H915    1.087   .     S
C884   H916    1.087   .     S
C884   C907    1.391   .     A
C884   C190    1.389   1_556 S
C885   H917    1.083   .     S
C885   C890    1.401   .     A
C886   C889    1.401   .     A
C886   H918    1.083   .     S
C886   C728    1.383   1_655 S
C887   C889    1.401   .     A
C887   H919    1.083   .     S
C887   C725    1.383   1_655 S
C888   C890    1.401   .     A
C888   H920    1.083   .     S
C891   H921    1.081   .     S
C891   N926    1.366   .     A
C891   C1374   1.414   1_545 S
C892   H922    1.081   .     S
C892   N925    1.366   .     A
C892   C1133   1.414   .     S
C893   N926    1.366   .     A
C893   H923    1.081   .     S
C893   C1372   1.414   1_545 S
C894   N925    1.366   .     A
C894   H924    1.081   .     S
C894   C1131   1.414   .     S
C895   O931    1.295   .     A
C895   C900    1.466   .     S
C895   O934    1.288   .     A
C896   O933    1.288   .     A
C896   O932    1.295   .     A
C896   C899    1.466   .     S
C897   H913    1.086   .     S
C897   C907    1.383   .     A
C897   C899    1.389   .     A
C898   C908    1.383   .     A
C898   H914    1.086   .     S
C898   C900    1.389   .     A
C899   C901    1.420   .     A
C900   C902    1.420   .     A
C901   C935    1.485   .     S
C901   C903    1.429   .     A
C902   C946    1.485   .     S
C902   C904    1.429   .     A
C903   C909    1.429   .     A
C903   C905    1.431   .     A
C904   C906    1.431   .     A
C904   C910    1.429   .     A
C905   C907    1.407   .     A
C905   C186    1.414   1_556 S
C906   C908    1.407   .     A
C909   C957    1.446   .     S
C909   C163    1.389   1_556 S
C910   C959    1.446   .     S
Cu911  O927    1.963   .     S
Cu911  O929    1.963   .     S
Cu911  Cu912   2.670   .     S
Cu911  O933    1.977   .     S
Cu911  O931    1.970   .     S
Cu911  N925    2.006   .     S
Cu912  O932    1.970   .     S
Cu912  O928    1.963   .     S
Cu912  O934    1.977   .     S
Cu912  O930    1.963   .     S
Cu912  N926    2.006   .     S
C935   C936    1.406   .     A
C935   C940    1.405   .     A
C936   C937    1.398   .     A
C936   H941    1.083   .     S
C937   C938    1.398   .     A
C937   H1182   1.082   .     S
C938   C939    1.398   .     A
C938   H1183   1.083   .     S
C939   H944    1.082   .     S
C939   C940    1.399   .     A
C940   H945    1.083   .     S
H942   C1417   1.082   1_545 S
H943   C1418   1.083   1_545 S
C946   C951    1.406   .     A
C946   C947    1.405   .     A
C947   H952    1.083   .     S
C947   C948    1.399   .     A
C948   C949    1.398   .     A
C948   H953    1.082   .     S
C949   C950    1.398   .     A
C949   H1434   1.083   1_545 S
C950   C951    1.398   .     A
C950   H1435   1.082   1_545 S
C951   H956    1.083   .     S
H954   C1189   1.083   .     S
H955   C1190   1.082   .     S
C957   N958    1.158   .     T
C959   N960    1.158   .     T
C961   O1010   1.288   .     A
C961   O1007   1.288   .     A
C961   C970    1.448   .     S
C962   O1008   1.288   .     A
C962   O1009   1.288   .     A
C962   C969    1.448   .     S
C963   C988    1.391   .     A
C963   H995    1.087   .     S
C964   H996    1.087   .     S
C964   C987    1.391   .     A
C964   C270    1.389   1_556 S
C965   H997    1.083   .     S
C965   C970    1.401   .     A
C965   C1127   1.383   1_455 S
C966   C969    1.401   .     A
C966   H998    1.083   .     S
C966   C1048   1.383   .     S
C967   C969    1.401   .     A
C967   H999    1.083   .     S
C967   C1045   1.383   .     S
C968   C970    1.401   .     A
C968   H1000   1.083   .     S
C968   C1126   1.383   1_455 S
C971   H1001   1.081   .     S
C971   N1006   1.366   .     A
C972   H1002   1.081   .     S
C972   N1005   1.366   .     A
C972   C1213   1.414   .     S
C973   N1006   1.366   .     A
C973   H1003   1.081   .     S
C974   N1005   1.366   .     A
C974   H1004   1.081   .     S
C974   C1211   1.414   .     S
C975   O1011   1.295   .     A
C975   C980    1.466   .     S
C975   O1014   1.288   .     A
C976   O1013   1.288   .     A
C976   O1012   1.295   .     A
C976   C979    1.466   .     S
C977   H993    1.086   .     S
C977   C987    1.383   .     A
C977   C979    1.389   .     A
C978   C988    1.383   .     A
C978   H994    1.086   .     S
C978   C980    1.389   .     A
C979   C981    1.420   .     A
C980   C982    1.420   .     A
C981   C1015   1.485   .     S
C981   C983    1.429   .     A
C982   C1026   1.485   .     S
C982   C984    1.429   .     A
C983   C989    1.429   .     A
C983   C985    1.431   .     A
C984   C986    1.431   .     A
C984   C990    1.429   .     A
C985   C987    1.407   .     A
C985   C266    1.414   1_556 S
C986   C988    1.407   .     A
C989   C1037   1.446   .     S
C989   C243    1.389   1_556 S
C990   C1039   1.446   .     S
Cu991  O1007   1.963   .     S
Cu991  O1009   1.963   .     S
Cu991  Cu992   2.670   .     S
Cu991  O1013   1.977   .     S
Cu991  O1011   1.970   .     S
Cu991  N1005   2.006   .     S
Cu992  O1012   1.970   .     S
Cu992  O1008   1.963   .     S
Cu992  O1014   1.977   .     S
Cu992  O1010   1.963   .     S
Cu992  N1006   2.006   .     S
C1015  C1016   1.406   .     A
C1015  C1020   1.405   .     A
C1016  C1017   1.398   .     A
C1016  H1021   1.083   .     S
C1017  C1018   1.398   .     A
C1017  H1262   1.082   .     S
C1018  C1019   1.398   .     A
C1018  H1263   1.083   .     S
C1019  H1024   1.082   .     S
C1019  C1020   1.399   .     A
C1020  H1025   1.083   .     S
C1026  C1031   1.406   .     A
C1026  C1027   1.405   .     A
C1027  H1032   1.083   .     S
C1027  C1028   1.399   .     A
C1028  C1029   1.398   .     A
C1028  H1033   1.082   .     S
C1029  C1030   1.398   .     A
C1030  C1031   1.398   .     A
C1031  H1036   1.083   .     S
H1034  C1269   1.083   .     S
H1035  C1270   1.082   .     S
C1037  N1038   1.158   .     T
C1039  N1040   1.158   .     T
C1041  O1090   1.288   .     A
C1041  O1087   1.288   .     A
C1041  C1050   1.448   .     S
C1042  O1088   1.288   .     A
C1042  O1089   1.288   .     A
C1042  C1049   1.448   .     S
C1043  C1068   1.391   .     A
C1043  H1075   1.087   .     S
C1044  H1076   1.087   .     S
C1044  C1067   1.391   .     A
C1044  C350    1.389   1_556 S
C1045  H1077   1.083   .     S
C1045  C1050   1.401   .     A
C1046  C1049   1.401   .     A
C1046  H1078   1.083   .     S
C1046  C1128   1.383   .     S
C1047  C1049   1.401   .     A
C1047  H1079   1.083   .     S
C1047  C1125   1.383   .     S
C1048  C1050   1.401   .     A
C1048  H1080   1.083   .     S
C1051  H1081   1.081   .     S
C1051  N1086   1.366   .     A
C1052  H1082   1.081   .     S
C1052  N1085   1.366   .     A
C1052  C1293   1.414   .     S
C1053  N1086   1.366   .     A
C1053  H1083   1.081   .     S
C1054  N1085   1.366   .     A
C1054  H1084   1.081   .     S
C1054  C1291   1.414   .     S
C1055  O1091   1.295   .     A
C1055  C1060   1.466   .     S
C1055  O1094   1.288   .     A
C1056  O1093   1.288   .     A
C1056  O1092   1.295   .     A
C1056  C1059   1.466   .     S
C1057  H1073   1.086   .     S
C1057  C1067   1.383   .     A
C1057  C1059   1.389   .     A
C1058  C1068   1.383   .     A
C1058  H1074   1.086   .     S
C1058  C1060   1.389   .     A
C1059  C1061   1.420   .     A
C1060  C1062   1.420   .     A
C1061  C1095   1.485   .     S
C1061  C1063   1.429   .     A
C1062  C1106   1.485   .     S
C1062  C1064   1.429   .     A
C1063  C1069   1.429   .     A
C1063  C1065   1.431   .     A
C1064  C1066   1.431   .     A
C1064  C1070   1.429   .     A
C1065  C1067   1.407   .     A
C1065  C346    1.414   1_556 S
C1066  C1068   1.407   .     A
C1069  C1117   1.446   .     S
C1069  C323    1.389   1_556 S
C1070  C1119   1.446   .     S
Cu1071 O1087   1.963   .     S
Cu1071 O1089   1.963   .     S
Cu1071 Cu1072  2.670   .     S
Cu1071 O1093   1.977   .     S
Cu1071 O1091   1.970   .     S
Cu1071 N1085   2.006   .     S
Cu1072 O1092   1.970   .     S
Cu1072 O1088   1.963   .     S
Cu1072 O1094   1.977   .     S
Cu1072 O1090   1.963   .     S
Cu1072 N1086   2.006   .     S
C1095  C1096   1.406   .     A
C1095  C1100   1.405   .     A
C1096  C1097   1.398   .     A
C1096  H1101   1.083   .     S
C1097  C1098   1.398   .     A
C1097  H1342   1.082   .     S
C1098  C1099   1.398   .     A
C1098  H1343   1.083   .     S
C1099  H1104   1.082   .     S
C1099  C1100   1.399   .     A
C1100  H1105   1.083   .     S
C1106  C1111   1.406   .     A
C1106  C1107   1.405   .     A
C1107  H1112   1.083   .     S
C1107  C1108   1.399   .     A
C1108  C1109   1.398   .     A
C1108  H1113   1.082   .     S
C1109  C1110   1.398   .     A
C1110  C1111   1.398   .     A
C1111  H1116   1.083   .     S
H1114  C1349   1.083   .     S
H1115  C1350   1.082   .     S
C1117  N1118   1.158   .     T
C1119  N1120   1.158   .     T
C1121  O1170   1.288   .     A
C1121  O1167   1.288   .     A
C1121  C1130   1.448   .     S
C1122  O1168   1.288   .     A
C1122  O1169   1.288   .     A
C1122  C1129   1.448   .     S
C1123  C1148   1.391   .     A
C1123  H1155   1.087   .     S
C1124  H1156   1.087   .     S
C1124  C1147   1.391   .     A
C1124  C430    1.389   1_556 S
C1125  H1157   1.083   .     S
C1125  C1130   1.401   .     A
C1126  C1129   1.401   .     A
C1126  H1158   1.083   .     S
C1126  C968    1.383   1_655 S
C1127  C1129   1.401   .     A
C1127  H1159   1.083   .     S
C1127  C965    1.383   1_655 S
C1128  C1130   1.401   .     A
C1128  H1160   1.083   .     S
C1131  H1161   1.081   .     S
C1131  N1166   1.366   .     A
C1132  H1162   1.081   .     S
C1132  N1165   1.366   .     A
C1132  C1373   1.414   .     S
C1133  N1166   1.366   .     A
C1133  H1163   1.081   .     S
C1134  N1165   1.366   .     A
C1134  H1164   1.081   .     S
C1134  C1371   1.414   .     S
C1135  O1171   1.295   .     A
C1135  C1140   1.466   .     S
C1135  O1174   1.288   .     A
C1136  O1173   1.288   .     A
C1136  O1172   1.295   .     A
C1136  C1139   1.466   .     S
C1137  H1153   1.086   .     S
C1137  C1147   1.383   .     A
C1137  C1139   1.389   .     A
C1138  C1148   1.383   .     A
C1138  H1154   1.086   .     S
C1138  C1140   1.389   .     A
C1139  C1141   1.420   .     A
C1140  C1142   1.420   .     A
C1141  C1175   1.485   .     S
C1141  C1143   1.429   .     A
C1142  C1186   1.485   .     S
C1142  C1144   1.429   .     A
C1143  C1149   1.429   .     A
C1143  C1145   1.431   .     A
C1144  C1146   1.431   .     A
C1144  C1150   1.429   .     A
C1145  C1147   1.407   .     A
C1145  C426    1.414   1_556 S
C1146  C1148   1.407   .     A
C1149  C1197   1.446   .     S
C1149  C403    1.389   1_556 S
C1150  C1199   1.446   .     S
Cu1151 O1167   1.963   .     S
Cu1151 O1169   1.963   .     S
Cu1151 Cu1152  2.670   .     S
Cu1151 O1173   1.977   .     S
Cu1151 O1171   1.970   .     S
Cu1151 N1165   2.006   .     S
Cu1152 O1172   1.970   .     S
Cu1152 O1168   1.963   .     S
Cu1152 O1174   1.977   .     S
Cu1152 O1170   1.963   .     S
Cu1152 N1166   2.006   .     S
C1175  C1176   1.406   .     A
C1175  C1180   1.405   .     A
C1176  C1177   1.398   .     A
C1176  H1181   1.083   .     S
C1177  C1178   1.398   .     A
C1177  H1422   1.082   .     S
C1178  C1179   1.398   .     A
C1178  H1423   1.083   .     S
C1179  H1184   1.082   .     S
C1179  C1180   1.399   .     A
C1180  H1185   1.083   .     S
C1186  C1191   1.406   .     A
C1186  C1187   1.405   .     A
C1187  H1192   1.083   .     S
C1187  C1188   1.399   .     A
C1188  C1189   1.398   .     A
C1188  H1193   1.082   .     S
C1189  C1190   1.398   .     A
C1190  C1191   1.398   .     A
C1191  H1196   1.083   .     S
H1194  C1429   1.083   .     S
H1195  C1430   1.082   .     S
C1197  N1198   1.158   .     T
C1199  N1200   1.158   .     T
C1201  O1250   1.288   .     A
C1201  O1247   1.288   .     A
C1201  C1210   1.448   .     S
C1202  O1248   1.288   .     A
C1202  O1249   1.288   .     A
C1202  C1209   1.448   .     S
C1203  C1228   1.391   .     A
C1203  H1235   1.087   .     S
C1204  H1236   1.087   .     S
C1204  C1227   1.391   .     A
C1204  C510    1.389   1_556 S
C1205  H1237   1.083   .     S
C1205  C1210   1.401   .     A
C1205  C1367   1.383   1_455 S
C1206  C1209   1.401   .     A
C1206  H1238   1.083   .     S
C1206  C1288   1.383   .     S
C1207  C1209   1.401   .     A
C1207  H1239   1.083   .     S
C1207  C1285   1.383   .     S
C1208  C1210   1.401   .     A
C1208  H1240   1.083   .     S
C1208  C1366   1.383   1_455 S
C1211  H1241   1.081   .     S
C1211  N1246   1.366   .     A
C1212  H1242   1.081   .     S
C1212  N1245   1.366   .     A
C1212  C733    1.414   1_565 S
C1213  N1246   1.366   .     A
C1213  H1243   1.081   .     S
C1214  N1245   1.366   .     A
C1214  H1244   1.081   .     S
C1214  C731    1.414   1_565 S
C1215  O1251   1.295   .     A
C1215  C1220   1.466   .     S
C1215  O1254   1.288   .     A
C1216  O1253   1.288   .     A
C1216  O1252   1.295   .     A
C1216  C1219   1.466   .     S
C1217  H1233   1.086   .     S
C1217  C1227   1.383   .     A
C1217  C1219   1.389   .     A
C1218  C1228   1.383   .     A
C1218  H1234   1.086   .     S
C1218  C1220   1.389   .     A
C1219  C1221   1.420   .     A
C1220  C1222   1.420   .     A
C1221  C1255   1.485   .     S
C1221  C1223   1.429   .     A
C1222  C1266   1.485   .     S
C1222  C1224   1.429   .     A
C1223  C1229   1.429   .     A
C1223  C1225   1.431   .     A
C1224  C1226   1.431   .     A
C1224  C1230   1.429   .     A
C1225  C1227   1.407   .     A
C1225  C506    1.414   1_556 S
C1226  C1228   1.407   .     A
C1229  C1277   1.446   .     S
C1229  C483    1.389   1_556 S
C1230  C1279   1.446   .     S
Cu1231 O1247   1.963   .     S
Cu1231 O1249   1.963   .     S
Cu1231 Cu1232  2.670   .     S
Cu1231 O1253   1.977   .     S
Cu1231 O1251   1.970   .     S
Cu1231 N1245   2.006   .     S
Cu1232 O1252   1.970   .     S
Cu1232 O1248   1.963   .     S
Cu1232 O1254   1.977   .     S
Cu1232 O1250   1.963   .     S
Cu1232 N1246   2.006   .     S
C1255  C1256   1.406   .     A
C1255  C1260   1.405   .     A
C1256  C1257   1.398   .     A
C1256  H1261   1.083   .     S
C1257  C1258   1.398   .     A
C1257  H782    1.082   1_565 S
C1258  C1259   1.398   .     A
C1258  H783    1.083   1_565 S
C1259  H1264   1.082   .     S
C1259  C1260   1.399   .     A
C1260  H1265   1.083   .     S
C1266  C1271   1.406   .     A
C1266  C1267   1.405   .     A
C1267  H1272   1.083   .     S
C1267  C1268   1.399   .     A
C1268  C1269   1.398   .     A
C1268  H1273   1.082   .     S
C1269  C1270   1.398   .     A
C1270  C1271   1.398   .     A
C1271  H1276   1.083   .     S
H1274  C789    1.083   1_565 S
H1275  C790    1.082   1_565 S
C1277  N1278   1.158   .     T
C1279  N1280   1.158   .     T
C1281  O1330   1.288   .     A
C1281  O1327   1.288   .     A
C1281  C1290   1.448   .     S
C1282  O1328   1.288   .     A
C1282  O1329   1.288   .     A
C1282  C1289   1.448   .     S
C1283  C1308   1.391   .     A
C1283  H1315   1.087   .     S
C1284  H1316   1.087   .     S
C1284  C1307   1.391   .     A
C1284  C590    1.389   1_556 S
C1285  H1317   1.083   .     S
C1285  C1290   1.401   .     A
C1286  C1289   1.401   .     A
C1286  H1318   1.083   .     S
C1286  C1368   1.383   .     S
C1287  C1289   1.401   .     A
C1287  H1319   1.083   .     S
C1287  C1365   1.383   .     S
C1288  C1290   1.401   .     A
C1288  H1320   1.083   .     S
C1291  H1321   1.081   .     S
C1291  N1326   1.366   .     A
C1292  H1322   1.081   .     S
C1292  N1325   1.366   .     A
C1292  C813    1.414   1_565 S
C1293  N1326   1.366   .     A
C1293  H1323   1.081   .     S
C1294  N1325   1.366   .     A
C1294  H1324   1.081   .     S
C1294  C811    1.414   1_565 S
C1295  O1331   1.295   .     A
C1295  C1300   1.466   .     S
C1295  O1334   1.288   .     A
C1296  O1333   1.288   .     A
C1296  O1332   1.295   .     A
C1296  C1299   1.466   .     S
C1297  H1313   1.086   .     S
C1297  C1307   1.383   .     A
C1297  C1299   1.389   .     A
C1298  C1308   1.383   .     A
C1298  H1314   1.086   .     S
C1298  C1300   1.389   .     A
C1299  C1301   1.420   .     A
C1300  C1302   1.420   .     A
C1301  C1335   1.485   .     S
C1301  C1303   1.429   .     A
C1302  C1346   1.485   .     S
C1302  C1304   1.429   .     A
C1303  C1309   1.429   .     A
C1303  C1305   1.431   .     A
C1304  C1306   1.431   .     A
C1304  C1310   1.429   .     A
C1305  C1307   1.407   .     A
C1305  C586    1.414   1_556 S
C1306  C1308   1.407   .     A
C1309  C1357   1.446   .     S
C1309  C563    1.389   1_556 S
C1310  C1359   1.446   .     S
Cu1311 O1327   1.963   .     S
Cu1311 O1329   1.963   .     S
Cu1311 Cu1312  2.670   .     S
Cu1311 O1333   1.977   .     S
Cu1311 O1331   1.970   .     S
Cu1311 N1325   2.006   .     S
Cu1312 O1332   1.970   .     S
Cu1312 O1328   1.963   .     S
Cu1312 O1334   1.977   .     S
Cu1312 O1330   1.963   .     S
Cu1312 N1326   2.006   .     S
C1335  C1336   1.406   .     A
C1335  C1340   1.405   .     A
C1336  C1337   1.398   .     A
C1336  H1341   1.083   .     S
C1337  C1338   1.398   .     A
C1337  H862    1.082   1_565 S
C1338  C1339   1.398   .     A
C1338  H863    1.083   1_565 S
C1339  H1344   1.082   .     S
C1339  C1340   1.399   .     A
C1340  H1345   1.083   .     S
C1346  C1351   1.406   .     A
C1346  C1347   1.405   .     A
C1347  H1352   1.083   .     S
C1347  C1348   1.399   .     A
C1348  C1349   1.398   .     A
C1348  H1353   1.082   .     S
C1349  C1350   1.398   .     A
C1350  C1351   1.398   .     A
C1351  H1356   1.083   .     S
H1354  C869    1.083   1_565 S
H1355  C870    1.082   1_565 S
C1357  N1358   1.158   .     T
C1359  N1360   1.158   .     T
C1361  O1410   1.288   .     A
C1361  O1407   1.288   .     A
C1361  C1370   1.448   .     S
C1362  O1408   1.288   .     A
C1362  O1409   1.288   .     A
C1362  C1369   1.448   .     S
C1363  C1388   1.391   .     A
C1363  H1395   1.087   .     S
C1364  H1396   1.087   .     S
C1364  C1387   1.391   .     A
C1364  C670    1.389   1_556 S
C1365  H1397   1.083   .     S
C1365  C1370   1.401   .     A
C1366  C1369   1.401   .     A
C1366  H1398   1.083   .     S
C1366  C1208   1.383   1_655 S
C1367  C1369   1.401   .     A
C1367  H1399   1.083   .     S
C1367  C1205   1.383   1_655 S
C1368  C1370   1.401   .     A
C1368  H1400   1.083   .     S
C1371  H1401   1.081   .     S
C1371  N1406   1.366   .     A
C1372  H1402   1.081   .     S
C1372  N1405   1.366   .     A
C1372  C893    1.414   1_565 S
C1373  N1406   1.366   .     A
C1373  H1403   1.081   .     S
C1374  N1405   1.366   .     A
C1374  H1404   1.081   .     S
C1374  C891    1.414   1_565 S
C1375  O1411   1.295   .     A
C1375  C1380   1.466   .     S
C1375  O1414   1.288   .     A
C1376  O1413   1.288   .     A
C1376  O1412   1.295   .     A
C1376  C1379   1.466   .     S
C1377  H1393   1.086   .     S
C1377  C1387   1.383   .     A
C1377  C1379   1.389   .     A
C1378  C1388   1.383   .     A
C1378  H1394   1.086   .     S
C1378  C1380   1.389   .     A
C1379  C1381   1.420   .     A
C1380  C1382   1.420   .     A
C1381  C1415   1.485   .     S
C1381  C1383   1.429   .     A
C1382  C1426   1.485   .     S
C1382  C1384   1.429   .     A
C1383  C1389   1.429   .     A
C1383  C1385   1.431   .     A
C1384  C1386   1.431   .     A
C1384  C1390   1.429   .     A
C1385  C1387   1.407   .     A
C1385  C666    1.414   1_556 S
C1386  C1388   1.407   .     A
C1389  C1437   1.446   .     S
C1389  C643    1.389   1_556 S
C1390  C1439   1.446   .     S
Cu1391 O1407   1.963   .     S
Cu1391 O1409   1.963   .     S
Cu1391 Cu1392  2.670   .     S
Cu1391 O1413   1.977   .     S
Cu1391 O1411   1.970   .     S
Cu1391 N1405   2.006   .     S
Cu1392 O1412   1.970   .     S
Cu1392 O1408   1.963   .     S
Cu1392 O1414   1.977   .     S
Cu1392 O1410   1.963   .     S
Cu1392 N1406   2.006   .     S
C1415  C1416   1.406   .     A
C1415  C1420   1.405   .     A
C1416  C1417   1.398   .     A
C1416  H1421   1.083   .     S
C1417  C1418   1.398   .     A
C1417  H942    1.082   1_565 S
C1418  C1419   1.398   .     A
C1418  H943    1.083   1_565 S
C1419  H1424   1.082   .     S
C1419  C1420   1.399   .     A
C1420  H1425   1.083   .     S
C1426  C1431   1.406   .     A
C1426  C1427   1.405   .     A
C1427  H1432   1.083   .     S
C1427  C1428   1.399   .     A
C1428  C1429   1.398   .     A
C1428  H1433   1.082   .     S
C1429  C1430   1.398   .     A
C1430  C1431   1.398   .     A
C1431  H1436   1.083   .     S
H1434  C949    1.083   1_565 S
H1435  C950    1.082   1_565 S
C1437  N1438   1.158   .     T
C1439  N1440   1.158   .     T
