data_str_m3_o1_o17_pcu_sym.180
_audit_creation_date              2020-01-03
_audit_creation_method            'Materials Studio'
_symmetry_space_group_name_H-M    'P1'
_symmetry_Int_Tables_number       1
_symmetry_cell_setting            triclinic
loop_
_symmetry_equiv_pos_as_xyz
  x,y,z
_cell_length_a                    32.1550
_cell_length_b                    29.4736
_cell_length_c                    30.0006
_cell_angle_alpha                 89.8844
_cell_angle_beta                  90.1463
_cell_angle_gamma                 90.0513
loop_
_atom_site_label
_atom_site_type_symbol
_atom_site_fract_x
_atom_site_fract_y
_atom_site_fract_z
_atom_site_U_iso_or_equiv
_atom_site_adp_type
_atom_site_occupancy
O1     O     0.10559   0.20487   0.25000   0.00000  Uiso   1.00
O2     O     0.22774   0.12846   0.25001   0.00000  Uiso   1.00
O3     O     0.22774   0.20487   0.25001   0.00000  Uiso   1.00
O4     O     0.10559   0.12846   0.25000   0.00000  Uiso   1.00
C5     C     0.08661   0.16665   0.24996   0.00000  Uiso   1.00
C6     C     0.24673   0.16668   0.25004   0.00000  Uiso   1.00
O7     O     0.16666   0.20489   0.18393   0.00000  Uiso   1.00
O8     O     0.16667   0.12844   0.31608   0.00000  Uiso   1.00
O9     O     0.16667   0.20489   0.31608   0.00000  Uiso   1.00
O10    O     0.16666   0.12844   0.18393   0.00000  Uiso   1.00
C11    C     0.16678   0.16671   0.16330   0.00000  Uiso   1.00
C12    C     0.16655   0.16662   0.33670   0.00000  Uiso   1.00
Zn13   Zn    0.16667   0.21771   0.25000   0.00000  Uiso   1.00
Zn14   Zn    0.16667   0.11563   0.25000   0.00000  Uiso   1.00
C15    C     0.17804   0.12750   0.40751   0.00000  Uiso   1.00
C16    C     0.15530   0.20583   0.09249   0.00000  Uiso   1.00
C17    C     0.16592   0.16649   0.38459   0.00000  Uiso   1.00
C18    C     0.16742   0.16684   0.11541   0.00000  Uiso   1.00
C19    C     0.15327   0.20541   0.40722   0.00000  Uiso   1.00
C20    C     0.18007   0.12792   0.09278   0.00000  Uiso   1.00
C21    C     0.15205   0.20577   0.45354   0.00000  Uiso   1.00
C22    C     0.18129   0.12756   0.04646   0.00000  Uiso   1.00
C23    C     0.16597   0.16665   0.47680   0.00000  Uiso   1.00
C24    C     0.16736   0.16668   0.02320   0.00000  Uiso   1.00
C25    C     0.17865   0.12746   0.45357   0.00000  Uiso   1.00
C26    C     0.15469   0.20588   0.04643   0.00000  Uiso   1.00
C27    C     0.13850   0.24449   0.47719   0.00000  Uiso   1.00
C28    C     0.19484   0.08884   0.02281   0.00000  Uiso   1.00
C29    C     0.14072   0.24431   0.02357   0.00000  Uiso   1.00
C30    C     0.19262   0.08903   0.47643   0.00000  Uiso   1.00
H31    H     0.18806   0.09756   0.38948   0.00000  Uiso   1.00
H32    H     0.14528   0.23577   0.11052   0.00000  Uiso   1.00
H33    H     0.14479   0.23533   0.38836   0.00000  Uiso   1.00
H34    H     0.18855   0.09800   0.11164   0.00000  Uiso   1.00
H35    H     0.13035   0.27387   0.04192   0.00000  Uiso   1.00
H36    H     0.20299   0.05947   0.45808   0.00000  Uiso   1.00
C37    C     0.02129   0.12617   0.25859   0.00000  Uiso   1.00
C38    C     0.31205   0.20717   0.24141   0.00000  Uiso   1.00
C39    C     0.31202   0.12619   0.25866   0.00000  Uiso   1.00
C40    C     0.02132   0.20714   0.24134   0.00000  Uiso   1.00
H41    H     0.03750   0.09470   0.26557   0.00000  Uiso   1.00
H42    H     0.29583   0.23863   0.23443   0.00000  Uiso   1.00
H43    H     0.29578   0.09474   0.26569   0.00000  Uiso   1.00
H44    H     0.03755   0.23860   0.23431   0.00000  Uiso   1.00
C45    C     0.29086   0.16669   0.25005   0.00000  Uiso   1.00
C46    C     0.04247   0.16665   0.24995   0.00000  Uiso   1.00
C47    C     0.19211   0.02397   0.27822   0.00000  Uiso   1.00
C48    C     0.14123   0.30936   0.22178   0.00000  Uiso   1.00
C49    C     0.14123   0.02403   0.22179   0.00000  Uiso   1.00
C50    C     0.19211   0.30930   0.27821   0.00000  Uiso   1.00
H51    H     0.21243   0.04218   0.30075   0.00000  Uiso   1.00
H52    H     0.12091   0.29115   0.19925   0.00000  Uiso   1.00
H53    H     0.12090   0.04229   0.19925   0.00000  Uiso   1.00
H54    H     0.21243   0.29104   0.30075   0.00000  Uiso   1.00
N55    N     0.16667   0.28573   0.25000   0.00000  Uiso   1.00
N56    N     0.16667   0.04760   0.25000   0.00000  Uiso   1.00
N57    N     0.12125   0.28350   0.45501   0.00000  Uiso   1.00
O58    O     0.09118   0.27843   0.42633   0.00000  Uiso   1.00
O59    O     0.12956   0.32405   0.46968   0.00000  Uiso   1.00
N60    N     0.21209   0.04984   0.04499   0.00000  Uiso   1.00
O61    O     0.24216   0.05492   0.07367   0.00000  Uiso   1.00
O62    O     0.20380   0.00930   0.03031   0.00000  Uiso   1.00
O63    O     0.43892   0.20487   0.25000   0.00000  Uiso   1.00
O64    O     0.56108   0.12846   0.25001   0.00000  Uiso   1.00
O65    O     0.56108   0.20487   0.25001   0.00000  Uiso   1.00
O66    O     0.43892   0.12846   0.25000   0.00000  Uiso   1.00
C67    C     0.41994   0.16665   0.24996   0.00000  Uiso   1.00
C68    C     0.58006   0.16668   0.25004   0.00000  Uiso   1.00
O69    O     0.49999   0.20489   0.18393   0.00000  Uiso   1.00
O70    O     0.50001   0.12844   0.31608   0.00000  Uiso   1.00
O71    O     0.50001   0.20489   0.31608   0.00000  Uiso   1.00
O72    O     0.49999   0.12844   0.18393   0.00000  Uiso   1.00
C73    C     0.50011   0.16671   0.16330   0.00000  Uiso   1.00
C74    C     0.49989   0.16662   0.33670   0.00000  Uiso   1.00
Zn75   Zn    0.50000   0.21771   0.25000   0.00000  Uiso   1.00
Zn76   Zn    0.50000   0.11563   0.25000   0.00000  Uiso   1.00
C77    C     0.51137   0.12750   0.40751   0.00000  Uiso   1.00
C78    C     0.48863   0.20583   0.09249   0.00000  Uiso   1.00
C79    C     0.49925   0.16649   0.38459   0.00000  Uiso   1.00
C80    C     0.50075   0.16684   0.11541   0.00000  Uiso   1.00
C81    C     0.48660   0.20541   0.40722   0.00000  Uiso   1.00
C82    C     0.51340   0.12792   0.09278   0.00000  Uiso   1.00
C83    C     0.48538   0.20577   0.45354   0.00000  Uiso   1.00
C84    C     0.51462   0.12756   0.04646   0.00000  Uiso   1.00
C85    C     0.49931   0.16665   0.47680   0.00000  Uiso   1.00
C86    C     0.50070   0.16668   0.02320   0.00000  Uiso   1.00
C87    C     0.51198   0.12746   0.45357   0.00000  Uiso   1.00
C88    C     0.48802   0.20588   0.04643   0.00000  Uiso   1.00
C89    C     0.47183   0.24449   0.47719   0.00000  Uiso   1.00
C90    C     0.52818   0.08884   0.02281   0.00000  Uiso   1.00
C91    C     0.47405   0.24431   0.02357   0.00000  Uiso   1.00
C92    C     0.52595   0.08903   0.47643   0.00000  Uiso   1.00
H93    H     0.52139   0.09756   0.38948   0.00000  Uiso   1.00
H94    H     0.47861   0.23577   0.11052   0.00000  Uiso   1.00
H95    H     0.47812   0.23533   0.38836   0.00000  Uiso   1.00
H96    H     0.52188   0.09800   0.11164   0.00000  Uiso   1.00
H97    H     0.46368   0.27387   0.04192   0.00000  Uiso   1.00
H98    H     0.53633   0.05947   0.45808   0.00000  Uiso   1.00
C99    C     0.35462   0.12617   0.25859   0.00000  Uiso   1.00
C100   C     0.64538   0.20717   0.24141   0.00000  Uiso   1.00
C101   C     0.64535   0.12619   0.25866   0.00000  Uiso   1.00
C102   C     0.35465   0.20714   0.24134   0.00000  Uiso   1.00
H103   H     0.37084   0.09470   0.26557   0.00000  Uiso   1.00
H104   H     0.62916   0.23863   0.23443   0.00000  Uiso   1.00
H105   H     0.62911   0.09474   0.26569   0.00000  Uiso   1.00
H106   H     0.37089   0.23860   0.23431   0.00000  Uiso   1.00
C107   C     0.62420   0.16669   0.25005   0.00000  Uiso   1.00
C108   C     0.37580   0.16665   0.24995   0.00000  Uiso   1.00
C109   C     0.52544   0.02397   0.27822   0.00000  Uiso   1.00
C110   C     0.47456   0.30936   0.22178   0.00000  Uiso   1.00
C111   C     0.47456   0.02403   0.22179   0.00000  Uiso   1.00
C112   C     0.52544   0.30930   0.27821   0.00000  Uiso   1.00
H113   H     0.54576   0.04218   0.30075   0.00000  Uiso   1.00
H114   H     0.45424   0.29115   0.19925   0.00000  Uiso   1.00
H115   H     0.45424   0.04229   0.19925   0.00000  Uiso   1.00
H116   H     0.54576   0.29104   0.30075   0.00000  Uiso   1.00
N117   N     0.50000   0.28573   0.25000   0.00000  Uiso   1.00
N118   N     0.50000   0.04760   0.25000   0.00000  Uiso   1.00
N119   N     0.45459   0.28350   0.45501   0.00000  Uiso   1.00
O120   O     0.42452   0.27843   0.42633   0.00000  Uiso   1.00
O121   O     0.46290   0.32405   0.46968   0.00000  Uiso   1.00
N122   N     0.54543   0.04984   0.04499   0.00000  Uiso   1.00
O123   O     0.57549   0.05492   0.07367   0.00000  Uiso   1.00
O124   O     0.53713   0.00930   0.03031   0.00000  Uiso   1.00
O125   O     0.77226   0.20487   0.25000   0.00000  Uiso   1.00
O126   O     0.89441   0.12846   0.25001   0.00000  Uiso   1.00
O127   O     0.89441   0.20487   0.25001   0.00000  Uiso   1.00
O128   O     0.77226   0.12846   0.25000   0.00000  Uiso   1.00
C129   C     0.75327   0.16665   0.24996   0.00000  Uiso   1.00
C130   C     0.91339   0.16668   0.25004   0.00000  Uiso   1.00
O131   O     0.83333   0.20489   0.18393   0.00000  Uiso   1.00
O132   O     0.83334   0.12844   0.31608   0.00000  Uiso   1.00
O133   O     0.83334   0.20489   0.31608   0.00000  Uiso   1.00
O134   O     0.83333   0.12844   0.18393   0.00000  Uiso   1.00
C135   C     0.83345   0.16671   0.16330   0.00000  Uiso   1.00
C136   C     0.83322   0.16662   0.33670   0.00000  Uiso   1.00
Zn137  Zn    0.83333   0.21771   0.25000   0.00000  Uiso   1.00
Zn138  Zn    0.83333   0.11563   0.25000   0.00000  Uiso   1.00
C139   C     0.84471   0.12750   0.40751   0.00000  Uiso   1.00
C140   C     0.82196   0.20583   0.09249   0.00000  Uiso   1.00
C141   C     0.83258   0.16649   0.38459   0.00000  Uiso   1.00
C142   C     0.83408   0.16684   0.11541   0.00000  Uiso   1.00
C143   C     0.81993   0.20541   0.40722   0.00000  Uiso   1.00
C144   C     0.84674   0.12792   0.09278   0.00000  Uiso   1.00
C145   C     0.81872   0.20577   0.45354   0.00000  Uiso   1.00
C146   C     0.84795   0.12756   0.04646   0.00000  Uiso   1.00
C147   C     0.83264   0.16665   0.47680   0.00000  Uiso   1.00
C148   C     0.83403   0.16668   0.02320   0.00000  Uiso   1.00
C149   C     0.84532   0.12746   0.45357   0.00000  Uiso   1.00
C150   C     0.82135   0.20588   0.04643   0.00000  Uiso   1.00
C151   C     0.80516   0.24449   0.47719   0.00000  Uiso   1.00
C152   C     0.86151   0.08884   0.02281   0.00000  Uiso   1.00
C153   C     0.80739   0.24431   0.02357   0.00000  Uiso   1.00
C154   C     0.85928   0.08903   0.47643   0.00000  Uiso   1.00
H155   H     0.85473   0.09756   0.38948   0.00000  Uiso   1.00
H156   H     0.81194   0.23577   0.11052   0.00000  Uiso   1.00
H157   H     0.81145   0.23533   0.38836   0.00000  Uiso   1.00
H158   H     0.85522   0.09800   0.11164   0.00000  Uiso   1.00
H159   H     0.79701   0.27387   0.04192   0.00000  Uiso   1.00
H160   H     0.86966   0.05947   0.45808   0.00000  Uiso   1.00
C161   C     0.68795   0.12617   0.25859   0.00000  Uiso   1.00
C162   C     0.97871   0.20717   0.24141   0.00000  Uiso   1.00
C163   C     0.97868   0.12619   0.25866   0.00000  Uiso   1.00
C164   C     0.68798   0.20714   0.24134   0.00000  Uiso   1.00
H165   H     0.70417   0.09470   0.26557   0.00000  Uiso   1.00
H166   H     0.96250   0.23863   0.23443   0.00000  Uiso   1.00
H167   H     0.96245   0.09474   0.26569   0.00000  Uiso   1.00
H168   H     0.70422   0.23860   0.23431   0.00000  Uiso   1.00
C169   C     0.95753   0.16669   0.25005   0.00000  Uiso   1.00
C170   C     0.70914   0.16665   0.24995   0.00000  Uiso   1.00
C171   C     0.85877   0.02397   0.27822   0.00000  Uiso   1.00
C172   C     0.80789   0.30936   0.22178   0.00000  Uiso   1.00
C173   C     0.80789   0.02403   0.22179   0.00000  Uiso   1.00
C174   C     0.85877   0.30930   0.27821   0.00000  Uiso   1.00
H175   H     0.87909   0.04218   0.30075   0.00000  Uiso   1.00
H176   H     0.78757   0.29115   0.19925   0.00000  Uiso   1.00
H177   H     0.78757   0.04229   0.19925   0.00000  Uiso   1.00
H178   H     0.87910   0.29104   0.30075   0.00000  Uiso   1.00
N179   N     0.83333   0.28573   0.25000   0.00000  Uiso   1.00
N180   N     0.83333   0.04760   0.25000   0.00000  Uiso   1.00
N181   N     0.78792   0.28350   0.45501   0.00000  Uiso   1.00
O182   O     0.75785   0.27843   0.42633   0.00000  Uiso   1.00
O183   O     0.79623   0.32405   0.46968   0.00000  Uiso   1.00
N184   N     0.87876   0.04984   0.04499   0.00000  Uiso   1.00
O185   O     0.90882   0.05492   0.07367   0.00000  Uiso   1.00
O186   O     0.87046   0.00930   0.03031   0.00000  Uiso   1.00
O187   O     0.10559   0.53821   0.25000   0.00000  Uiso   1.00
O188   O     0.22774   0.46179   0.25001   0.00000  Uiso   1.00
O189   O     0.22774   0.53821   0.25001   0.00000  Uiso   1.00
O190   O     0.10559   0.46179   0.25000   0.00000  Uiso   1.00
C191   C     0.08661   0.49999   0.24996   0.00000  Uiso   1.00
C192   C     0.24673   0.50001   0.25004   0.00000  Uiso   1.00
O193   O     0.16666   0.53823   0.18393   0.00000  Uiso   1.00
O194   O     0.16667   0.46177   0.31608   0.00000  Uiso   1.00
O195   O     0.16667   0.53823   0.31608   0.00000  Uiso   1.00
O196   O     0.16666   0.46177   0.18393   0.00000  Uiso   1.00
C197   C     0.16678   0.50005   0.16330   0.00000  Uiso   1.00
C198   C     0.16655   0.49995   0.33670   0.00000  Uiso   1.00
Zn199  Zn    0.16667   0.55104   0.25000   0.00000  Uiso   1.00
Zn200  Zn    0.16667   0.44896   0.25000   0.00000  Uiso   1.00
C201   C     0.17804   0.46084   0.40751   0.00000  Uiso   1.00
C202   C     0.15530   0.53917   0.09249   0.00000  Uiso   1.00
C203   C     0.16592   0.49982   0.38459   0.00000  Uiso   1.00
C204   C     0.16742   0.50018   0.11541   0.00000  Uiso   1.00
C205   C     0.15327   0.53875   0.40722   0.00000  Uiso   1.00
C206   C     0.18007   0.46126   0.09278   0.00000  Uiso   1.00
C207   C     0.15205   0.53910   0.45354   0.00000  Uiso   1.00
C208   C     0.18129   0.46090   0.04646   0.00000  Uiso   1.00
C209   C     0.16597   0.49999   0.47680   0.00000  Uiso   1.00
C210   C     0.16736   0.50002   0.02320   0.00000  Uiso   1.00
C211   C     0.17865   0.46079   0.45357   0.00000  Uiso   1.00
C212   C     0.15469   0.53921   0.04643   0.00000  Uiso   1.00
C213   C     0.13850   0.57783   0.47719   0.00000  Uiso   1.00
C214   C     0.19484   0.42218   0.02281   0.00000  Uiso   1.00
C215   C     0.14072   0.57764   0.02357   0.00000  Uiso   1.00
C216   C     0.19262   0.42236   0.47643   0.00000  Uiso   1.00
H217   H     0.18806   0.43089   0.38948   0.00000  Uiso   1.00
H218   H     0.14528   0.56911   0.11052   0.00000  Uiso   1.00
H219   H     0.14479   0.56867   0.38836   0.00000  Uiso   1.00
H220   H     0.18855   0.43133   0.11164   0.00000  Uiso   1.00
H221   H     0.13035   0.60720   0.04192   0.00000  Uiso   1.00
H222   H     0.20299   0.39280   0.45808   0.00000  Uiso   1.00
C223   C     0.02129   0.45950   0.25859   0.00000  Uiso   1.00
C224   C     0.31205   0.54050   0.24141   0.00000  Uiso   1.00
C225   C     0.31202   0.45952   0.25866   0.00000  Uiso   1.00
C226   C     0.02132   0.54048   0.24134   0.00000  Uiso   1.00
H227   H     0.03750   0.42804   0.26557   0.00000  Uiso   1.00
H228   H     0.29583   0.57196   0.23443   0.00000  Uiso   1.00
H229   H     0.29578   0.42807   0.26569   0.00000  Uiso   1.00
H230   H     0.03755   0.57193   0.23431   0.00000  Uiso   1.00
C231   C     0.29086   0.50002   0.25005   0.00000  Uiso   1.00
C232   C     0.04247   0.49998   0.24995   0.00000  Uiso   1.00
C233   C     0.19211   0.35731   0.27822   0.00000  Uiso   1.00
C234   C     0.14123   0.64269   0.22178   0.00000  Uiso   1.00
C235   C     0.14123   0.35737   0.22179   0.00000  Uiso   1.00
C236   C     0.19211   0.64263   0.27821   0.00000  Uiso   1.00
H237   H     0.21243   0.37552   0.30075   0.00000  Uiso   1.00
H238   H     0.12091   0.62448   0.19925   0.00000  Uiso   1.00
H239   H     0.12090   0.37562   0.19925   0.00000  Uiso   1.00
H240   H     0.21243   0.62438   0.30075   0.00000  Uiso   1.00
N241   N     0.16667   0.61907   0.25000   0.00000  Uiso   1.00
N242   N     0.16667   0.38093   0.25000   0.00000  Uiso   1.00
N243   N     0.12125   0.61683   0.45501   0.00000  Uiso   1.00
O244   O     0.09118   0.61177   0.42633   0.00000  Uiso   1.00
O245   O     0.12956   0.65738   0.46968   0.00000  Uiso   1.00
N246   N     0.21209   0.38318   0.04499   0.00000  Uiso   1.00
O247   O     0.24216   0.38825   0.07367   0.00000  Uiso   1.00
O248   O     0.20380   0.34263   0.03031   0.00000  Uiso   1.00
O249   O     0.43892   0.53821   0.25000   0.00000  Uiso   1.00
O250   O     0.56108   0.46179   0.25001   0.00000  Uiso   1.00
O251   O     0.56108   0.53821   0.25001   0.00000  Uiso   1.00
O252   O     0.43892   0.46179   0.25000   0.00000  Uiso   1.00
C253   C     0.41994   0.49999   0.24996   0.00000  Uiso   1.00
C254   C     0.58006   0.50001   0.25004   0.00000  Uiso   1.00
O255   O     0.49999   0.53823   0.18393   0.00000  Uiso   1.00
O256   O     0.50001   0.46177   0.31608   0.00000  Uiso   1.00
O257   O     0.50001   0.53823   0.31608   0.00000  Uiso   1.00
O258   O     0.49999   0.46177   0.18393   0.00000  Uiso   1.00
C259   C     0.50011   0.50005   0.16330   0.00000  Uiso   1.00
C260   C     0.49989   0.49995   0.33670   0.00000  Uiso   1.00
Zn261  Zn    0.50000   0.55104   0.25000   0.00000  Uiso   1.00
Zn262  Zn    0.50000   0.44896   0.25000   0.00000  Uiso   1.00
C263   C     0.51137   0.46084   0.40751   0.00000  Uiso   1.00
C264   C     0.48863   0.53917   0.09249   0.00000  Uiso   1.00
C265   C     0.49925   0.49982   0.38459   0.00000  Uiso   1.00
C266   C     0.50075   0.50018   0.11541   0.00000  Uiso   1.00
C267   C     0.48660   0.53875   0.40722   0.00000  Uiso   1.00
C268   C     0.51340   0.46126   0.09278   0.00000  Uiso   1.00
C269   C     0.48538   0.53910   0.45354   0.00000  Uiso   1.00
C270   C     0.51462   0.46090   0.04646   0.00000  Uiso   1.00
C271   C     0.49931   0.49999   0.47680   0.00000  Uiso   1.00
C272   C     0.50070   0.50002   0.02320   0.00000  Uiso   1.00
C273   C     0.51198   0.46079   0.45357   0.00000  Uiso   1.00
C274   C     0.48802   0.53921   0.04643   0.00000  Uiso   1.00
C275   C     0.47183   0.57783   0.47719   0.00000  Uiso   1.00
C276   C     0.52818   0.42218   0.02281   0.00000  Uiso   1.00
C277   C     0.47405   0.57764   0.02357   0.00000  Uiso   1.00
C278   C     0.52595   0.42236   0.47643   0.00000  Uiso   1.00
H279   H     0.52139   0.43089   0.38948   0.00000  Uiso   1.00
H280   H     0.47861   0.56911   0.11052   0.00000  Uiso   1.00
H281   H     0.47812   0.56867   0.38836   0.00000  Uiso   1.00
H282   H     0.52188   0.43133   0.11164   0.00000  Uiso   1.00
H283   H     0.46368   0.60720   0.04192   0.00000  Uiso   1.00
H284   H     0.53633   0.39280   0.45808   0.00000  Uiso   1.00
C285   C     0.35462   0.45950   0.25859   0.00000  Uiso   1.00
C286   C     0.64538   0.54050   0.24141   0.00000  Uiso   1.00
C287   C     0.64535   0.45952   0.25866   0.00000  Uiso   1.00
C288   C     0.35465   0.54048   0.24134   0.00000  Uiso   1.00
H289   H     0.37084   0.42804   0.26557   0.00000  Uiso   1.00
H290   H     0.62916   0.57196   0.23443   0.00000  Uiso   1.00
H291   H     0.62911   0.42807   0.26569   0.00000  Uiso   1.00
H292   H     0.37089   0.57193   0.23431   0.00000  Uiso   1.00
C293   C     0.62420   0.50002   0.25005   0.00000  Uiso   1.00
C294   C     0.37580   0.49998   0.24995   0.00000  Uiso   1.00
C295   C     0.52544   0.35731   0.27822   0.00000  Uiso   1.00
C296   C     0.47456   0.64269   0.22178   0.00000  Uiso   1.00
C297   C     0.47456   0.35737   0.22179   0.00000  Uiso   1.00
C298   C     0.52544   0.64263   0.27821   0.00000  Uiso   1.00
H299   H     0.54576   0.37552   0.30075   0.00000  Uiso   1.00
H300   H     0.45424   0.62448   0.19925   0.00000  Uiso   1.00
H301   H     0.45424   0.37562   0.19925   0.00000  Uiso   1.00
H302   H     0.54576   0.62438   0.30075   0.00000  Uiso   1.00
N303   N     0.50000   0.61907   0.25000   0.00000  Uiso   1.00
N304   N     0.50000   0.38093   0.25000   0.00000  Uiso   1.00
N305   N     0.45459   0.61683   0.45501   0.00000  Uiso   1.00
O306   O     0.42452   0.61177   0.42633   0.00000  Uiso   1.00
O307   O     0.46290   0.65738   0.46968   0.00000  Uiso   1.00
N308   N     0.54543   0.38318   0.04499   0.00000  Uiso   1.00
O309   O     0.57549   0.38825   0.07367   0.00000  Uiso   1.00
O310   O     0.53713   0.34263   0.03031   0.00000  Uiso   1.00
O311   O     0.77226   0.53821   0.25000   0.00000  Uiso   1.00
O312   O     0.89441   0.46179   0.25001   0.00000  Uiso   1.00
O313   O     0.89441   0.53821   0.25001   0.00000  Uiso   1.00
O314   O     0.77226   0.46179   0.25000   0.00000  Uiso   1.00
C315   C     0.75327   0.49999   0.24996   0.00000  Uiso   1.00
C316   C     0.91339   0.50001   0.25004   0.00000  Uiso   1.00
O317   O     0.83333   0.53823   0.18393   0.00000  Uiso   1.00
O318   O     0.83334   0.46177   0.31608   0.00000  Uiso   1.00
O319   O     0.83334   0.53823   0.31608   0.00000  Uiso   1.00
O320   O     0.83333   0.46177   0.18393   0.00000  Uiso   1.00
C321   C     0.83345   0.50005   0.16330   0.00000  Uiso   1.00
C322   C     0.83322   0.49995   0.33670   0.00000  Uiso   1.00
Zn323  Zn    0.83333   0.55104   0.25000   0.00000  Uiso   1.00
Zn324  Zn    0.83333   0.44896   0.25000   0.00000  Uiso   1.00
C325   C     0.84471   0.46084   0.40751   0.00000  Uiso   1.00
C326   C     0.82196   0.53917   0.09249   0.00000  Uiso   1.00
C327   C     0.83258   0.49982   0.38459   0.00000  Uiso   1.00
C328   C     0.83408   0.50018   0.11541   0.00000  Uiso   1.00
C329   C     0.81993   0.53875   0.40722   0.00000  Uiso   1.00
C330   C     0.84674   0.46126   0.09278   0.00000  Uiso   1.00
C331   C     0.81872   0.53910   0.45354   0.00000  Uiso   1.00
C332   C     0.84795   0.46090   0.04646   0.00000  Uiso   1.00
C333   C     0.83264   0.49999   0.47680   0.00000  Uiso   1.00
C334   C     0.83403   0.50002   0.02320   0.00000  Uiso   1.00
C335   C     0.84532   0.46079   0.45357   0.00000  Uiso   1.00
C336   C     0.82135   0.53921   0.04643   0.00000  Uiso   1.00
C337   C     0.80516   0.57783   0.47719   0.00000  Uiso   1.00
C338   C     0.86151   0.42218   0.02281   0.00000  Uiso   1.00
C339   C     0.80739   0.57764   0.02357   0.00000  Uiso   1.00
C340   C     0.85928   0.42236   0.47643   0.00000  Uiso   1.00
H341   H     0.85473   0.43089   0.38948   0.00000  Uiso   1.00
H342   H     0.81194   0.56911   0.11052   0.00000  Uiso   1.00
H343   H     0.81145   0.56867   0.38836   0.00000  Uiso   1.00
H344   H     0.85522   0.43133   0.11164   0.00000  Uiso   1.00
H345   H     0.79701   0.60720   0.04192   0.00000  Uiso   1.00
H346   H     0.86966   0.39280   0.45808   0.00000  Uiso   1.00
C347   C     0.68795   0.45950   0.25859   0.00000  Uiso   1.00
C348   C     0.97871   0.54050   0.24141   0.00000  Uiso   1.00
C349   C     0.97868   0.45952   0.25866   0.00000  Uiso   1.00
C350   C     0.68798   0.54048   0.24134   0.00000  Uiso   1.00
H351   H     0.70417   0.42804   0.26557   0.00000  Uiso   1.00
H352   H     0.96250   0.57196   0.23443   0.00000  Uiso   1.00
H353   H     0.96245   0.42807   0.26569   0.00000  Uiso   1.00
H354   H     0.70422   0.57193   0.23431   0.00000  Uiso   1.00
C355   C     0.95753   0.50002   0.25005   0.00000  Uiso   1.00
C356   C     0.70914   0.49998   0.24995   0.00000  Uiso   1.00
C357   C     0.85877   0.35731   0.27822   0.00000  Uiso   1.00
C358   C     0.80789   0.64269   0.22178   0.00000  Uiso   1.00
C359   C     0.80789   0.35737   0.22179   0.00000  Uiso   1.00
C360   C     0.85877   0.64263   0.27821   0.00000  Uiso   1.00
H361   H     0.87909   0.37552   0.30075   0.00000  Uiso   1.00
H362   H     0.78757   0.62448   0.19925   0.00000  Uiso   1.00
H363   H     0.78757   0.37562   0.19925   0.00000  Uiso   1.00
H364   H     0.87910   0.62438   0.30075   0.00000  Uiso   1.00
N365   N     0.83333   0.61907   0.25000   0.00000  Uiso   1.00
N366   N     0.83333   0.38093   0.25000   0.00000  Uiso   1.00
N367   N     0.78792   0.61683   0.45501   0.00000  Uiso   1.00
O368   O     0.75785   0.61177   0.42633   0.00000  Uiso   1.00
O369   O     0.79623   0.65738   0.46968   0.00000  Uiso   1.00
N370   N     0.87876   0.38318   0.04499   0.00000  Uiso   1.00
O371   O     0.90882   0.38825   0.07367   0.00000  Uiso   1.00
O372   O     0.87046   0.34263   0.03031   0.00000  Uiso   1.00
O373   O     0.10559   0.87154   0.25000   0.00000  Uiso   1.00
O374   O     0.22774   0.79513   0.25001   0.00000  Uiso   1.00
O375   O     0.22774   0.87154   0.25001   0.00000  Uiso   1.00
O376   O     0.10559   0.79513   0.25000   0.00000  Uiso   1.00
C377   C     0.08661   0.83332   0.24996   0.00000  Uiso   1.00
C378   C     0.24673   0.83335   0.25004   0.00000  Uiso   1.00
O379   O     0.16666   0.87156   0.18393   0.00000  Uiso   1.00
O380   O     0.16667   0.79511   0.31608   0.00000  Uiso   1.00
O381   O     0.16667   0.87156   0.31608   0.00000  Uiso   1.00
O382   O     0.16666   0.79511   0.18393   0.00000  Uiso   1.00
C383   C     0.16678   0.83338   0.16330   0.00000  Uiso   1.00
C384   C     0.16655   0.83329   0.33670   0.00000  Uiso   1.00
Zn385  Zn    0.16667   0.88437   0.25000   0.00000  Uiso   1.00
Zn386  Zn    0.16667   0.78229   0.25000   0.00000  Uiso   1.00
C387   C     0.17804   0.79417   0.40751   0.00000  Uiso   1.00
C388   C     0.15530   0.87250   0.09249   0.00000  Uiso   1.00
C389   C     0.16592   0.83316   0.38459   0.00000  Uiso   1.00
C390   C     0.16742   0.83351   0.11541   0.00000  Uiso   1.00
C391   C     0.15327   0.87208   0.40722   0.00000  Uiso   1.00
C392   C     0.18007   0.79459   0.09278   0.00000  Uiso   1.00
C393   C     0.15205   0.87244   0.45354   0.00000  Uiso   1.00
C394   C     0.18129   0.79423   0.04646   0.00000  Uiso   1.00
C395   C     0.16597   0.83332   0.47680   0.00000  Uiso   1.00
C396   C     0.16736   0.83335   0.02320   0.00000  Uiso   1.00
C397   C     0.17865   0.79413   0.45357   0.00000  Uiso   1.00
C398   C     0.15469   0.87254   0.04643   0.00000  Uiso   1.00
C399   C     0.13850   0.91116   0.47719   0.00000  Uiso   1.00
C400   C     0.19484   0.75551   0.02281   0.00000  Uiso   1.00
C401   C     0.14072   0.91098   0.02357   0.00000  Uiso   1.00
C402   C     0.19262   0.75569   0.47643   0.00000  Uiso   1.00
H403   H     0.18806   0.76423   0.38948   0.00000  Uiso   1.00
H404   H     0.14528   0.90244   0.11052   0.00000  Uiso   1.00
H405   H     0.14479   0.90200   0.38836   0.00000  Uiso   1.00
H406   H     0.18855   0.76467   0.11164   0.00000  Uiso   1.00
H407   H     0.13035   0.94054   0.04192   0.00000  Uiso   1.00
H408   H     0.20299   0.72614   0.45808   0.00000  Uiso   1.00
C409   C     0.02129   0.79283   0.25859   0.00000  Uiso   1.00
C410   C     0.31205   0.87383   0.24141   0.00000  Uiso   1.00
C411   C     0.31202   0.79286   0.25866   0.00000  Uiso   1.00
C412   C     0.02132   0.87381   0.24134   0.00000  Uiso   1.00
H413   H     0.03750   0.76137   0.26557   0.00000  Uiso   1.00
H414   H     0.29583   0.90530   0.23443   0.00000  Uiso   1.00
H415   H     0.29578   0.76140   0.26569   0.00000  Uiso   1.00
H416   H     0.03755   0.90526   0.23431   0.00000  Uiso   1.00
C417   C     0.29086   0.83335   0.25005   0.00000  Uiso   1.00
C418   C     0.04247   0.83331   0.24995   0.00000  Uiso   1.00
C419   C     0.19211   0.69064   0.27822   0.00000  Uiso   1.00
C420   C     0.14123   0.97603   0.22178   0.00000  Uiso   1.00
C421   C     0.14123   0.69070   0.22179   0.00000  Uiso   1.00
C422   C     0.19211   0.97597   0.27821   0.00000  Uiso   1.00
H423   H     0.21243   0.70885   0.30075   0.00000  Uiso   1.00
H424   H     0.12091   0.95782   0.19925   0.00000  Uiso   1.00
H425   H     0.12090   0.70896   0.19925   0.00000  Uiso   1.00
H426   H     0.21243   0.95771   0.30075   0.00000  Uiso   1.00
N427   N     0.16667   0.95240   0.25000   0.00000  Uiso   1.00
N428   N     0.16667   0.71427   0.25000   0.00000  Uiso   1.00
N429   N     0.12125   0.95017   0.45501   0.00000  Uiso   1.00
O430   O     0.09118   0.94510   0.42633   0.00000  Uiso   1.00
O431   O     0.12956   0.99071   0.46968   0.00000  Uiso   1.00
N432   N     0.21209   0.71651   0.04499   0.00000  Uiso   1.00
O433   O     0.24216   0.72158   0.07367   0.00000  Uiso   1.00
O434   O     0.20380   0.67597   0.03031   0.00000  Uiso   1.00
O435   O     0.43892   0.87154   0.25000   0.00000  Uiso   1.00
O436   O     0.56108   0.79513   0.25001   0.00000  Uiso   1.00
O437   O     0.56108   0.87154   0.25001   0.00000  Uiso   1.00
O438   O     0.43892   0.79513   0.25000   0.00000  Uiso   1.00
C439   C     0.41994   0.83332   0.24996   0.00000  Uiso   1.00
C440   C     0.58006   0.83335   0.25004   0.00000  Uiso   1.00
O441   O     0.49999   0.87156   0.18393   0.00000  Uiso   1.00
O442   O     0.50001   0.79511   0.31608   0.00000  Uiso   1.00
O443   O     0.50001   0.87156   0.31608   0.00000  Uiso   1.00
O444   O     0.49999   0.79511   0.18393   0.00000  Uiso   1.00
C445   C     0.50011   0.83338   0.16330   0.00000  Uiso   1.00
C446   C     0.49989   0.83329   0.33670   0.00000  Uiso   1.00
Zn447  Zn    0.50000   0.88437   0.25000   0.00000  Uiso   1.00
Zn448  Zn    0.50000   0.78229   0.25000   0.00000  Uiso   1.00
C449   C     0.51137   0.79417   0.40751   0.00000  Uiso   1.00
C450   C     0.48863   0.87250   0.09249   0.00000  Uiso   1.00
C451   C     0.49925   0.83316   0.38459   0.00000  Uiso   1.00
C452   C     0.50075   0.83351   0.11541   0.00000  Uiso   1.00
C453   C     0.48660   0.87208   0.40722   0.00000  Uiso   1.00
C454   C     0.51340   0.79459   0.09278   0.00000  Uiso   1.00
C455   C     0.48538   0.87244   0.45354   0.00000  Uiso   1.00
C456   C     0.51462   0.79423   0.04646   0.00000  Uiso   1.00
C457   C     0.49931   0.83332   0.47680   0.00000  Uiso   1.00
C458   C     0.50070   0.83335   0.02320   0.00000  Uiso   1.00
C459   C     0.51198   0.79413   0.45357   0.00000  Uiso   1.00
C460   C     0.48802   0.87254   0.04643   0.00000  Uiso   1.00
C461   C     0.47183   0.91116   0.47719   0.00000  Uiso   1.00
C462   C     0.52818   0.75551   0.02281   0.00000  Uiso   1.00
C463   C     0.47405   0.91098   0.02357   0.00000  Uiso   1.00
C464   C     0.52595   0.75569   0.47643   0.00000  Uiso   1.00
H465   H     0.52139   0.76423   0.38948   0.00000  Uiso   1.00
H466   H     0.47861   0.90244   0.11052   0.00000  Uiso   1.00
H467   H     0.47812   0.90200   0.38836   0.00000  Uiso   1.00
H468   H     0.52188   0.76467   0.11164   0.00000  Uiso   1.00
H469   H     0.46368   0.94054   0.04192   0.00000  Uiso   1.00
H470   H     0.53633   0.72614   0.45808   0.00000  Uiso   1.00
C471   C     0.35462   0.79283   0.25859   0.00000  Uiso   1.00
C472   C     0.64538   0.87383   0.24141   0.00000  Uiso   1.00
C473   C     0.64535   0.79286   0.25866   0.00000  Uiso   1.00
C474   C     0.35465   0.87381   0.24134   0.00000  Uiso   1.00
H475   H     0.37084   0.76137   0.26557   0.00000  Uiso   1.00
H476   H     0.62916   0.90530   0.23443   0.00000  Uiso   1.00
H477   H     0.62911   0.76140   0.26569   0.00000  Uiso   1.00
H478   H     0.37089   0.90526   0.23431   0.00000  Uiso   1.00
C479   C     0.62420   0.83335   0.25005   0.00000  Uiso   1.00
C480   C     0.37580   0.83331   0.24995   0.00000  Uiso   1.00
C481   C     0.52544   0.69064   0.27822   0.00000  Uiso   1.00
C482   C     0.47456   0.97603   0.22178   0.00000  Uiso   1.00
C483   C     0.47456   0.69070   0.22179   0.00000  Uiso   1.00
C484   C     0.52544   0.97597   0.27821   0.00000  Uiso   1.00
H485   H     0.54576   0.70885   0.30075   0.00000  Uiso   1.00
H486   H     0.45424   0.95782   0.19925   0.00000  Uiso   1.00
H487   H     0.45424   0.70896   0.19925   0.00000  Uiso   1.00
H488   H     0.54576   0.95771   0.30075   0.00000  Uiso   1.00
N489   N     0.50000   0.95240   0.25000   0.00000  Uiso   1.00
N490   N     0.50000   0.71427   0.25000   0.00000  Uiso   1.00
N491   N     0.45459   0.95017   0.45501   0.00000  Uiso   1.00
O492   O     0.42452   0.94510   0.42633   0.00000  Uiso   1.00
O493   O     0.46290   0.99071   0.46968   0.00000  Uiso   1.00
N494   N     0.54543   0.71651   0.04499   0.00000  Uiso   1.00
O495   O     0.57549   0.72158   0.07367   0.00000  Uiso   1.00
O496   O     0.53713   0.67597   0.03031   0.00000  Uiso   1.00
O497   O     0.77226   0.87154   0.25000   0.00000  Uiso   1.00
O498   O     0.89441   0.79513   0.25001   0.00000  Uiso   1.00
O499   O     0.89441   0.87154   0.25001   0.00000  Uiso   1.00
O500   O     0.77226   0.79513   0.25000   0.00000  Uiso   1.00
C501   C     0.75327   0.83332   0.24996   0.00000  Uiso   1.00
C502   C     0.91339   0.83335   0.25004   0.00000  Uiso   1.00
O503   O     0.83333   0.87156   0.18393   0.00000  Uiso   1.00
O504   O     0.83334   0.79511   0.31608   0.00000  Uiso   1.00
O505   O     0.83334   0.87156   0.31608   0.00000  Uiso   1.00
O506   O     0.83333   0.79511   0.18393   0.00000  Uiso   1.00
C507   C     0.83345   0.83338   0.16330   0.00000  Uiso   1.00
C508   C     0.83322   0.83329   0.33670   0.00000  Uiso   1.00
Zn509  Zn    0.83333   0.88437   0.25000   0.00000  Uiso   1.00
Zn510  Zn    0.83333   0.78229   0.25000   0.00000  Uiso   1.00
C511   C     0.84471   0.79417   0.40751   0.00000  Uiso   1.00
C512   C     0.82196   0.87250   0.09249   0.00000  Uiso   1.00
C513   C     0.83258   0.83316   0.38459   0.00000  Uiso   1.00
C514   C     0.83408   0.83351   0.11541   0.00000  Uiso   1.00
C515   C     0.81993   0.87208   0.40722   0.00000  Uiso   1.00
C516   C     0.84674   0.79459   0.09278   0.00000  Uiso   1.00
C517   C     0.81872   0.87244   0.45354   0.00000  Uiso   1.00
C518   C     0.84795   0.79423   0.04646   0.00000  Uiso   1.00
C519   C     0.83264   0.83332   0.47680   0.00000  Uiso   1.00
C520   C     0.83403   0.83335   0.02320   0.00000  Uiso   1.00
C521   C     0.84532   0.79413   0.45357   0.00000  Uiso   1.00
C522   C     0.82135   0.87254   0.04643   0.00000  Uiso   1.00
C523   C     0.80516   0.91116   0.47719   0.00000  Uiso   1.00
C524   C     0.86151   0.75551   0.02281   0.00000  Uiso   1.00
C525   C     0.80739   0.91098   0.02357   0.00000  Uiso   1.00
C526   C     0.85928   0.75569   0.47643   0.00000  Uiso   1.00
H527   H     0.85473   0.76423   0.38948   0.00000  Uiso   1.00
H528   H     0.81194   0.90244   0.11052   0.00000  Uiso   1.00
H529   H     0.81145   0.90200   0.38836   0.00000  Uiso   1.00
H530   H     0.85522   0.76467   0.11164   0.00000  Uiso   1.00
H531   H     0.79701   0.94054   0.04192   0.00000  Uiso   1.00
H532   H     0.86966   0.72614   0.45808   0.00000  Uiso   1.00
C533   C     0.68795   0.79283   0.25859   0.00000  Uiso   1.00
C534   C     0.97871   0.87383   0.24141   0.00000  Uiso   1.00
C535   C     0.97868   0.79286   0.25866   0.00000  Uiso   1.00
C536   C     0.68798   0.87381   0.24134   0.00000  Uiso   1.00
H537   H     0.70417   0.76137   0.26557   0.00000  Uiso   1.00
H538   H     0.96250   0.90530   0.23443   0.00000  Uiso   1.00
H539   H     0.96245   0.76140   0.26569   0.00000  Uiso   1.00
H540   H     0.70422   0.90526   0.23431   0.00000  Uiso   1.00
C541   C     0.95753   0.83335   0.25005   0.00000  Uiso   1.00
C542   C     0.70914   0.83331   0.24995   0.00000  Uiso   1.00
C543   C     0.85877   0.69064   0.27822   0.00000  Uiso   1.00
C544   C     0.80789   0.97603   0.22178   0.00000  Uiso   1.00
C545   C     0.80789   0.69070   0.22179   0.00000  Uiso   1.00
C546   C     0.85877   0.97597   0.27821   0.00000  Uiso   1.00
H547   H     0.87909   0.70885   0.30075   0.00000  Uiso   1.00
H548   H     0.78757   0.95782   0.19925   0.00000  Uiso   1.00
H549   H     0.78757   0.70896   0.19925   0.00000  Uiso   1.00
H550   H     0.87910   0.95771   0.30075   0.00000  Uiso   1.00
N551   N     0.83333   0.95240   0.25000   0.00000  Uiso   1.00
N552   N     0.83333   0.71427   0.25000   0.00000  Uiso   1.00
N553   N     0.78792   0.95017   0.45501   0.00000  Uiso   1.00
O554   O     0.75785   0.94510   0.42633   0.00000  Uiso   1.00
O555   O     0.79623   0.99071   0.46968   0.00000  Uiso   1.00
N556   N     0.87876   0.71651   0.04499   0.00000  Uiso   1.00
O557   O     0.90882   0.72158   0.07367   0.00000  Uiso   1.00
O558   O     0.87046   0.67597   0.03031   0.00000  Uiso   1.00
O559   O     0.10559   0.20487   0.75000   0.00000  Uiso   1.00
O560   O     0.22774   0.12846   0.75001   0.00000  Uiso   1.00
O561   O     0.22774   0.20487   0.75001   0.00000  Uiso   1.00
O562   O     0.10559   0.12846   0.75000   0.00000  Uiso   1.00
C563   C     0.08661   0.16665   0.74996   0.00000  Uiso   1.00
C564   C     0.24673   0.16668   0.75004   0.00000  Uiso   1.00
O565   O     0.16666   0.20489   0.68393   0.00000  Uiso   1.00
O566   O     0.16667   0.12844   0.81608   0.00000  Uiso   1.00
O567   O     0.16667   0.20489   0.81608   0.00000  Uiso   1.00
O568   O     0.16666   0.12844   0.68393   0.00000  Uiso   1.00
C569   C     0.16678   0.16671   0.66330   0.00000  Uiso   1.00
C570   C     0.16655   0.16662   0.83670   0.00000  Uiso   1.00
Zn571  Zn    0.16667   0.21771   0.75000   0.00000  Uiso   1.00
Zn572  Zn    0.16667   0.11563   0.75000   0.00000  Uiso   1.00
C573   C     0.17804   0.12750   0.90751   0.00000  Uiso   1.00
C574   C     0.15530   0.20583   0.59249   0.00000  Uiso   1.00
C575   C     0.16592   0.16649   0.88459   0.00000  Uiso   1.00
C576   C     0.16742   0.16684   0.61541   0.00000  Uiso   1.00
C577   C     0.15327   0.20541   0.90722   0.00000  Uiso   1.00
C578   C     0.18007   0.12792   0.59278   0.00000  Uiso   1.00
C579   C     0.15205   0.20577   0.95354   0.00000  Uiso   1.00
C580   C     0.18129   0.12756   0.54646   0.00000  Uiso   1.00
C581   C     0.16597   0.16665   0.97680   0.00000  Uiso   1.00
C582   C     0.16736   0.16668   0.52320   0.00000  Uiso   1.00
C583   C     0.17865   0.12746   0.95357   0.00000  Uiso   1.00
C584   C     0.15469   0.20588   0.54643   0.00000  Uiso   1.00
C585   C     0.13850   0.24449   0.97719   0.00000  Uiso   1.00
C586   C     0.19484   0.08884   0.52281   0.00000  Uiso   1.00
C587   C     0.14072   0.24431   0.52357   0.00000  Uiso   1.00
C588   C     0.19262   0.08903   0.97643   0.00000  Uiso   1.00
H589   H     0.18806   0.09756   0.88948   0.00000  Uiso   1.00
H590   H     0.14528   0.23577   0.61052   0.00000  Uiso   1.00
H591   H     0.14479   0.23533   0.88836   0.00000  Uiso   1.00
H592   H     0.18855   0.09800   0.61164   0.00000  Uiso   1.00
H593   H     0.13035   0.27387   0.54192   0.00000  Uiso   1.00
H594   H     0.20299   0.05947   0.95808   0.00000  Uiso   1.00
C595   C     0.02129   0.12617   0.75859   0.00000  Uiso   1.00
C596   C     0.31205   0.20717   0.74141   0.00000  Uiso   1.00
C597   C     0.31202   0.12619   0.75866   0.00000  Uiso   1.00
C598   C     0.02132   0.20714   0.74134   0.00000  Uiso   1.00
H599   H     0.03750   0.09470   0.76557   0.00000  Uiso   1.00
H600   H     0.29583   0.23863   0.73443   0.00000  Uiso   1.00
H601   H     0.29578   0.09474   0.76569   0.00000  Uiso   1.00
H602   H     0.03755   0.23860   0.73431   0.00000  Uiso   1.00
C603   C     0.29086   0.16669   0.75005   0.00000  Uiso   1.00
C604   C     0.04247   0.16665   0.74995   0.00000  Uiso   1.00
C605   C     0.19211   0.02397   0.77822   0.00000  Uiso   1.00
C606   C     0.14123   0.30936   0.72178   0.00000  Uiso   1.00
C607   C     0.14123   0.02403   0.72179   0.00000  Uiso   1.00
C608   C     0.19211   0.30930   0.77821   0.00000  Uiso   1.00
H609   H     0.21243   0.04218   0.80075   0.00000  Uiso   1.00
H610   H     0.12091   0.29115   0.69925   0.00000  Uiso   1.00
H611   H     0.12090   0.04229   0.69925   0.00000  Uiso   1.00
H612   H     0.21243   0.29104   0.80075   0.00000  Uiso   1.00
N613   N     0.16667   0.28573   0.75000   0.00000  Uiso   1.00
N614   N     0.16667   0.04760   0.75000   0.00000  Uiso   1.00
N615   N     0.12125   0.28350   0.95501   0.00000  Uiso   1.00
O616   O     0.09118   0.27843   0.92633   0.00000  Uiso   1.00
O617   O     0.12956   0.32405   0.96968   0.00000  Uiso   1.00
N618   N     0.21209   0.04984   0.54499   0.00000  Uiso   1.00
O619   O     0.24216   0.05492   0.57367   0.00000  Uiso   1.00
O620   O     0.20380   0.00930   0.53031   0.00000  Uiso   1.00
O621   O     0.43892   0.20487   0.75000   0.00000  Uiso   1.00
O622   O     0.56108   0.12846   0.75001   0.00000  Uiso   1.00
O623   O     0.56108   0.20487   0.75001   0.00000  Uiso   1.00
O624   O     0.43892   0.12846   0.75000   0.00000  Uiso   1.00
C625   C     0.41994   0.16665   0.74996   0.00000  Uiso   1.00
C626   C     0.58006   0.16668   0.75004   0.00000  Uiso   1.00
O627   O     0.49999   0.20489   0.68393   0.00000  Uiso   1.00
O628   O     0.50001   0.12844   0.81608   0.00000  Uiso   1.00
O629   O     0.50001   0.20489   0.81608   0.00000  Uiso   1.00
O630   O     0.49999   0.12844   0.68393   0.00000  Uiso   1.00
C631   C     0.50011   0.16671   0.66330   0.00000  Uiso   1.00
C632   C     0.49989   0.16662   0.83670   0.00000  Uiso   1.00
Zn633  Zn    0.50000   0.21771   0.75000   0.00000  Uiso   1.00
Zn634  Zn    0.50000   0.11563   0.75000   0.00000  Uiso   1.00
C635   C     0.51137   0.12750   0.90751   0.00000  Uiso   1.00
C636   C     0.48863   0.20583   0.59249   0.00000  Uiso   1.00
C637   C     0.49925   0.16649   0.88459   0.00000  Uiso   1.00
C638   C     0.50075   0.16684   0.61541   0.00000  Uiso   1.00
C639   C     0.48660   0.20541   0.90722   0.00000  Uiso   1.00
C640   C     0.51340   0.12792   0.59278   0.00000  Uiso   1.00
C641   C     0.48538   0.20577   0.95354   0.00000  Uiso   1.00
C642   C     0.51462   0.12756   0.54646   0.00000  Uiso   1.00
C643   C     0.49931   0.16665   0.97680   0.00000  Uiso   1.00
C644   C     0.50070   0.16668   0.52320   0.00000  Uiso   1.00
C645   C     0.51198   0.12746   0.95357   0.00000  Uiso   1.00
C646   C     0.48802   0.20588   0.54643   0.00000  Uiso   1.00
C647   C     0.47183   0.24449   0.97719   0.00000  Uiso   1.00
C648   C     0.52818   0.08884   0.52281   0.00000  Uiso   1.00
C649   C     0.47405   0.24431   0.52357   0.00000  Uiso   1.00
C650   C     0.52595   0.08903   0.97643   0.00000  Uiso   1.00
H651   H     0.52139   0.09756   0.88948   0.00000  Uiso   1.00
H652   H     0.47861   0.23577   0.61052   0.00000  Uiso   1.00
H653   H     0.47812   0.23533   0.88836   0.00000  Uiso   1.00
H654   H     0.52188   0.09800   0.61164   0.00000  Uiso   1.00
H655   H     0.46368   0.27387   0.54192   0.00000  Uiso   1.00
H656   H     0.53633   0.05947   0.95808   0.00000  Uiso   1.00
C657   C     0.35462   0.12617   0.75859   0.00000  Uiso   1.00
C658   C     0.64538   0.20717   0.74141   0.00000  Uiso   1.00
C659   C     0.64535   0.12619   0.75866   0.00000  Uiso   1.00
C660   C     0.35465   0.20714   0.74134   0.00000  Uiso   1.00
H661   H     0.37084   0.09470   0.76557   0.00000  Uiso   1.00
H662   H     0.62916   0.23863   0.73443   0.00000  Uiso   1.00
H663   H     0.62911   0.09474   0.76569   0.00000  Uiso   1.00
H664   H     0.37089   0.23860   0.73431   0.00000  Uiso   1.00
C665   C     0.62420   0.16669   0.75005   0.00000  Uiso   1.00
C666   C     0.37580   0.16665   0.74995   0.00000  Uiso   1.00
C667   C     0.52544   0.02397   0.77822   0.00000  Uiso   1.00
C668   C     0.47456   0.30936   0.72178   0.00000  Uiso   1.00
C669   C     0.47456   0.02403   0.72179   0.00000  Uiso   1.00
C670   C     0.52544   0.30930   0.77821   0.00000  Uiso   1.00
H671   H     0.54576   0.04218   0.80075   0.00000  Uiso   1.00
H672   H     0.45424   0.29115   0.69925   0.00000  Uiso   1.00
H673   H     0.45424   0.04229   0.69925   0.00000  Uiso   1.00
H674   H     0.54576   0.29104   0.80075   0.00000  Uiso   1.00
N675   N     0.50000   0.28573   0.75000   0.00000  Uiso   1.00
N676   N     0.50000   0.04760   0.75000   0.00000  Uiso   1.00
N677   N     0.45459   0.28350   0.95501   0.00000  Uiso   1.00
O678   O     0.42452   0.27843   0.92633   0.00000  Uiso   1.00
O679   O     0.46290   0.32405   0.96968   0.00000  Uiso   1.00
N680   N     0.54543   0.04984   0.54499   0.00000  Uiso   1.00
O681   O     0.57549   0.05492   0.57367   0.00000  Uiso   1.00
O682   O     0.53713   0.00930   0.53031   0.00000  Uiso   1.00
O683   O     0.77226   0.20487   0.75000   0.00000  Uiso   1.00
O684   O     0.89441   0.12846   0.75001   0.00000  Uiso   1.00
O685   O     0.89441   0.20487   0.75001   0.00000  Uiso   1.00
O686   O     0.77226   0.12846   0.75000   0.00000  Uiso   1.00
C687   C     0.75327   0.16665   0.74996   0.00000  Uiso   1.00
C688   C     0.91339   0.16668   0.75004   0.00000  Uiso   1.00
O689   O     0.83333   0.20489   0.68393   0.00000  Uiso   1.00
O690   O     0.83334   0.12844   0.81608   0.00000  Uiso   1.00
O691   O     0.83334   0.20489   0.81608   0.00000  Uiso   1.00
O692   O     0.83333   0.12844   0.68393   0.00000  Uiso   1.00
C693   C     0.83345   0.16671   0.66330   0.00000  Uiso   1.00
C694   C     0.83322   0.16662   0.83670   0.00000  Uiso   1.00
Zn695  Zn    0.83333   0.21771   0.75000   0.00000  Uiso   1.00
Zn696  Zn    0.83333   0.11563   0.75000   0.00000  Uiso   1.00
C697   C     0.84471   0.12750   0.90751   0.00000  Uiso   1.00
C698   C     0.82196   0.20583   0.59249   0.00000  Uiso   1.00
C699   C     0.83258   0.16649   0.88459   0.00000  Uiso   1.00
C700   C     0.83408   0.16684   0.61541   0.00000  Uiso   1.00
C701   C     0.81993   0.20541   0.90722   0.00000  Uiso   1.00
C702   C     0.84674   0.12792   0.59278   0.00000  Uiso   1.00
C703   C     0.81872   0.20577   0.95354   0.00000  Uiso   1.00
C704   C     0.84795   0.12756   0.54646   0.00000  Uiso   1.00
C705   C     0.83264   0.16665   0.97680   0.00000  Uiso   1.00
C706   C     0.83403   0.16668   0.52320   0.00000  Uiso   1.00
C707   C     0.84532   0.12746   0.95357   0.00000  Uiso   1.00
C708   C     0.82135   0.20588   0.54643   0.00000  Uiso   1.00
C709   C     0.80516   0.24449   0.97719   0.00000  Uiso   1.00
C710   C     0.86151   0.08884   0.52281   0.00000  Uiso   1.00
C711   C     0.80739   0.24431   0.52357   0.00000  Uiso   1.00
C712   C     0.85928   0.08903   0.97643   0.00000  Uiso   1.00
H713   H     0.85473   0.09756   0.88948   0.00000  Uiso   1.00
H714   H     0.81194   0.23577   0.61052   0.00000  Uiso   1.00
H715   H     0.81145   0.23533   0.88836   0.00000  Uiso   1.00
H716   H     0.85522   0.09800   0.61164   0.00000  Uiso   1.00
H717   H     0.79701   0.27387   0.54192   0.00000  Uiso   1.00
H718   H     0.86966   0.05947   0.95808   0.00000  Uiso   1.00
C719   C     0.68795   0.12617   0.75859   0.00000  Uiso   1.00
C720   C     0.97871   0.20717   0.74141   0.00000  Uiso   1.00
C721   C     0.97868   0.12619   0.75866   0.00000  Uiso   1.00
C722   C     0.68798   0.20714   0.74134   0.00000  Uiso   1.00
H723   H     0.70417   0.09470   0.76557   0.00000  Uiso   1.00
H724   H     0.96250   0.23863   0.73443   0.00000  Uiso   1.00
H725   H     0.96245   0.09474   0.76569   0.00000  Uiso   1.00
H726   H     0.70422   0.23860   0.73431   0.00000  Uiso   1.00
C727   C     0.95753   0.16669   0.75005   0.00000  Uiso   1.00
C728   C     0.70914   0.16665   0.74995   0.00000  Uiso   1.00
C729   C     0.85877   0.02397   0.77822   0.00000  Uiso   1.00
C730   C     0.80789   0.30936   0.72178   0.00000  Uiso   1.00
C731   C     0.80789   0.02403   0.72179   0.00000  Uiso   1.00
C732   C     0.85877   0.30930   0.77821   0.00000  Uiso   1.00
H733   H     0.87909   0.04218   0.80075   0.00000  Uiso   1.00
H734   H     0.78757   0.29115   0.69925   0.00000  Uiso   1.00
H735   H     0.78757   0.04229   0.69925   0.00000  Uiso   1.00
H736   H     0.87910   0.29104   0.80075   0.00000  Uiso   1.00
N737   N     0.83333   0.28573   0.75000   0.00000  Uiso   1.00
N738   N     0.83333   0.04760   0.75000   0.00000  Uiso   1.00
N739   N     0.78792   0.28350   0.95501   0.00000  Uiso   1.00
O740   O     0.75785   0.27843   0.92633   0.00000  Uiso   1.00
O741   O     0.79623   0.32405   0.96968   0.00000  Uiso   1.00
N742   N     0.87876   0.04984   0.54499   0.00000  Uiso   1.00
O743   O     0.90882   0.05492   0.57367   0.00000  Uiso   1.00
O744   O     0.87046   0.00930   0.53031   0.00000  Uiso   1.00
O745   O     0.10559   0.53821   0.75000   0.00000  Uiso   1.00
O746   O     0.22774   0.46179   0.75001   0.00000  Uiso   1.00
O747   O     0.22774   0.53821   0.75001   0.00000  Uiso   1.00
O748   O     0.10559   0.46179   0.75000   0.00000  Uiso   1.00
C749   C     0.08661   0.49999   0.74996   0.00000  Uiso   1.00
C750   C     0.24673   0.50001   0.75004   0.00000  Uiso   1.00
O751   O     0.16666   0.53823   0.68393   0.00000  Uiso   1.00
O752   O     0.16667   0.46177   0.81608   0.00000  Uiso   1.00
O753   O     0.16667   0.53823   0.81608   0.00000  Uiso   1.00
O754   O     0.16666   0.46177   0.68393   0.00000  Uiso   1.00
C755   C     0.16678   0.50005   0.66330   0.00000  Uiso   1.00
C756   C     0.16655   0.49995   0.83670   0.00000  Uiso   1.00
Zn757  Zn    0.16667   0.55104   0.75000   0.00000  Uiso   1.00
Zn758  Zn    0.16667   0.44896   0.75000   0.00000  Uiso   1.00
C759   C     0.17804   0.46084   0.90751   0.00000  Uiso   1.00
C760   C     0.15530   0.53917   0.59249   0.00000  Uiso   1.00
C761   C     0.16592   0.49982   0.88459   0.00000  Uiso   1.00
C762   C     0.16742   0.50018   0.61541   0.00000  Uiso   1.00
C763   C     0.15327   0.53875   0.90722   0.00000  Uiso   1.00
C764   C     0.18007   0.46126   0.59278   0.00000  Uiso   1.00
C765   C     0.15205   0.53910   0.95354   0.00000  Uiso   1.00
C766   C     0.18129   0.46090   0.54646   0.00000  Uiso   1.00
C767   C     0.16597   0.49999   0.97680   0.00000  Uiso   1.00
C768   C     0.16736   0.50002   0.52320   0.00000  Uiso   1.00
C769   C     0.17865   0.46079   0.95357   0.00000  Uiso   1.00
C770   C     0.15469   0.53921   0.54643   0.00000  Uiso   1.00
C771   C     0.13850   0.57783   0.97719   0.00000  Uiso   1.00
C772   C     0.19484   0.42218   0.52281   0.00000  Uiso   1.00
C773   C     0.14072   0.57764   0.52357   0.00000  Uiso   1.00
C774   C     0.19262   0.42236   0.97643   0.00000  Uiso   1.00
H775   H     0.18806   0.43089   0.88948   0.00000  Uiso   1.00
H776   H     0.14528   0.56911   0.61052   0.00000  Uiso   1.00
H777   H     0.14479   0.56867   0.88836   0.00000  Uiso   1.00
H778   H     0.18855   0.43133   0.61164   0.00000  Uiso   1.00
H779   H     0.13035   0.60720   0.54192   0.00000  Uiso   1.00
H780   H     0.20299   0.39280   0.95808   0.00000  Uiso   1.00
C781   C     0.02129   0.45950   0.75859   0.00000  Uiso   1.00
C782   C     0.31205   0.54050   0.74141   0.00000  Uiso   1.00
C783   C     0.31202   0.45952   0.75866   0.00000  Uiso   1.00
C784   C     0.02132   0.54048   0.74134   0.00000  Uiso   1.00
H785   H     0.03750   0.42804   0.76557   0.00000  Uiso   1.00
H786   H     0.29583   0.57196   0.73443   0.00000  Uiso   1.00
H787   H     0.29578   0.42807   0.76569   0.00000  Uiso   1.00
H788   H     0.03755   0.57193   0.73431   0.00000  Uiso   1.00
C789   C     0.29086   0.50002   0.75005   0.00000  Uiso   1.00
C790   C     0.04247   0.49998   0.74995   0.00000  Uiso   1.00
C791   C     0.19211   0.35731   0.77822   0.00000  Uiso   1.00
C792   C     0.14123   0.64269   0.72178   0.00000  Uiso   1.00
C793   C     0.14123   0.35737   0.72179   0.00000  Uiso   1.00
C794   C     0.19211   0.64263   0.77821   0.00000  Uiso   1.00
H795   H     0.21243   0.37552   0.80075   0.00000  Uiso   1.00
H796   H     0.12091   0.62448   0.69925   0.00000  Uiso   1.00
H797   H     0.12090   0.37562   0.69925   0.00000  Uiso   1.00
H798   H     0.21243   0.62438   0.80075   0.00000  Uiso   1.00
N799   N     0.16667   0.61907   0.75000   0.00000  Uiso   1.00
N800   N     0.16667   0.38093   0.75000   0.00000  Uiso   1.00
N801   N     0.12125   0.61683   0.95501   0.00000  Uiso   1.00
O802   O     0.09118   0.61177   0.92633   0.00000  Uiso   1.00
O803   O     0.12956   0.65738   0.96968   0.00000  Uiso   1.00
N804   N     0.21209   0.38318   0.54499   0.00000  Uiso   1.00
O805   O     0.24216   0.38825   0.57367   0.00000  Uiso   1.00
O806   O     0.20380   0.34263   0.53031   0.00000  Uiso   1.00
O807   O     0.43892   0.53821   0.75000   0.00000  Uiso   1.00
O808   O     0.56108   0.46179   0.75001   0.00000  Uiso   1.00
O809   O     0.56108   0.53821   0.75001   0.00000  Uiso   1.00
O810   O     0.43892   0.46179   0.75000   0.00000  Uiso   1.00
C811   C     0.41994   0.49999   0.74996   0.00000  Uiso   1.00
C812   C     0.58006   0.50001   0.75004   0.00000  Uiso   1.00
O813   O     0.49999   0.53823   0.68393   0.00000  Uiso   1.00
O814   O     0.50001   0.46177   0.81608   0.00000  Uiso   1.00
O815   O     0.50001   0.53823   0.81608   0.00000  Uiso   1.00
O816   O     0.49999   0.46177   0.68393   0.00000  Uiso   1.00
C817   C     0.50011   0.50005   0.66330   0.00000  Uiso   1.00
C818   C     0.49989   0.49995   0.83670   0.00000  Uiso   1.00
Zn819  Zn    0.50000   0.55104   0.75000   0.00000  Uiso   1.00
Zn820  Zn    0.50000   0.44896   0.75000   0.00000  Uiso   1.00
C821   C     0.51137   0.46084   0.90751   0.00000  Uiso   1.00
C822   C     0.48863   0.53917   0.59249   0.00000  Uiso   1.00
C823   C     0.49925   0.49982   0.88459   0.00000  Uiso   1.00
C824   C     0.50075   0.50018   0.61541   0.00000  Uiso   1.00
C825   C     0.48660   0.53875   0.90722   0.00000  Uiso   1.00
C826   C     0.51340   0.46126   0.59278   0.00000  Uiso   1.00
C827   C     0.48538   0.53910   0.95354   0.00000  Uiso   1.00
C828   C     0.51462   0.46090   0.54646   0.00000  Uiso   1.00
C829   C     0.49931   0.49999   0.97680   0.00000  Uiso   1.00
C830   C     0.50070   0.50002   0.52320   0.00000  Uiso   1.00
C831   C     0.51198   0.46079   0.95357   0.00000  Uiso   1.00
C832   C     0.48802   0.53921   0.54643   0.00000  Uiso   1.00
C833   C     0.47183   0.57783   0.97719   0.00000  Uiso   1.00
C834   C     0.52818   0.42218   0.52281   0.00000  Uiso   1.00
C835   C     0.47405   0.57764   0.52357   0.00000  Uiso   1.00
C836   C     0.52595   0.42236   0.97643   0.00000  Uiso   1.00
H837   H     0.52139   0.43089   0.88948   0.00000  Uiso   1.00
H838   H     0.47861   0.56911   0.61052   0.00000  Uiso   1.00
H839   H     0.47812   0.56867   0.88836   0.00000  Uiso   1.00
H840   H     0.52188   0.43133   0.61164   0.00000  Uiso   1.00
H841   H     0.46368   0.60720   0.54192   0.00000  Uiso   1.00
H842   H     0.53633   0.39280   0.95808   0.00000  Uiso   1.00
C843   C     0.35462   0.45950   0.75859   0.00000  Uiso   1.00
C844   C     0.64538   0.54050   0.74141   0.00000  Uiso   1.00
C845   C     0.64535   0.45952   0.75866   0.00000  Uiso   1.00
C846   C     0.35465   0.54048   0.74134   0.00000  Uiso   1.00
H847   H     0.37084   0.42804   0.76557   0.00000  Uiso   1.00
H848   H     0.62916   0.57196   0.73443   0.00000  Uiso   1.00
H849   H     0.62911   0.42807   0.76569   0.00000  Uiso   1.00
H850   H     0.37089   0.57193   0.73431   0.00000  Uiso   1.00
C851   C     0.62420   0.50002   0.75005   0.00000  Uiso   1.00
C852   C     0.37580   0.49998   0.74995   0.00000  Uiso   1.00
C853   C     0.52544   0.35731   0.77822   0.00000  Uiso   1.00
C854   C     0.47456   0.64269   0.72178   0.00000  Uiso   1.00
C855   C     0.47456   0.35737   0.72179   0.00000  Uiso   1.00
C856   C     0.52544   0.64263   0.77821   0.00000  Uiso   1.00
H857   H     0.54576   0.37552   0.80075   0.00000  Uiso   1.00
H858   H     0.45424   0.62448   0.69925   0.00000  Uiso   1.00
H859   H     0.45424   0.37562   0.69925   0.00000  Uiso   1.00
H860   H     0.54576   0.62438   0.80075   0.00000  Uiso   1.00
N861   N     0.50000   0.61907   0.75000   0.00000  Uiso   1.00
N862   N     0.50000   0.38093   0.75000   0.00000  Uiso   1.00
N863   N     0.45459   0.61683   0.95501   0.00000  Uiso   1.00
O864   O     0.42452   0.61177   0.92633   0.00000  Uiso   1.00
O865   O     0.46290   0.65738   0.96968   0.00000  Uiso   1.00
N866   N     0.54543   0.38318   0.54499   0.00000  Uiso   1.00
O867   O     0.57549   0.38825   0.57367   0.00000  Uiso   1.00
O868   O     0.53713   0.34263   0.53031   0.00000  Uiso   1.00
O869   O     0.77226   0.53821   0.75000   0.00000  Uiso   1.00
O870   O     0.89441   0.46179   0.75001   0.00000  Uiso   1.00
O871   O     0.89441   0.53821   0.75001   0.00000  Uiso   1.00
O872   O     0.77226   0.46179   0.75000   0.00000  Uiso   1.00
C873   C     0.75327   0.49999   0.74996   0.00000  Uiso   1.00
C874   C     0.91339   0.50001   0.75004   0.00000  Uiso   1.00
O875   O     0.83333   0.53823   0.68393   0.00000  Uiso   1.00
O876   O     0.83334   0.46177   0.81608   0.00000  Uiso   1.00
O877   O     0.83334   0.53823   0.81608   0.00000  Uiso   1.00
O878   O     0.83333   0.46177   0.68393   0.00000  Uiso   1.00
C879   C     0.83345   0.50005   0.66330   0.00000  Uiso   1.00
C880   C     0.83322   0.49995   0.83670   0.00000  Uiso   1.00
Zn881  Zn    0.83333   0.55104   0.75000   0.00000  Uiso   1.00
Zn882  Zn    0.83333   0.44896   0.75000   0.00000  Uiso   1.00
C883   C     0.84471   0.46084   0.90751   0.00000  Uiso   1.00
C884   C     0.82196   0.53917   0.59249   0.00000  Uiso   1.00
C885   C     0.83258   0.49982   0.88459   0.00000  Uiso   1.00
C886   C     0.83408   0.50018   0.61541   0.00000  Uiso   1.00
C887   C     0.81993   0.53875   0.90722   0.00000  Uiso   1.00
C888   C     0.84674   0.46126   0.59278   0.00000  Uiso   1.00
C889   C     0.81872   0.53910   0.95354   0.00000  Uiso   1.00
C890   C     0.84795   0.46090   0.54646   0.00000  Uiso   1.00
C891   C     0.83264   0.49999   0.97680   0.00000  Uiso   1.00
C892   C     0.83403   0.50002   0.52320   0.00000  Uiso   1.00
C893   C     0.84532   0.46079   0.95357   0.00000  Uiso   1.00
C894   C     0.82135   0.53921   0.54643   0.00000  Uiso   1.00
C895   C     0.80516   0.57783   0.97719   0.00000  Uiso   1.00
C896   C     0.86151   0.42218   0.52281   0.00000  Uiso   1.00
C897   C     0.80739   0.57764   0.52357   0.00000  Uiso   1.00
C898   C     0.85928   0.42236   0.97643   0.00000  Uiso   1.00
H899   H     0.85473   0.43089   0.88948   0.00000  Uiso   1.00
H900   H     0.81194   0.56911   0.61052   0.00000  Uiso   1.00
H901   H     0.81145   0.56867   0.88836   0.00000  Uiso   1.00
H902   H     0.85522   0.43133   0.61164   0.00000  Uiso   1.00
H903   H     0.79701   0.60720   0.54192   0.00000  Uiso   1.00
H904   H     0.86966   0.39280   0.95808   0.00000  Uiso   1.00
C905   C     0.68795   0.45950   0.75859   0.00000  Uiso   1.00
C906   C     0.97871   0.54050   0.74141   0.00000  Uiso   1.00
C907   C     0.97868   0.45952   0.75866   0.00000  Uiso   1.00
C908   C     0.68798   0.54048   0.74134   0.00000  Uiso   1.00
H909   H     0.70417   0.42804   0.76557   0.00000  Uiso   1.00
H910   H     0.96250   0.57196   0.73443   0.00000  Uiso   1.00
H911   H     0.96245   0.42807   0.76569   0.00000  Uiso   1.00
H912   H     0.70422   0.57193   0.73431   0.00000  Uiso   1.00
C913   C     0.95753   0.50002   0.75005   0.00000  Uiso   1.00
C914   C     0.70914   0.49998   0.74995   0.00000  Uiso   1.00
C915   C     0.85877   0.35731   0.77822   0.00000  Uiso   1.00
C916   C     0.80789   0.64269   0.72178   0.00000  Uiso   1.00
C917   C     0.80789   0.35737   0.72179   0.00000  Uiso   1.00
C918   C     0.85877   0.64263   0.77821   0.00000  Uiso   1.00
H919   H     0.87909   0.37552   0.80075   0.00000  Uiso   1.00
H920   H     0.78757   0.62448   0.69925   0.00000  Uiso   1.00
H921   H     0.78757   0.37562   0.69925   0.00000  Uiso   1.00
H922   H     0.87910   0.62438   0.80075   0.00000  Uiso   1.00
N923   N     0.83333   0.61907   0.75000   0.00000  Uiso   1.00
N924   N     0.83333   0.38093   0.75000   0.00000  Uiso   1.00
N925   N     0.78792   0.61683   0.95501   0.00000  Uiso   1.00
O926   O     0.75785   0.61177   0.92633   0.00000  Uiso   1.00
O927   O     0.79623   0.65738   0.96968   0.00000  Uiso   1.00
N928   N     0.87876   0.38318   0.54499   0.00000  Uiso   1.00
O929   O     0.90882   0.38825   0.57367   0.00000  Uiso   1.00
O930   O     0.87046   0.34263   0.53031   0.00000  Uiso   1.00
O931   O     0.10559   0.87154   0.75000   0.00000  Uiso   1.00
O932   O     0.22774   0.79513   0.75001   0.00000  Uiso   1.00
O933   O     0.22774   0.87154   0.75001   0.00000  Uiso   1.00
O934   O     0.10559   0.79513   0.75000   0.00000  Uiso   1.00
C935   C     0.08661   0.83332   0.74996   0.00000  Uiso   1.00
C936   C     0.24673   0.83335   0.75004   0.00000  Uiso   1.00
O937   O     0.16666   0.87156   0.68393   0.00000  Uiso   1.00
O938   O     0.16667   0.79511   0.81608   0.00000  Uiso   1.00
O939   O     0.16667   0.87156   0.81608   0.00000  Uiso   1.00
O940   O     0.16666   0.79511   0.68393   0.00000  Uiso   1.00
C941   C     0.16678   0.83338   0.66330   0.00000  Uiso   1.00
C942   C     0.16655   0.83329   0.83670   0.00000  Uiso   1.00
Zn943  Zn    0.16667   0.88437   0.75000   0.00000  Uiso   1.00
Zn944  Zn    0.16667   0.78229   0.75000   0.00000  Uiso   1.00
C945   C     0.17804   0.79417   0.90751   0.00000  Uiso   1.00
C946   C     0.15530   0.87250   0.59249   0.00000  Uiso   1.00
C947   C     0.16592   0.83316   0.88459   0.00000  Uiso   1.00
C948   C     0.16742   0.83351   0.61541   0.00000  Uiso   1.00
C949   C     0.15327   0.87208   0.90722   0.00000  Uiso   1.00
C950   C     0.18007   0.79459   0.59278   0.00000  Uiso   1.00
C951   C     0.15205   0.87244   0.95354   0.00000  Uiso   1.00
C952   C     0.18129   0.79423   0.54646   0.00000  Uiso   1.00
C953   C     0.16597   0.83332   0.97680   0.00000  Uiso   1.00
C954   C     0.16736   0.83335   0.52320   0.00000  Uiso   1.00
C955   C     0.17865   0.79413   0.95357   0.00000  Uiso   1.00
C956   C     0.15469   0.87254   0.54643   0.00000  Uiso   1.00
C957   C     0.13850   0.91116   0.97719   0.00000  Uiso   1.00
C958   C     0.19484   0.75551   0.52281   0.00000  Uiso   1.00
C959   C     0.14072   0.91098   0.52357   0.00000  Uiso   1.00
C960   C     0.19262   0.75569   0.97643   0.00000  Uiso   1.00
H961   H     0.18806   0.76423   0.88948   0.00000  Uiso   1.00
H962   H     0.14528   0.90244   0.61052   0.00000  Uiso   1.00
H963   H     0.14479   0.90200   0.88836   0.00000  Uiso   1.00
H964   H     0.18855   0.76467   0.61164   0.00000  Uiso   1.00
H965   H     0.13035   0.94054   0.54192   0.00000  Uiso   1.00
H966   H     0.20299   0.72614   0.95808   0.00000  Uiso   1.00
C967   C     0.02129   0.79283   0.75859   0.00000  Uiso   1.00
C968   C     0.31205   0.87383   0.74141   0.00000  Uiso   1.00
C969   C     0.31202   0.79286   0.75866   0.00000  Uiso   1.00
C970   C     0.02132   0.87381   0.74134   0.00000  Uiso   1.00
H971   H     0.03750   0.76137   0.76557   0.00000  Uiso   1.00
H972   H     0.29583   0.90530   0.73443   0.00000  Uiso   1.00
H973   H     0.29578   0.76140   0.76569   0.00000  Uiso   1.00
H974   H     0.03755   0.90526   0.73431   0.00000  Uiso   1.00
C975   C     0.29086   0.83335   0.75005   0.00000  Uiso   1.00
C976   C     0.04247   0.83331   0.74995   0.00000  Uiso   1.00
C977   C     0.19211   0.69064   0.77822   0.00000  Uiso   1.00
C978   C     0.14123   0.97603   0.72178   0.00000  Uiso   1.00
C979   C     0.14123   0.69070   0.72179   0.00000  Uiso   1.00
C980   C     0.19211   0.97597   0.77821   0.00000  Uiso   1.00
H981   H     0.21243   0.70885   0.80075   0.00000  Uiso   1.00
H982   H     0.12091   0.95782   0.69925   0.00000  Uiso   1.00
H983   H     0.12090   0.70896   0.69925   0.00000  Uiso   1.00
H984   H     0.21243   0.95771   0.80075   0.00000  Uiso   1.00
N985   N     0.16667   0.95240   0.75000   0.00000  Uiso   1.00
N986   N     0.16667   0.71427   0.75000   0.00000  Uiso   1.00
N987   N     0.12125   0.95017   0.95501   0.00000  Uiso   1.00
O988   O     0.09118   0.94510   0.92633   0.00000  Uiso   1.00
O989   O     0.12956   0.99071   0.96968   0.00000  Uiso   1.00
N990   N     0.21209   0.71651   0.54499   0.00000  Uiso   1.00
O991   O     0.24216   0.72158   0.57367   0.00000  Uiso   1.00
O992   O     0.20380   0.67597   0.53031   0.00000  Uiso   1.00
O993   O     0.43892   0.87154   0.75000   0.00000  Uiso   1.00
O994   O     0.56108   0.79513   0.75001   0.00000  Uiso   1.00
O995   O     0.56108   0.87154   0.75001   0.00000  Uiso   1.00
O996   O     0.43892   0.79513   0.75000   0.00000  Uiso   1.00
C997   C     0.41994   0.83332   0.74996   0.00000  Uiso   1.00
C998   C     0.58006   0.83335   0.75004   0.00000  Uiso   1.00
O999   O     0.49999   0.87156   0.68393   0.00000  Uiso   1.00
O1000  O     0.50001   0.79511   0.81608   0.00000  Uiso   1.00
O1001  O     0.50001   0.87156   0.81608   0.00000  Uiso   1.00
O1002  O     0.49999   0.79511   0.68393   0.00000  Uiso   1.00
C1003  C     0.50011   0.83338   0.66330   0.00000  Uiso   1.00
C1004  C     0.49989   0.83329   0.83670   0.00000  Uiso   1.00
Zn1005 Zn    0.50000   0.88437   0.75000   0.00000  Uiso   1.00
Zn1006 Zn    0.50000   0.78229   0.75000   0.00000  Uiso   1.00
C1007  C     0.51137   0.79417   0.90751   0.00000  Uiso   1.00
C1008  C     0.48863   0.87250   0.59249   0.00000  Uiso   1.00
C1009  C     0.49925   0.83316   0.88459   0.00000  Uiso   1.00
C1010  C     0.50075   0.83351   0.61541   0.00000  Uiso   1.00
C1011  C     0.48660   0.87208   0.90722   0.00000  Uiso   1.00
C1012  C     0.51340   0.79459   0.59278   0.00000  Uiso   1.00
C1013  C     0.48538   0.87244   0.95354   0.00000  Uiso   1.00
C1014  C     0.51462   0.79423   0.54646   0.00000  Uiso   1.00
C1015  C     0.49931   0.83332   0.97680   0.00000  Uiso   1.00
C1016  C     0.50070   0.83335   0.52320   0.00000  Uiso   1.00
C1017  C     0.51198   0.79413   0.95357   0.00000  Uiso   1.00
C1018  C     0.48802   0.87254   0.54643   0.00000  Uiso   1.00
C1019  C     0.47183   0.91116   0.97719   0.00000  Uiso   1.00
C1020  C     0.52818   0.75551   0.52281   0.00000  Uiso   1.00
C1021  C     0.47405   0.91098   0.52357   0.00000  Uiso   1.00
C1022  C     0.52595   0.75569   0.97643   0.00000  Uiso   1.00
H1023  H     0.52139   0.76423   0.88948   0.00000  Uiso   1.00
H1024  H     0.47861   0.90244   0.61052   0.00000  Uiso   1.00
H1025  H     0.47812   0.90200   0.88836   0.00000  Uiso   1.00
H1026  H     0.52188   0.76467   0.61164   0.00000  Uiso   1.00
H1027  H     0.46368   0.94054   0.54192   0.00000  Uiso   1.00
H1028  H     0.53633   0.72614   0.95808   0.00000  Uiso   1.00
C1029  C     0.35462   0.79283   0.75859   0.00000  Uiso   1.00
C1030  C     0.64538   0.87383   0.74141   0.00000  Uiso   1.00
C1031  C     0.64535   0.79286   0.75866   0.00000  Uiso   1.00
C1032  C     0.35465   0.87381   0.74134   0.00000  Uiso   1.00
H1033  H     0.37084   0.76137   0.76557   0.00000  Uiso   1.00
H1034  H     0.62916   0.90530   0.73443   0.00000  Uiso   1.00
H1035  H     0.62911   0.76140   0.76569   0.00000  Uiso   1.00
H1036  H     0.37089   0.90526   0.73431   0.00000  Uiso   1.00
C1037  C     0.62420   0.83335   0.75005   0.00000  Uiso   1.00
C1038  C     0.37580   0.83331   0.74995   0.00000  Uiso   1.00
C1039  C     0.52544   0.69064   0.77822   0.00000  Uiso   1.00
C1040  C     0.47456   0.97603   0.72178   0.00000  Uiso   1.00
C1041  C     0.47456   0.69070   0.72179   0.00000  Uiso   1.00
C1042  C     0.52544   0.97597   0.77821   0.00000  Uiso   1.00
H1043  H     0.54576   0.70885   0.80075   0.00000  Uiso   1.00
H1044  H     0.45424   0.95782   0.69925   0.00000  Uiso   1.00
H1045  H     0.45424   0.70896   0.69925   0.00000  Uiso   1.00
H1046  H     0.54576   0.95771   0.80075   0.00000  Uiso   1.00
N1047  N     0.50000   0.95240   0.75000   0.00000  Uiso   1.00
N1048  N     0.50000   0.71427   0.75000   0.00000  Uiso   1.00
N1049  N     0.45459   0.95017   0.95501   0.00000  Uiso   1.00
O1050  O     0.42452   0.94510   0.92633   0.00000  Uiso   1.00
O1051  O     0.46290   0.99071   0.96968   0.00000  Uiso   1.00
N1052  N     0.54543   0.71651   0.54499   0.00000  Uiso   1.00
O1053  O     0.57549   0.72158   0.57367   0.00000  Uiso   1.00
O1054  O     0.53713   0.67597   0.53031   0.00000  Uiso   1.00
O1055  O     0.77226   0.87154   0.75000   0.00000  Uiso   1.00
O1056  O     0.89441   0.79513   0.75001   0.00000  Uiso   1.00
O1057  O     0.89441   0.87154   0.75001   0.00000  Uiso   1.00
O1058  O     0.77226   0.79513   0.75000   0.00000  Uiso   1.00
C1059  C     0.75327   0.83332   0.74996   0.00000  Uiso   1.00
C1060  C     0.91339   0.83335   0.75004   0.00000  Uiso   1.00
O1061  O     0.83333   0.87156   0.68393   0.00000  Uiso   1.00
O1062  O     0.83334   0.79511   0.81608   0.00000  Uiso   1.00
O1063  O     0.83334   0.87156   0.81608   0.00000  Uiso   1.00
O1064  O     0.83333   0.79511   0.68393   0.00000  Uiso   1.00
C1065  C     0.83345   0.83338   0.66330   0.00000  Uiso   1.00
C1066  C     0.83322   0.83329   0.83670   0.00000  Uiso   1.00
Zn1067 Zn    0.83333   0.88437   0.75000   0.00000  Uiso   1.00
Zn1068 Zn    0.83333   0.78229   0.75000   0.00000  Uiso   1.00
C1069  C     0.84471   0.79417   0.90751   0.00000  Uiso   1.00
C1070  C     0.82196   0.87250   0.59249   0.00000  Uiso   1.00
C1071  C     0.83258   0.83316   0.88459   0.00000  Uiso   1.00
C1072  C     0.83408   0.83351   0.61541   0.00000  Uiso   1.00
C1073  C     0.81993   0.87208   0.90722   0.00000  Uiso   1.00
C1074  C     0.84674   0.79459   0.59278   0.00000  Uiso   1.00
C1075  C     0.81872   0.87244   0.95354   0.00000  Uiso   1.00
C1076  C     0.84795   0.79423   0.54646   0.00000  Uiso   1.00
C1077  C     0.83264   0.83332   0.97680   0.00000  Uiso   1.00
C1078  C     0.83403   0.83335   0.52320   0.00000  Uiso   1.00
C1079  C     0.84532   0.79413   0.95357   0.00000  Uiso   1.00
C1080  C     0.82135   0.87254   0.54643   0.00000  Uiso   1.00
C1081  C     0.80516   0.91116   0.97719   0.00000  Uiso   1.00
C1082  C     0.86151   0.75551   0.52281   0.00000  Uiso   1.00
C1083  C     0.80739   0.91098   0.52357   0.00000  Uiso   1.00
C1084  C     0.85928   0.75569   0.97643   0.00000  Uiso   1.00
H1085  H     0.85473   0.76423   0.88948   0.00000  Uiso   1.00
H1086  H     0.81194   0.90244   0.61052   0.00000  Uiso   1.00
H1087  H     0.81145   0.90200   0.88836   0.00000  Uiso   1.00
H1088  H     0.85522   0.76467   0.61164   0.00000  Uiso   1.00
H1089  H     0.79701   0.94054   0.54192   0.00000  Uiso   1.00
H1090  H     0.86966   0.72614   0.95808   0.00000  Uiso   1.00
C1091  C     0.68795   0.79283   0.75859   0.00000  Uiso   1.00
C1092  C     0.97871   0.87383   0.74141   0.00000  Uiso   1.00
C1093  C     0.97868   0.79286   0.75866   0.00000  Uiso   1.00
C1094  C     0.68798   0.87381   0.74134   0.00000  Uiso   1.00
H1095  H     0.70417   0.76137   0.76557   0.00000  Uiso   1.00
H1096  H     0.96250   0.90530   0.73443   0.00000  Uiso   1.00
H1097  H     0.96245   0.76140   0.76569   0.00000  Uiso   1.00
H1098  H     0.70422   0.90526   0.73431   0.00000  Uiso   1.00
C1099  C     0.95753   0.83335   0.75005   0.00000  Uiso   1.00
C1100  C     0.70914   0.83331   0.74995   0.00000  Uiso   1.00
C1101  C     0.85877   0.69064   0.77822   0.00000  Uiso   1.00
C1102  C     0.80789   0.97603   0.72178   0.00000  Uiso   1.00
C1103  C     0.80789   0.69070   0.72179   0.00000  Uiso   1.00
C1104  C     0.85877   0.97597   0.77821   0.00000  Uiso   1.00
H1105  H     0.87909   0.70885   0.80075   0.00000  Uiso   1.00
H1106  H     0.78757   0.95782   0.69925   0.00000  Uiso   1.00
H1107  H     0.78757   0.70896   0.69925   0.00000  Uiso   1.00
H1108  H     0.87910   0.95771   0.80075   0.00000  Uiso   1.00
N1109  N     0.83333   0.95240   0.75000   0.00000  Uiso   1.00
N1110  N     0.83333   0.71427   0.75000   0.00000  Uiso   1.00
N1111  N     0.78792   0.95017   0.95501   0.00000  Uiso   1.00
O1112  O     0.75785   0.94510   0.92633   0.00000  Uiso   1.00
O1113  O     0.79623   0.99071   0.96968   0.00000  Uiso   1.00
N1114  N     0.87876   0.71651   0.54499   0.00000  Uiso   1.00
O1115  O     0.90882   0.72158   0.57367   0.00000  Uiso   1.00
O1116  O     0.87046   0.67597   0.53031   0.00000  Uiso   1.00
loop_
_geom_bond_atom_site_label_1
_geom_bond_atom_site_label_2
_geom_bond_distance
_geom_bond_site_symmetry_2
_ccdc_geom_bond_type
O1     C5      1.281   .     A
O1     Zn13    2.000   .     S
O2     Zn14    2.000   .     S
O2     C6      1.281   .     A
O3     Zn13    2.000   .     S
O3     C6      1.281   .     A
O4     Zn14    2.000   .     S
O4     C5      1.281   .     A
C5     C46     1.419   .     S
C6     C45     1.419   .     S
O7     C11     1.285   .     A
O7     Zn13    2.019   .     S
O8     C12     1.285   .     A
O8     Zn14    2.019   .     S
O9     C12     1.286   .     A
O9     Zn13    2.017   .     S
O10    C11     1.286   .     A
O10    Zn14    2.017   .     S
C11    C18     1.437   .     S
C12    C17     1.437   .     S
Zn13   N55     2.005   .     S
Zn14   N56     2.005   .     S
C15    H31     1.086   .     S
C15    C25     1.382   .     A
C15    C17     1.393   .     A
C16    C26     1.382   .     A
C16    C18     1.393   .     A
C16    H32     1.086   .     S
C17    C19     1.396   .     A
C18    C20     1.396   .     A
C19    H33     1.082   .     S
C19    C21     1.390   .     A
C20    H34     1.082   .     S
C20    C22     1.390   .     A
C21    C27     1.415   .     A
C21    C23     1.419   .     A
C22    C28     1.415   .     A
C22    C24     1.419   .     A
C23    C25     1.411   .     A
C23    C582    1.393   .     S
C24    C26     1.411   .     A
C24    C581    1.393   1_554 S
C25    C30     1.397   .     A
C26    C29     1.397   .     A
C27    N57     1.438   .     S
C27    C587    1.393   .     S
C28    N60     1.438   .     S
C28    C588    1.393   1_554 S
C29    H35     1.085   .     S
C29    C585    1.393   1_554 S
C30    H36     1.085   .     S
C30    C586    1.393   .     S
C37    H41     1.084   .     S
C37    C46     1.397   .     A
C37    C163    1.370   1_455 S
C38    H42     1.084   .     S
C38    C45     1.397   .     A
C38    C102    1.370   .     S
C39    C45     1.398   .     A
C39    H43     1.084   .     S
C39    C99     1.370   .     S
C40    C46     1.398   .     A
C40    H44     1.084   .     S
C40    C162    1.370   1_455 S
C47    N56     1.366   .     A
C47    H51     1.082   .     S
C47    C422    1.415   1_545 S
C48    N55     1.366   .     A
C48    H52     1.082   .     S
C48    C235    1.415   .     S
C49    N56     1.366   .     A
C49    H53     1.082   .     S
C49    C420    1.415   1_545 S
C50    N55     1.366   .     A
C50    H54     1.082   .     S
C50    C233    1.415   .     S
N57    O58     1.301   .     A
N57    O59     1.302   .     A
N60    O61     1.301   .     A
N60    O62     1.302   .     A
O63    C67     1.281   .     A
O63    Zn75    2.000   .     S
O64    Zn76    2.000   .     S
O64    C68     1.281   .     A
O65    Zn75    2.000   .     S
O65    C68     1.281   .     A
O66    Zn76    2.000   .     S
O66    C67     1.281   .     A
C67    C108    1.419   .     S
C68    C107    1.419   .     S
O69    C73     1.285   .     A
O69    Zn75    2.019   .     S
O70    C74     1.285   .     A
O70    Zn76    2.019   .     S
O71    C74     1.286   .     A
O71    Zn75    2.017   .     S
O72    C73     1.286   .     A
O72    Zn76    2.017   .     S
C73    C80     1.437   .     S
C74    C79     1.437   .     S
Zn75   N117    2.005   .     S
Zn76   N118    2.005   .     S
C77    H93     1.086   .     S
C77    C87     1.382   .     A
C77    C79     1.393   .     A
C78    C88     1.382   .     A
C78    C80     1.393   .     A
C78    H94     1.086   .     S
C79    C81     1.396   .     A
C80    C82     1.396   .     A
C81    H95     1.082   .     S
C81    C83     1.390   .     A
C82    H96     1.082   .     S
C82    C84     1.390   .     A
C83    C89     1.415   .     A
C83    C85     1.419   .     A
C84    C90     1.415   .     A
C84    C86     1.419   .     A
C85    C87     1.411   .     A
C85    C644    1.393   .     S
C86    C88     1.411   .     A
C86    C643    1.393   1_554 S
C87    C92     1.397   .     A
C88    C91     1.397   .     A
C89    N119    1.438   .     S
C89    C649    1.393   .     S
C90    N122    1.438   .     S
C90    C650    1.393   1_554 S
C91    H97     1.085   .     S
C91    C647    1.393   1_554 S
C92    H98     1.085   .     S
C92    C648    1.393   .     S
C99    H103    1.084   .     S
C99    C108    1.397   .     A
C100   H104    1.084   .     S
C100   C107    1.397   .     A
C100   C164    1.370   .     S
C101   C107    1.398   .     A
C101   H105    1.084   .     S
C101   C161    1.370   .     S
C102   C108    1.398   .     A
C102   H106    1.084   .     S
C109   N118    1.366   .     A
C109   H113    1.082   .     S
C109   C484    1.415   1_545 S
C110   N117    1.366   .     A
C110   H114    1.082   .     S
C110   C297    1.415   .     S
C111   N118    1.366   .     A
C111   H115    1.082   .     S
C111   C482    1.415   1_545 S
C112   N117    1.366   .     A
C112   H116    1.082   .     S
C112   C295    1.415   .     S
N119   O120    1.301   .     A
N119   O121    1.302   .     A
N122   O123    1.301   .     A
N122   O124    1.302   .     A
O125   C129    1.281   .     A
O125   Zn137   2.000   .     S
O126   Zn138   2.000   .     S
O126   C130    1.281   .     A
O127   Zn137   2.000   .     S
O127   C130    1.281   .     A
O128   Zn138   2.000   .     S
O128   C129    1.281   .     A
C129   C170    1.419   .     S
C130   C169    1.419   .     S
O131   C135    1.285   .     A
O131   Zn137   2.019   .     S
O132   C136    1.285   .     A
O132   Zn138   2.019   .     S
O133   C136    1.286   .     A
O133   Zn137   2.017   .     S
O134   C135    1.286   .     A
O134   Zn138   2.017   .     S
C135   C142    1.437   .     S
C136   C141    1.437   .     S
Zn137  N179    2.005   .     S
Zn138  N180    2.005   .     S
C139   H155    1.086   .     S
C139   C149    1.382   .     A
C139   C141    1.393   .     A
C140   C150    1.382   .     A
C140   C142    1.393   .     A
C140   H156    1.086   .     S
C141   C143    1.396   .     A
C142   C144    1.396   .     A
C143   H157    1.082   .     S
C143   C145    1.390   .     A
C144   H158    1.082   .     S
C144   C146    1.390   .     A
C145   C151    1.415   .     A
C145   C147    1.419   .     A
C146   C152    1.415   .     A
C146   C148    1.419   .     A
C147   C149    1.411   .     A
C147   C706    1.393   .     S
C148   C150    1.411   .     A
C148   C705    1.393   1_554 S
C149   C154    1.397   .     A
C150   C153    1.397   .     A
C151   N181    1.438   .     S
C151   C711    1.393   .     S
C152   N184    1.438   .     S
C152   C712    1.393   1_554 S
C153   H159    1.085   .     S
C153   C709    1.393   1_554 S
C154   H160    1.085   .     S
C154   C710    1.393   .     S
C161   H165    1.084   .     S
C161   C170    1.397   .     A
C162   H166    1.084   .     S
C162   C169    1.397   .     A
C162   C40     1.370   1_655 S
C163   C169    1.398   .     A
C163   H167    1.084   .     S
C163   C37     1.370   1_655 S
C164   C170    1.398   .     A
C164   H168    1.084   .     S
C171   N180    1.366   .     A
C171   H175    1.082   .     S
C171   C546    1.415   1_545 S
C172   N179    1.366   .     A
C172   H176    1.082   .     S
C172   C359    1.415   .     S
C173   N180    1.366   .     A
C173   H177    1.082   .     S
C173   C544    1.415   1_545 S
C174   N179    1.366   .     A
C174   H178    1.082   .     S
C174   C357    1.415   .     S
N181   O182    1.301   .     A
N181   O183    1.302   .     A
N184   O185    1.301   .     A
N184   O186    1.302   .     A
O187   C191    1.281   .     A
O187   Zn199   2.000   .     S
O188   Zn200   2.000   .     S
O188   C192    1.281   .     A
O189   Zn199   2.000   .     S
O189   C192    1.281   .     A
O190   Zn200   2.000   .     S
O190   C191    1.281   .     A
C191   C232    1.419   .     S
C192   C231    1.419   .     S
O193   C197    1.285   .     A
O193   Zn199   2.019   .     S
O194   C198    1.285   .     A
O194   Zn200   2.019   .     S
O195   C198    1.286   .     A
O195   Zn199   2.017   .     S
O196   C197    1.286   .     A
O196   Zn200   2.017   .     S
C197   C204    1.437   .     S
C198   C203    1.437   .     S
Zn199  N241    2.005   .     S
Zn200  N242    2.005   .     S
C201   H217    1.086   .     S
C201   C211    1.382   .     A
C201   C203    1.393   .     A
C202   C212    1.382   .     A
C202   C204    1.393   .     A
C202   H218    1.086   .     S
C203   C205    1.396   .     A
C204   C206    1.396   .     A
C205   H219    1.082   .     S
C205   C207    1.390   .     A
C206   H220    1.082   .     S
C206   C208    1.390   .     A
C207   C213    1.415   .     A
C207   C209    1.419   .     A
C208   C214    1.415   .     A
C208   C210    1.419   .     A
C209   C211    1.411   .     A
C209   C768    1.393   .     S
C210   C212    1.411   .     A
C210   C767    1.393   1_554 S
C211   C216    1.397   .     A
C212   C215    1.397   .     A
C213   N243    1.438   .     S
C213   C773    1.393   .     S
C214   N246    1.438   .     S
C214   C774    1.393   1_554 S
C215   H221    1.085   .     S
C215   C771    1.393   1_554 S
C216   H222    1.085   .     S
C216   C772    1.393   .     S
C223   H227    1.084   .     S
C223   C232    1.397   .     A
C223   C349    1.370   1_455 S
C224   H228    1.084   .     S
C224   C231    1.397   .     A
C224   C288    1.370   .     S
C225   C231    1.398   .     A
C225   H229    1.084   .     S
C225   C285    1.370   .     S
C226   C232    1.398   .     A
C226   H230    1.084   .     S
C226   C348    1.370   1_455 S
C233   N242    1.366   .     A
C233   H237    1.082   .     S
C234   N241    1.366   .     A
C234   H238    1.082   .     S
C234   C421    1.415   .     S
C235   N242    1.366   .     A
C235   H239    1.082   .     S
C236   N241    1.366   .     A
C236   H240    1.082   .     S
C236   C419    1.415   .     S
N243   O244    1.301   .     A
N243   O245    1.302   .     A
N246   O247    1.301   .     A
N246   O248    1.302   .     A
O249   C253    1.281   .     A
O249   Zn261   2.000   .     S
O250   Zn262   2.000   .     S
O250   C254    1.281   .     A
O251   Zn261   2.000   .     S
O251   C254    1.281   .     A
O252   Zn262   2.000   .     S
O252   C253    1.281   .     A
C253   C294    1.419   .     S
C254   C293    1.419   .     S
O255   C259    1.285   .     A
O255   Zn261   2.019   .     S
O256   C260    1.285   .     A
O256   Zn262   2.019   .     S
O257   C260    1.286   .     A
O257   Zn261   2.017   .     S
O258   C259    1.286   .     A
O258   Zn262   2.017   .     S
C259   C266    1.437   .     S
C260   C265    1.437   .     S
Zn261  N303    2.005   .     S
Zn262  N304    2.005   .     S
C263   H279    1.086   .     S
C263   C273    1.382   .     A
C263   C265    1.393   .     A
C264   C274    1.382   .     A
C264   C266    1.393   .     A
C264   H280    1.086   .     S
C265   C267    1.396   .     A
C266   C268    1.396   .     A
C267   H281    1.082   .     S
C267   C269    1.390   .     A
C268   H282    1.082   .     S
C268   C270    1.390   .     A
C269   C275    1.415   .     A
C269   C271    1.419   .     A
C270   C276    1.415   .     A
C270   C272    1.419   .     A
C271   C273    1.411   .     A
C271   C830    1.393   .     S
C272   C274    1.411   .     A
C272   C829    1.393   1_554 S
C273   C278    1.397   .     A
C274   C277    1.397   .     A
C275   N305    1.438   .     S
C275   C835    1.393   .     S
C276   N308    1.438   .     S
C276   C836    1.393   1_554 S
C277   H283    1.085   .     S
C277   C833    1.393   1_554 S
C278   H284    1.085   .     S
C278   C834    1.393   .     S
C285   H289    1.084   .     S
C285   C294    1.397   .     A
C286   H290    1.084   .     S
C286   C293    1.397   .     A
C286   C350    1.370   .     S
C287   C293    1.398   .     A
C287   H291    1.084   .     S
C287   C347    1.370   .     S
C288   C294    1.398   .     A
C288   H292    1.084   .     S
C295   N304    1.366   .     A
C295   H299    1.082   .     S
C296   N303    1.366   .     A
C296   H300    1.082   .     S
C296   C483    1.415   .     S
C297   N304    1.366   .     A
C297   H301    1.082   .     S
C298   N303    1.366   .     A
C298   H302    1.082   .     S
C298   C481    1.415   .     S
N305   O306    1.301   .     A
N305   O307    1.302   .     A
N308   O309    1.301   .     A
N308   O310    1.302   .     A
O311   C315    1.281   .     A
O311   Zn323   2.000   .     S
O312   Zn324   2.000   .     S
O312   C316    1.281   .     A
O313   Zn323   2.000   .     S
O313   C316    1.281   .     A
O314   Zn324   2.000   .     S
O314   C315    1.281   .     A
C315   C356    1.419   .     S
C316   C355    1.419   .     S
O317   C321    1.285   .     A
O317   Zn323   2.019   .     S
O318   C322    1.285   .     A
O318   Zn324   2.019   .     S
O319   C322    1.286   .     A
O319   Zn323   2.017   .     S
O320   C321    1.286   .     A
O320   Zn324   2.017   .     S
C321   C328    1.437   .     S
C322   C327    1.437   .     S
Zn323  N365    2.005   .     S
Zn324  N366    2.005   .     S
C325   H341    1.086   .     S
C325   C335    1.382   .     A
C325   C327    1.393   .     A
C326   C336    1.382   .     A
C326   C328    1.393   .     A
C326   H342    1.086   .     S
C327   C329    1.396   .     A
C328   C330    1.396   .     A
C329   H343    1.082   .     S
C329   C331    1.390   .     A
C330   H344    1.082   .     S
C330   C332    1.390   .     A
C331   C337    1.415   .     A
C331   C333    1.419   .     A
C332   C338    1.415   .     A
C332   C334    1.419   .     A
C333   C335    1.411   .     A
C333   C892    1.393   .     S
C334   C336    1.411   .     A
C334   C891    1.393   1_554 S
C335   C340    1.397   .     A
C336   C339    1.397   .     A
C337   N367    1.438   .     S
C337   C897    1.393   .     S
C338   N370    1.438   .     S
C338   C898    1.393   1_554 S
C339   H345    1.085   .     S
C339   C895    1.393   1_554 S
C340   H346    1.085   .     S
C340   C896    1.393   .     S
C347   H351    1.084   .     S
C347   C356    1.397   .     A
C348   H352    1.084   .     S
C348   C355    1.397   .     A
C348   C226    1.370   1_655 S
C349   C355    1.398   .     A
C349   H353    1.084   .     S
C349   C223    1.370   1_655 S
C350   C356    1.398   .     A
C350   H354    1.084   .     S
C357   N366    1.366   .     A
C357   H361    1.082   .     S
C358   N365    1.366   .     A
C358   H362    1.082   .     S
C358   C545    1.415   .     S
C359   N366    1.366   .     A
C359   H363    1.082   .     S
C360   N365    1.366   .     A
C360   H364    1.082   .     S
C360   C543    1.415   .     S
N367   O368    1.301   .     A
N367   O369    1.302   .     A
N370   O371    1.301   .     A
N370   O372    1.302   .     A
O373   C377    1.281   .     A
O373   Zn385   2.000   .     S
O374   Zn386   2.000   .     S
O374   C378    1.281   .     A
O375   Zn385   2.000   .     S
O375   C378    1.281   .     A
O376   Zn386   2.000   .     S
O376   C377    1.281   .     A
C377   C418    1.419   .     S
C378   C417    1.419   .     S
O379   C383    1.285   .     A
O379   Zn385   2.019   .     S
O380   C384    1.285   .     A
O380   Zn386   2.019   .     S
O381   C384    1.286   .     A
O381   Zn385   2.017   .     S
O382   C383    1.286   .     A
O382   Zn386   2.017   .     S
C383   C390    1.437   .     S
C384   C389    1.437   .     S
Zn385  N427    2.005   .     S
Zn386  N428    2.005   .     S
C387   H403    1.086   .     S
C387   C397    1.382   .     A
C387   C389    1.393   .     A
C388   C398    1.382   .     A
C388   C390    1.393   .     A
C388   H404    1.086   .     S
C389   C391    1.396   .     A
C390   C392    1.396   .     A
C391   H405    1.082   .     S
C391   C393    1.390   .     A
C392   H406    1.082   .     S
C392   C394    1.390   .     A
C393   C399    1.415   .     A
C393   C395    1.419   .     A
C394   C400    1.415   .     A
C394   C396    1.419   .     A
C395   C397    1.411   .     A
C395   C954    1.393   .     S
C396   C398    1.411   .     A
C396   C953    1.393   1_554 S
C397   C402    1.397   .     A
C398   C401    1.397   .     A
C399   N429    1.438   .     S
C399   C959    1.393   .     S
C400   N432    1.438   .     S
C400   C960    1.393   1_554 S
C401   H407    1.085   .     S
C401   C957    1.393   1_554 S
C402   H408    1.085   .     S
C402   C958    1.393   .     S
C409   H413    1.084   .     S
C409   C418    1.397   .     A
C409   C535    1.370   1_455 S
C410   H414    1.084   .     S
C410   C417    1.397   .     A
C410   C474    1.370   .     S
C411   C417    1.398   .     A
C411   H415    1.084   .     S
C411   C471    1.370   .     S
C412   C418    1.398   .     A
C412   H416    1.084   .     S
C412   C534    1.370   1_455 S
C419   N428    1.366   .     A
C419   H423    1.082   .     S
C420   N427    1.366   .     A
C420   H424    1.082   .     S
C420   C49     1.415   1_565 S
C421   N428    1.366   .     A
C421   H425    1.082   .     S
C422   N427    1.366   .     A
C422   H426    1.082   .     S
C422   C47     1.415   1_565 S
N429   O430    1.301   .     A
N429   O431    1.302   .     A
N432   O433    1.301   .     A
N432   O434    1.302   .     A
O435   C439    1.281   .     A
O435   Zn447   2.000   .     S
O436   Zn448   2.000   .     S
O436   C440    1.281   .     A
O437   Zn447   2.000   .     S
O437   C440    1.281   .     A
O438   Zn448   2.000   .     S
O438   C439    1.281   .     A
C439   C480    1.419   .     S
C440   C479    1.419   .     S
O441   C445    1.285   .     A
O441   Zn447   2.019   .     S
O442   C446    1.285   .     A
O442   Zn448   2.019   .     S
O443   C446    1.286   .     A
O443   Zn447   2.017   .     S
O444   C445    1.286   .     A
O444   Zn448   2.017   .     S
C445   C452    1.437   .     S
C446   C451    1.437   .     S
Zn447  N489    2.005   .     S
Zn448  N490    2.005   .     S
C449   H465    1.086   .     S
C449   C459    1.382   .     A
C449   C451    1.393   .     A
C450   C460    1.382   .     A
C450   C452    1.393   .     A
C450   H466    1.086   .     S
C451   C453    1.396   .     A
C452   C454    1.396   .     A
C453   H467    1.082   .     S
C453   C455    1.390   .     A
C454   H468    1.082   .     S
C454   C456    1.390   .     A
C455   C461    1.415   .     A
C455   C457    1.419   .     A
C456   C462    1.415   .     A
C456   C458    1.419   .     A
C457   C459    1.411   .     A
C457   C1016   1.393   .     S
C458   C460    1.411   .     A
C458   C1015   1.393   1_554 S
C459   C464    1.397   .     A
C460   C463    1.397   .     A
C461   N491    1.438   .     S
C461   C1021   1.393   .     S
C462   N494    1.438   .     S
C462   C1022   1.393   1_554 S
C463   H469    1.085   .     S
C463   C1019   1.393   1_554 S
C464   H470    1.085   .     S
C464   C1020   1.393   .     S
C471   H475    1.084   .     S
C471   C480    1.397   .     A
C472   H476    1.084   .     S
C472   C479    1.397   .     A
C472   C536    1.370   .     S
C473   C479    1.398   .     A
C473   H477    1.084   .     S
C473   C533    1.370   .     S
C474   C480    1.398   .     A
C474   H478    1.084   .     S
C481   N490    1.366   .     A
C481   H485    1.082   .     S
C482   N489    1.366   .     A
C482   H486    1.082   .     S
C482   C111    1.415   1_565 S
C483   N490    1.366   .     A
C483   H487    1.082   .     S
C484   N489    1.366   .     A
C484   H488    1.082   .     S
C484   C109    1.415   1_565 S
N491   O492    1.301   .     A
N491   O493    1.302   .     A
N494   O495    1.301   .     A
N494   O496    1.302   .     A
O497   C501    1.281   .     A
O497   Zn509   2.000   .     S
O498   Zn510   2.000   .     S
O498   C502    1.281   .     A
O499   Zn509   2.000   .     S
O499   C502    1.281   .     A
O500   Zn510   2.000   .     S
O500   C501    1.281   .     A
C501   C542    1.419   .     S
C502   C541    1.419   .     S
O503   C507    1.285   .     A
O503   Zn509   2.019   .     S
O504   C508    1.285   .     A
O504   Zn510   2.019   .     S
O505   C508    1.286   .     A
O505   Zn509   2.017   .     S
O506   C507    1.286   .     A
O506   Zn510   2.017   .     S
C507   C514    1.437   .     S
C508   C513    1.437   .     S
Zn509  N551    2.005   .     S
Zn510  N552    2.005   .     S
C511   H527    1.086   .     S
C511   C521    1.382   .     A
C511   C513    1.393   .     A
C512   C522    1.382   .     A
C512   C514    1.393   .     A
C512   H528    1.086   .     S
C513   C515    1.396   .     A
C514   C516    1.396   .     A
C515   H529    1.082   .     S
C515   C517    1.390   .     A
C516   H530    1.082   .     S
C516   C518    1.390   .     A
C517   C523    1.415   .     A
C517   C519    1.419   .     A
C518   C524    1.415   .     A
C518   C520    1.419   .     A
C519   C521    1.411   .     A
C519   C1078   1.393   .     S
C520   C522    1.411   .     A
C520   C1077   1.393   1_554 S
C521   C526    1.397   .     A
C522   C525    1.397   .     A
C523   N553    1.438   .     S
C523   C1083   1.393   .     S
C524   N556    1.438   .     S
C524   C1084   1.393   1_554 S
C525   H531    1.085   .     S
C525   C1081   1.393   1_554 S
C526   H532    1.085   .     S
C526   C1082   1.393   .     S
C533   H537    1.084   .     S
C533   C542    1.397   .     A
C534   H538    1.084   .     S
C534   C541    1.397   .     A
C534   C412    1.370   1_655 S
C535   C541    1.398   .     A
C535   H539    1.084   .     S
C535   C409    1.370   1_655 S
C536   C542    1.398   .     A
C536   H540    1.084   .     S
C543   N552    1.366   .     A
C543   H547    1.082   .     S
C544   N551    1.366   .     A
C544   H548    1.082   .     S
C544   C173    1.415   1_565 S
C545   N552    1.366   .     A
C545   H549    1.082   .     S
C546   N551    1.366   .     A
C546   H550    1.082   .     S
C546   C171    1.415   1_565 S
N553   O554    1.301   .     A
N553   O555    1.302   .     A
N556   O557    1.301   .     A
N556   O558    1.302   .     A
O559   C563    1.281   .     A
O559   Zn571   2.000   .     S
O560   Zn572   2.000   .     S
O560   C564    1.281   .     A
O561   Zn571   2.000   .     S
O561   C564    1.281   .     A
O562   Zn572   2.000   .     S
O562   C563    1.281   .     A
C563   C604    1.419   .     S
C564   C603    1.419   .     S
O565   C569    1.285   .     A
O565   Zn571   2.019   .     S
O566   C570    1.285   .     A
O566   Zn572   2.019   .     S
O567   C570    1.286   .     A
O567   Zn571   2.017   .     S
O568   C569    1.286   .     A
O568   Zn572   2.017   .     S
C569   C576    1.437   .     S
C570   C575    1.437   .     S
Zn571  N613    2.005   .     S
Zn572  N614    2.005   .     S
C573   H589    1.086   .     S
C573   C583    1.382   .     A
C573   C575    1.393   .     A
C574   C584    1.382   .     A
C574   C576    1.393   .     A
C574   H590    1.086   .     S
C575   C577    1.396   .     A
C576   C578    1.396   .     A
C577   H591    1.082   .     S
C577   C579    1.390   .     A
C578   H592    1.082   .     S
C578   C580    1.390   .     A
C579   C585    1.415   .     A
C579   C581    1.419   .     A
C580   C586    1.415   .     A
C580   C582    1.419   .     A
C581   C583    1.411   .     A
C581   C24     1.393   1_556 S
C582   C584    1.411   .     A
C583   C588    1.397   .     A
C584   C587    1.397   .     A
C585   N615    1.438   .     S
C585   C29     1.393   1_556 S
C586   N618    1.438   .     S
C587   H593    1.085   .     S
C588   H594    1.085   .     S
C588   C28     1.393   1_556 S
C595   H599    1.084   .     S
C595   C604    1.397   .     A
C595   C721    1.370   1_455 S
C596   H600    1.084   .     S
C596   C603    1.397   .     A
C596   C660    1.370   .     S
C597   C603    1.398   .     A
C597   H601    1.084   .     S
C597   C657    1.370   .     S
C598   C604    1.398   .     A
C598   H602    1.084   .     S
C598   C720    1.370   1_455 S
C605   N614    1.366   .     A
C605   H609    1.082   .     S
C605   C980    1.415   1_545 S
C606   N613    1.366   .     A
C606   H610    1.082   .     S
C606   C793    1.415   .     S
C607   N614    1.366   .     A
C607   H611    1.082   .     S
C607   C978    1.415   1_545 S
C608   N613    1.366   .     A
C608   H612    1.082   .     S
C608   C791    1.415   .     S
N615   O616    1.301   .     A
N615   O617    1.302   .     A
N618   O619    1.301   .     A
N618   O620    1.302   .     A
O621   C625    1.281   .     A
O621   Zn633   2.000   .     S
O622   Zn634   2.000   .     S
O622   C626    1.281   .     A
O623   Zn633   2.000   .     S
O623   C626    1.281   .     A
O624   Zn634   2.000   .     S
O624   C625    1.281   .     A
C625   C666    1.419   .     S
C626   C665    1.419   .     S
O627   C631    1.285   .     A
O627   Zn633   2.019   .     S
O628   C632    1.285   .     A
O628   Zn634   2.019   .     S
O629   C632    1.286   .     A
O629   Zn633   2.017   .     S
O630   C631    1.286   .     A
O630   Zn634   2.017   .     S
C631   C638    1.437   .     S
C632   C637    1.437   .     S
Zn633  N675    2.005   .     S
Zn634  N676    2.005   .     S
C635   H651    1.086   .     S
C635   C645    1.382   .     A
C635   C637    1.393   .     A
C636   C646    1.382   .     A
C636   C638    1.393   .     A
C636   H652    1.086   .     S
C637   C639    1.396   .     A
C638   C640    1.396   .     A
C639   H653    1.082   .     S
C639   C641    1.390   .     A
C640   H654    1.082   .     S
C640   C642    1.390   .     A
C641   C647    1.415   .     A
C641   C643    1.419   .     A
C642   C648    1.415   .     A
C642   C644    1.419   .     A
C643   C645    1.411   .     A
C643   C86     1.393   1_556 S
C644   C646    1.411   .     A
C645   C650    1.397   .     A
C646   C649    1.397   .     A
C647   N677    1.438   .     S
C647   C91     1.393   1_556 S
C648   N680    1.438   .     S
C649   H655    1.085   .     S
C650   H656    1.085   .     S
C650   C90     1.393   1_556 S
C657   H661    1.084   .     S
C657   C666    1.397   .     A
C658   H662    1.084   .     S
C658   C665    1.397   .     A
C658   C722    1.370   .     S
C659   C665    1.398   .     A
C659   H663    1.084   .     S
C659   C719    1.370   .     S
C660   C666    1.398   .     A
C660   H664    1.084   .     S
C667   N676    1.366   .     A
C667   H671    1.082   .     S
C667   C1042   1.415   1_545 S
C668   N675    1.366   .     A
C668   H672    1.082   .     S
C668   C855    1.415   .     S
C669   N676    1.366   .     A
C669   H673    1.082   .     S
C669   C1040   1.415   1_545 S
C670   N675    1.366   .     A
C670   H674    1.082   .     S
C670   C853    1.415   .     S
N677   O678    1.301   .     A
N677   O679    1.302   .     A
N680   O681    1.301   .     A
N680   O682    1.302   .     A
O683   C687    1.281   .     A
O683   Zn695   2.000   .     S
O684   Zn696   2.000   .     S
O684   C688    1.281   .     A
O685   Zn695   2.000   .     S
O685   C688    1.281   .     A
O686   Zn696   2.000   .     S
O686   C687    1.281   .     A
C687   C728    1.419   .     S
C688   C727    1.419   .     S
O689   C693    1.285   .     A
O689   Zn695   2.019   .     S
O690   C694    1.285   .     A
O690   Zn696   2.019   .     S
O691   C694    1.286   .     A
O691   Zn695   2.017   .     S
O692   C693    1.286   .     A
O692   Zn696   2.017   .     S
C693   C700    1.437   .     S
C694   C699    1.437   .     S
Zn695  N737    2.005   .     S
Zn696  N738    2.005   .     S
C697   H713    1.086   .     S
C697   C707    1.382   .     A
C697   C699    1.393   .     A
C698   C708    1.382   .     A
C698   C700    1.393   .     A
C698   H714    1.086   .     S
C699   C701    1.396   .     A
C700   C702    1.396   .     A
C701   H715    1.082   .     S
C701   C703    1.390   .     A
C702   H716    1.082   .     S
C702   C704    1.390   .     A
C703   C709    1.415   .     A
C703   C705    1.419   .     A
C704   C710    1.415   .     A
C704   C706    1.419   .     A
C705   C707    1.411   .     A
C705   C148    1.393   1_556 S
C706   C708    1.411   .     A
C707   C712    1.397   .     A
C708   C711    1.397   .     A
C709   N739    1.438   .     S
C709   C153    1.393   1_556 S
C710   N742    1.438   .     S
C711   H717    1.085   .     S
C712   H718    1.085   .     S
C712   C152    1.393   1_556 S
C719   H723    1.084   .     S
C719   C728    1.397   .     A
C720   H724    1.084   .     S
C720   C727    1.397   .     A
C720   C598    1.370   1_655 S
C721   C727    1.398   .     A
C721   H725    1.084   .     S
C721   C595    1.370   1_655 S
C722   C728    1.398   .     A
C722   H726    1.084   .     S
C729   N738    1.366   .     A
C729   H733    1.082   .     S
C729   C1104   1.415   1_545 S
C730   N737    1.366   .     A
C730   H734    1.082   .     S
C730   C917    1.415   .     S
C731   N738    1.366   .     A
C731   H735    1.082   .     S
C731   C1102   1.415   1_545 S
C732   N737    1.366   .     A
C732   H736    1.082   .     S
C732   C915    1.415   .     S
N739   O740    1.301   .     A
N739   O741    1.302   .     A
N742   O743    1.301   .     A
N742   O744    1.302   .     A
O745   C749    1.281   .     A
O745   Zn757   2.000   .     S
O746   Zn758   2.000   .     S
O746   C750    1.281   .     A
O747   Zn757   2.000   .     S
O747   C750    1.281   .     A
O748   Zn758   2.000   .     S
O748   C749    1.281   .     A
C749   C790    1.419   .     S
C750   C789    1.419   .     S
O751   C755    1.285   .     A
O751   Zn757   2.019   .     S
O752   C756    1.285   .     A
O752   Zn758   2.019   .     S
O753   C756    1.286   .     A
O753   Zn757   2.017   .     S
O754   C755    1.286   .     A
O754   Zn758   2.017   .     S
C755   C762    1.437   .     S
C756   C761    1.437   .     S
Zn757  N799    2.005   .     S
Zn758  N800    2.005   .     S
C759   H775    1.086   .     S
C759   C769    1.382   .     A
C759   C761    1.393   .     A
C760   C770    1.382   .     A
C760   C762    1.393   .     A
C760   H776    1.086   .     S
C761   C763    1.396   .     A
C762   C764    1.396   .     A
C763   H777    1.082   .     S
C763   C765    1.390   .     A
C764   H778    1.082   .     S
C764   C766    1.390   .     A
C765   C771    1.415   .     A
C765   C767    1.419   .     A
C766   C772    1.415   .     A
C766   C768    1.419   .     A
C767   C769    1.411   .     A
C767   C210    1.393   1_556 S
C768   C770    1.411   .     A
C769   C774    1.397   .     A
C770   C773    1.397   .     A
C771   N801    1.438   .     S
C771   C215    1.393   1_556 S
C772   N804    1.438   .     S
C773   H779    1.085   .     S
C774   H780    1.085   .     S
C774   C214    1.393   1_556 S
C781   H785    1.084   .     S
C781   C790    1.397   .     A
C781   C907    1.370   1_455 S
C782   H786    1.084   .     S
C782   C789    1.397   .     A
C782   C846    1.370   .     S
C783   C789    1.398   .     A
C783   H787    1.084   .     S
C783   C843    1.370   .     S
C784   C790    1.398   .     A
C784   H788    1.084   .     S
C784   C906    1.370   1_455 S
C791   N800    1.366   .     A
C791   H795    1.082   .     S
C792   N799    1.366   .     A
C792   H796    1.082   .     S
C792   C979    1.415   .     S
C793   N800    1.366   .     A
C793   H797    1.082   .     S
C794   N799    1.366   .     A
C794   H798    1.082   .     S
C794   C977    1.415   .     S
N801   O802    1.301   .     A
N801   O803    1.302   .     A
N804   O805    1.301   .     A
N804   O806    1.302   .     A
O807   C811    1.281   .     A
O807   Zn819   2.000   .     S
O808   Zn820   2.000   .     S
O808   C812    1.281   .     A
O809   Zn819   2.000   .     S
O809   C812    1.281   .     A
O810   Zn820   2.000   .     S
O810   C811    1.281   .     A
C811   C852    1.419   .     S
C812   C851    1.419   .     S
O813   C817    1.285   .     A
O813   Zn819   2.019   .     S
O814   C818    1.285   .     A
O814   Zn820   2.019   .     S
O815   C818    1.286   .     A
O815   Zn819   2.017   .     S
O816   C817    1.286   .     A
O816   Zn820   2.017   .     S
C817   C824    1.437   .     S
C818   C823    1.437   .     S
Zn819  N861    2.005   .     S
Zn820  N862    2.005   .     S
C821   H837    1.086   .     S
C821   C831    1.382   .     A
C821   C823    1.393   .     A
C822   C832    1.382   .     A
C822   C824    1.393   .     A
C822   H838    1.086   .     S
C823   C825    1.396   .     A
C824   C826    1.396   .     A
C825   H839    1.082   .     S
C825   C827    1.390   .     A
C826   H840    1.082   .     S
C826   C828    1.390   .     A
C827   C833    1.415   .     A
C827   C829    1.419   .     A
C828   C834    1.415   .     A
C828   C830    1.419   .     A
C829   C831    1.411   .     A
C829   C272    1.393   1_556 S
C830   C832    1.411   .     A
C831   C836    1.397   .     A
C832   C835    1.397   .     A
C833   N863    1.438   .     S
C833   C277    1.393   1_556 S
C834   N866    1.438   .     S
C835   H841    1.085   .     S
C836   H842    1.085   .     S
C836   C276    1.393   1_556 S
C843   H847    1.084   .     S
C843   C852    1.397   .     A
C844   H848    1.084   .     S
C844   C851    1.397   .     A
C844   C908    1.370   .     S
C845   C851    1.398   .     A
C845   H849    1.084   .     S
C845   C905    1.370   .     S
C846   C852    1.398   .     A
C846   H850    1.084   .     S
C853   N862    1.366   .     A
C853   H857    1.082   .     S
C854   N861    1.366   .     A
C854   H858    1.082   .     S
C854   C1041   1.415   .     S
C855   N862    1.366   .     A
C855   H859    1.082   .     S
C856   N861    1.366   .     A
C856   H860    1.082   .     S
C856   C1039   1.415   .     S
N863   O864    1.301   .     A
N863   O865    1.302   .     A
N866   O867    1.301   .     A
N866   O868    1.302   .     A
O869   C873    1.281   .     A
O869   Zn881   2.000   .     S
O870   Zn882   2.000   .     S
O870   C874    1.281   .     A
O871   Zn881   2.000   .     S
O871   C874    1.281   .     A
O872   Zn882   2.000   .     S
O872   C873    1.281   .     A
C873   C914    1.419   .     S
C874   C913    1.419   .     S
O875   C879    1.285   .     A
O875   Zn881   2.019   .     S
O876   C880    1.285   .     A
O876   Zn882   2.019   .     S
O877   C880    1.286   .     A
O877   Zn881   2.017   .     S
O878   C879    1.286   .     A
O878   Zn882   2.017   .     S
C879   C886    1.437   .     S
C880   C885    1.437   .     S
Zn881  N923    2.005   .     S
Zn882  N924    2.005   .     S
C883   H899    1.086   .     S
C883   C893    1.382   .     A
C883   C885    1.393   .     A
C884   C894    1.382   .     A
C884   C886    1.393   .     A
C884   H900    1.086   .     S
C885   C887    1.396   .     A
C886   C888    1.396   .     A
C887   H901    1.082   .     S
C887   C889    1.390   .     A
C888   H902    1.082   .     S
C888   C890    1.390   .     A
C889   C895    1.415   .     A
C889   C891    1.419   .     A
C890   C896    1.415   .     A
C890   C892    1.419   .     A
C891   C893    1.411   .     A
C891   C334    1.393   1_556 S
C892   C894    1.411   .     A
C893   C898    1.397   .     A
C894   C897    1.397   .     A
C895   N925    1.438   .     S
C895   C339    1.393   1_556 S
C896   N928    1.438   .     S
C897   H903    1.085   .     S
C898   H904    1.085   .     S
C898   C338    1.393   1_556 S
C905   H909    1.084   .     S
C905   C914    1.397   .     A
C906   H910    1.084   .     S
C906   C913    1.397   .     A
C906   C784    1.370   1_655 S
C907   C913    1.398   .     A
C907   H911    1.084   .     S
C907   C781    1.370   1_655 S
C908   C914    1.398   .     A
C908   H912    1.084   .     S
C915   N924    1.366   .     A
C915   H919    1.082   .     S
C916   N923    1.366   .     A
C916   H920    1.082   .     S
C916   C1103   1.415   .     S
C917   N924    1.366   .     A
C917   H921    1.082   .     S
C918   N923    1.366   .     A
C918   H922    1.082   .     S
C918   C1101   1.415   .     S
N925   O926    1.301   .     A
N925   O927    1.302   .     A
N928   O929    1.301   .     A
N928   O930    1.302   .     A
O931   C935    1.281   .     A
O931   Zn943   2.000   .     S
O932   Zn944   2.000   .     S
O932   C936    1.281   .     A
O933   Zn943   2.000   .     S
O933   C936    1.281   .     A
O934   Zn944   2.000   .     S
O934   C935    1.281   .     A
C935   C976    1.419   .     S
C936   C975    1.419   .     S
O937   C941    1.285   .     A
O937   Zn943   2.019   .     S
O938   C942    1.285   .     A
O938   Zn944   2.019   .     S
O939   C942    1.286   .     A
O939   Zn943   2.017   .     S
O940   C941    1.286   .     A
O940   Zn944   2.017   .     S
C941   C948    1.437   .     S
C942   C947    1.437   .     S
Zn943  N985    2.005   .     S
Zn944  N986    2.005   .     S
C945   H961    1.086   .     S
C945   C955    1.382   .     A
C945   C947    1.393   .     A
C946   C956    1.382   .     A
C946   C948    1.393   .     A
C946   H962    1.086   .     S
C947   C949    1.396   .     A
C948   C950    1.396   .     A
C949   H963    1.082   .     S
C949   C951    1.390   .     A
C950   H964    1.082   .     S
C950   C952    1.390   .     A
C951   C957    1.415   .     A
C951   C953    1.419   .     A
C952   C958    1.415   .     A
C952   C954    1.419   .     A
C953   C955    1.411   .     A
C953   C396    1.393   1_556 S
C954   C956    1.411   .     A
C955   C960    1.397   .     A
C956   C959    1.397   .     A
C957   N987    1.438   .     S
C957   C401    1.393   1_556 S
C958   N990    1.438   .     S
C959   H965    1.085   .     S
C960   H966    1.085   .     S
C960   C400    1.393   1_556 S
C967   H971    1.084   .     S
C967   C976    1.397   .     A
C967   C1093   1.370   1_455 S
C968   H972    1.084   .     S
C968   C975    1.397   .     A
C968   C1032   1.370   .     S
C969   C975    1.398   .     A
C969   H973    1.084   .     S
C969   C1029   1.370   .     S
C970   C976    1.398   .     A
C970   H974    1.084   .     S
C970   C1092   1.370   1_455 S
C977   N986    1.366   .     A
C977   H981    1.082   .     S
C978   N985    1.366   .     A
C978   H982    1.082   .     S
C978   C607    1.415   1_565 S
C979   N986    1.366   .     A
C979   H983    1.082   .     S
C980   N985    1.366   .     A
C980   H984    1.082   .     S
C980   C605    1.415   1_565 S
N987   O988    1.301   .     A
N987   O989    1.302   .     A
N990   O991    1.301   .     A
N990   O992    1.302   .     A
O993   C997    1.281   .     A
O993   Zn1005  2.000   .     S
O994   Zn1006  2.000   .     S
O994   C998    1.281   .     A
O995   Zn1005  2.000   .     S
O995   C998    1.281   .     A
O996   Zn1006  2.000   .     S
O996   C997    1.281   .     A
C997   C1038   1.419   .     S
C998   C1037   1.419   .     S
O999   C1003   1.285   .     A
O999   Zn1005  2.019   .     S
O1000  C1004   1.285   .     A
O1000  Zn1006  2.019   .     S
O1001  C1004   1.286   .     A
O1001  Zn1005  2.017   .     S
O1002  C1003   1.286   .     A
O1002  Zn1006  2.017   .     S
C1003  C1010   1.437   .     S
C1004  C1009   1.437   .     S
Zn1005 N1047   2.005   .     S
Zn1006 N1048   2.005   .     S
C1007  H1023   1.086   .     S
C1007  C1017   1.382   .     A
C1007  C1009   1.393   .     A
C1008  C1018   1.382   .     A
C1008  C1010   1.393   .     A
C1008  H1024   1.086   .     S
C1009  C1011   1.396   .     A
C1010  C1012   1.396   .     A
C1011  H1025   1.082   .     S
C1011  C1013   1.390   .     A
C1012  H1026   1.082   .     S
C1012  C1014   1.390   .     A
C1013  C1019   1.415   .     A
C1013  C1015   1.419   .     A
C1014  C1020   1.415   .     A
C1014  C1016   1.419   .     A
C1015  C1017   1.411   .     A
C1015  C458    1.393   1_556 S
C1016  C1018   1.411   .     A
C1017  C1022   1.397   .     A
C1018  C1021   1.397   .     A
C1019  N1049   1.438   .     S
C1019  C463    1.393   1_556 S
C1020  N1052   1.438   .     S
C1021  H1027   1.085   .     S
C1022  H1028   1.085   .     S
C1022  C462    1.393   1_556 S
C1029  H1033   1.084   .     S
C1029  C1038   1.397   .     A
C1030  H1034   1.084   .     S
C1030  C1037   1.397   .     A
C1030  C1094   1.370   .     S
C1031  C1037   1.398   .     A
C1031  H1035   1.084   .     S
C1031  C1091   1.370   .     S
C1032  C1038   1.398   .     A
C1032  H1036   1.084   .     S
C1039  N1048   1.366   .     A
C1039  H1043   1.082   .     S
C1040  N1047   1.366   .     A
C1040  H1044   1.082   .     S
C1040  C669    1.415   1_565 S
C1041  N1048   1.366   .     A
C1041  H1045   1.082   .     S
C1042  N1047   1.366   .     A
C1042  H1046   1.082   .     S
C1042  C667    1.415   1_565 S
N1049  O1050   1.301   .     A
N1049  O1051   1.302   .     A
N1052  O1053   1.301   .     A
N1052  O1054   1.302   .     A
O1055  C1059   1.281   .     A
O1055  Zn1067  2.000   .     S
O1056  Zn1068  2.000   .     S
O1056  C1060   1.281   .     A
O1057  Zn1067  2.000   .     S
O1057  C1060   1.281   .     A
O1058  Zn1068  2.000   .     S
O1058  C1059   1.281   .     A
C1059  C1100   1.419   .     S
C1060  C1099   1.419   .     S
O1061  C1065   1.285   .     A
O1061  Zn1067  2.019   .     S
O1062  C1066   1.285   .     A
O1062  Zn1068  2.019   .     S
O1063  C1066   1.286   .     A
O1063  Zn1067  2.017   .     S
O1064  C1065   1.286   .     A
O1064  Zn1068  2.017   .     S
C1065  C1072   1.437   .     S
C1066  C1071   1.437   .     S
Zn1067 N1109   2.005   .     S
Zn1068 N1110   2.005   .     S
C1069  H1085   1.086   .     S
C1069  C1079   1.382   .     A
C1069  C1071   1.393   .     A
C1070  C1080   1.382   .     A
C1070  C1072   1.393   .     A
C1070  H1086   1.086   .     S
C1071  C1073   1.396   .     A
C1072  C1074   1.396   .     A
C1073  H1087   1.082   .     S
C1073  C1075   1.390   .     A
C1074  H1088   1.082   .     S
C1074  C1076   1.390   .     A
C1075  C1081   1.415   .     A
C1075  C1077   1.419   .     A
C1076  C1082   1.415   .     A
C1076  C1078   1.419   .     A
C1077  C1079   1.411   .     A
C1077  C520    1.393   1_556 S
C1078  C1080   1.411   .     A
C1079  C1084   1.397   .     A
C1080  C1083   1.397   .     A
C1081  N1111   1.438   .     S
C1081  C525    1.393   1_556 S
C1082  N1114   1.438   .     S
C1083  H1089   1.085   .     S
C1084  H1090   1.085   .     S
C1084  C524    1.393   1_556 S
C1091  H1095   1.084   .     S
C1091  C1100   1.397   .     A
C1092  H1096   1.084   .     S
C1092  C1099   1.397   .     A
C1092  C970    1.370   1_655 S
C1093  C1099   1.398   .     A
C1093  H1097   1.084   .     S
C1093  C967    1.370   1_655 S
C1094  C1100   1.398   .     A
C1094  H1098   1.084   .     S
C1101  N1110   1.366   .     A
C1101  H1105   1.082   .     S
C1102  N1109   1.366   .     A
C1102  H1106   1.082   .     S
C1102  C731    1.415   1_565 S
C1103  N1110   1.366   .     A
C1103  H1107   1.082   .     S
C1104  N1109   1.366   .     A
C1104  H1108   1.082   .     S
C1104  C729    1.415   1_565 S
N1111  O1112   1.301   .     A
N1111  O1113   1.302   .     A
N1114  O1115   1.301   .     A
N1114  O1116   1.302   .     A
