data_str_m3_o10_o16_pcu_sym.36
_audit_creation_date              2020-01-03
_audit_creation_method            'Materials Studio'
_symmetry_space_group_name_H-M    'P1'
_symmetry_Int_Tables_number       1
_symmetry_cell_setting            triclinic
loop_
_symmetry_equiv_pos_as_xyz
  x,y,z
_cell_length_a                    23.4989
_cell_length_b                    25.7075
_cell_length_c                    24.3188
_cell_angle_alpha                 92.4665
_cell_angle_beta                  101.6563
_cell_angle_gamma                 94.0430
loop_
_atom_site_label
_atom_site_type_symbol
_atom_site_fract_x
_atom_site_fract_y
_atom_site_fract_z
_atom_site_U_iso_or_equiv
_atom_site_adp_type
_atom_site_occupancy
O1     O     0.29769   0.24629   0.25357   0.00000  Uiso   1.00
O2     O     0.05742   0.23704   0.24423   0.00000  Uiso   1.00
C3     C     0.01483   0.26488   0.24864   0.00000  Uiso   1.00
O4     O     0.31490   0.17358   0.33380   0.00000  Uiso   1.00
O5     O     0.07463   0.16433   0.32446   0.00000  Uiso   1.00
C6     C     0.03556   0.16811   0.35504   0.00000  Uiso   1.00
Zn7    Zn    0.27119   0.17284   0.25623   0.00000  Uiso   1.00
Zn8    Zn    0.06214   0.16049   0.24376   0.00000  Uiso   1.00
O9     O     0.27592   0.09629   0.25576   0.00000  Uiso   1.00
O10    O     0.03565   0.08704   0.24642   0.00000  Uiso   1.00
O11    O     0.25870   0.16901   0.17554   0.00000  Uiso   1.00
O12    O     0.01843   0.15976   0.16620   0.00000  Uiso   1.00
C13    C     0.31849   0.06845   0.25132   0.00000  Uiso   1.00
C14    C     0.29725   0.16278   0.14480   0.00000  Uiso   1.00
C15    C     0.26734   0.09124   0.00397   0.00000  Uiso   1.00
H16    H     0.00668   0.09709   0.07393   0.00000  Uiso   1.00
H17    H     0.19370   0.05245   0.41049   0.00000  Uiso   1.00
H18    H     0.28551   0.06155   0.48127   0.00000  Uiso   1.00
C19    C     0.27601   0.15116   0.08506   0.00000  Uiso   1.00
C20    C     0.02598   0.20015   0.44872   0.00000  Uiso   1.00
C21    C     0.04702   0.20701   0.00617   0.00000  Uiso   1.00
C22    C     0.09800   0.18506   0.03085   0.00000  Uiso   1.00
C23    C     0.12935   0.15708   0.49629   0.00000  Uiso   1.00
C24    C     0.10155   0.14164   0.44060   0.00000  Uiso   1.00
C25    C     0.18741   0.14430   0.01451   0.00000  Uiso   1.00
C26    C     0.21099   0.10626   0.48357   0.00000  Uiso   1.00
C27    C     0.17752   0.08328   0.43346   0.00000  Uiso   1.00
C28    C     0.12341   0.10090   0.41169   0.00000  Uiso   1.00
C29    C     0.22356   0.17028   0.06145   0.00000  Uiso   1.00
C30    C     0.29911   0.11247   0.05576   0.00000  Uiso   1.00
C31    C     0.05322   0.16796   0.41571   0.00000  Uiso   1.00
H32    H     0.21015   0.20383   0.08241   0.00000  Uiso   1.00
H33    H     0.32154   0.21997   0.43006   0.00000  Uiso   1.00
H34    H     0.02302   0.22882   0.03167   0.00000  Uiso   1.00
C35    C     0.02256   0.31944   0.24785   0.00000  Uiso   1.00
H36    H     0.06506   0.00320   0.24372   0.00000  Uiso   1.00
C37    C     0.31079   0.01390   0.25217   0.00000  Uiso   1.00
H38    H     0.26830   0.33014   0.25634   0.00000  Uiso   1.00
N39    N     0.14493   0.15223   0.23542   0.00000  Uiso   1.00
H40    H     0.15712   0.12142   0.21326   0.00000  Uiso   1.00
N41    N     0.18840   0.18110   0.26457   0.00000  Uiso   1.00
F42    F     0.17365   0.22025   0.29538   0.00000  Uiso   1.00
N43    N     0.11175   0.18406   0.09087   0.00000  Uiso   1.00
O44    O     0.12451   0.14047   0.11377   0.00000  Uiso   1.00
O45    O     0.10424   0.22420   0.12233   0.00000  Uiso   1.00
F46    F     0.09110   0.07548   0.36434   0.00000  Uiso   1.00
O47    O     0.63102   0.24629   0.25357   0.00000  Uiso   1.00
O48    O     0.39075   0.23704   0.24423   0.00000  Uiso   1.00
C49    C     0.34817   0.26488   0.24864   0.00000  Uiso   1.00
O50    O     0.64823   0.17358   0.33380   0.00000  Uiso   1.00
O51    O     0.40796   0.16433   0.32446   0.00000  Uiso   1.00
C52    C     0.36889   0.16811   0.35504   0.00000  Uiso   1.00
Zn53   Zn    0.60453   0.17284   0.25623   0.00000  Uiso   1.00
Zn54   Zn    0.39547   0.16049   0.24376   0.00000  Uiso   1.00
O55    O     0.60925   0.09629   0.25576   0.00000  Uiso   1.00
O56    O     0.36898   0.08704   0.24642   0.00000  Uiso   1.00
O57    O     0.59204   0.16901   0.17554   0.00000  Uiso   1.00
O58    O     0.35177   0.15976   0.16620   0.00000  Uiso   1.00
C59    C     0.65182   0.06845   0.25132   0.00000  Uiso   1.00
C60    C     0.63058   0.16278   0.14480   0.00000  Uiso   1.00
C61    C     0.60067   0.09124   0.00397   0.00000  Uiso   1.00
H62    H     0.34001   0.09709   0.07393   0.00000  Uiso   1.00
H63    H     0.52704   0.05245   0.41049   0.00000  Uiso   1.00
H64    H     0.61884   0.06155   0.48127   0.00000  Uiso   1.00
C65    C     0.60934   0.15116   0.08506   0.00000  Uiso   1.00
C66    C     0.35931   0.20015   0.44872   0.00000  Uiso   1.00
C67    C     0.38035   0.20701   0.00617   0.00000  Uiso   1.00
C68    C     0.43133   0.18506   0.03085   0.00000  Uiso   1.00
C69    C     0.46268   0.15708   0.49629   0.00000  Uiso   1.00
C70    C     0.43489   0.14164   0.44060   0.00000  Uiso   1.00
C71    C     0.52074   0.14430   0.01451   0.00000  Uiso   1.00
C72    C     0.54433   0.10626   0.48357   0.00000  Uiso   1.00
C73    C     0.51086   0.08328   0.43346   0.00000  Uiso   1.00
C74    C     0.45675   0.10090   0.41169   0.00000  Uiso   1.00
C75    C     0.55690   0.17028   0.06145   0.00000  Uiso   1.00
C76    C     0.63244   0.11247   0.05576   0.00000  Uiso   1.00
C77    C     0.38655   0.16796   0.41571   0.00000  Uiso   1.00
H78    H     0.54349   0.20383   0.08241   0.00000  Uiso   1.00
H79    H     0.65488   0.21997   0.43006   0.00000  Uiso   1.00
H80    H     0.35635   0.22882   0.03167   0.00000  Uiso   1.00
C81    C     0.35589   0.31944   0.24785   0.00000  Uiso   1.00
H82    H     0.39839   0.00320   0.24372   0.00000  Uiso   1.00
C83    C     0.64413   0.01390   0.25217   0.00000  Uiso   1.00
H84    H     0.60163   0.33014   0.25634   0.00000  Uiso   1.00
N85    N     0.47827   0.15223   0.23542   0.00000  Uiso   1.00
H86    H     0.49045   0.12142   0.21326   0.00000  Uiso   1.00
N87    N     0.52173   0.18110   0.26457   0.00000  Uiso   1.00
F88    F     0.50699   0.22025   0.29538   0.00000  Uiso   1.00
N89    N     0.44508   0.18406   0.09087   0.00000  Uiso   1.00
O90    O     0.45785   0.14047   0.11377   0.00000  Uiso   1.00
O91    O     0.43757   0.22420   0.12233   0.00000  Uiso   1.00
F92    F     0.42443   0.07548   0.36434   0.00000  Uiso   1.00
O93    O     0.96435   0.24629   0.25357   0.00000  Uiso   1.00
O94    O     0.72408   0.23704   0.24423   0.00000  Uiso   1.00
C95    C     0.68150   0.26488   0.24864   0.00000  Uiso   1.00
O96    O     0.98157   0.17358   0.33380   0.00000  Uiso   1.00
O97    O     0.74130   0.16433   0.32446   0.00000  Uiso   1.00
C98    C     0.70223   0.16811   0.35504   0.00000  Uiso   1.00
Zn99   Zn    0.93786   0.17284   0.25623   0.00000  Uiso   1.00
Zn100  Zn    0.72881   0.16049   0.24376   0.00000  Uiso   1.00
O101   O     0.94258   0.09629   0.25576   0.00000  Uiso   1.00
O102   O     0.70231   0.08704   0.24642   0.00000  Uiso   1.00
O103   O     0.92537   0.16901   0.17554   0.00000  Uiso   1.00
O104   O     0.68510   0.15976   0.16620   0.00000  Uiso   1.00
C105   C     0.98515   0.06845   0.25132   0.00000  Uiso   1.00
C106   C     0.96392   0.16278   0.14480   0.00000  Uiso   1.00
C107   C     0.93400   0.09124   0.00397   0.00000  Uiso   1.00
H108   H     0.67335   0.09709   0.07393   0.00000  Uiso   1.00
H109   H     0.86037   0.05245   0.41049   0.00000  Uiso   1.00
H110   H     0.95218   0.06155   0.48127   0.00000  Uiso   1.00
C111   C     0.94268   0.15116   0.08506   0.00000  Uiso   1.00
C112   C     0.69264   0.20015   0.44872   0.00000  Uiso   1.00
C113   C     0.71369   0.20701   0.00617   0.00000  Uiso   1.00
C114   C     0.76467   0.18506   0.03085   0.00000  Uiso   1.00
C115   C     0.79601   0.15708   0.49629   0.00000  Uiso   1.00
C116   C     0.76822   0.14164   0.44060   0.00000  Uiso   1.00
C117   C     0.85407   0.14430   0.01451   0.00000  Uiso   1.00
C118   C     0.87766   0.10626   0.48357   0.00000  Uiso   1.00
C119   C     0.84419   0.08328   0.43346   0.00000  Uiso   1.00
C120   C     0.79008   0.10090   0.41169   0.00000  Uiso   1.00
C121   C     0.89023   0.17028   0.06145   0.00000  Uiso   1.00
C122   C     0.96577   0.11247   0.05576   0.00000  Uiso   1.00
C123   C     0.71988   0.16796   0.41571   0.00000  Uiso   1.00
H124   H     0.87682   0.20383   0.08241   0.00000  Uiso   1.00
H125   H     0.98821   0.21997   0.43006   0.00000  Uiso   1.00
H126   H     0.68969   0.22882   0.03167   0.00000  Uiso   1.00
C127   C     0.68922   0.31944   0.24785   0.00000  Uiso   1.00
H128   H     0.73173   0.00320   0.24372   0.00000  Uiso   1.00
C129   C     0.97746   0.01390   0.25217   0.00000  Uiso   1.00
H130   H     0.93497   0.33014   0.25634   0.00000  Uiso   1.00
N131   N     0.81160   0.15223   0.23542   0.00000  Uiso   1.00
H132   H     0.82379   0.12142   0.21326   0.00000  Uiso   1.00
N133   N     0.85507   0.18110   0.26457   0.00000  Uiso   1.00
F134   F     0.84032   0.22025   0.29538   0.00000  Uiso   1.00
N135   N     0.77842   0.18406   0.09087   0.00000  Uiso   1.00
O136   O     0.79118   0.14047   0.11377   0.00000  Uiso   1.00
O137   O     0.77090   0.22420   0.12233   0.00000  Uiso   1.00
F138   F     0.75776   0.07548   0.36434   0.00000  Uiso   1.00
O139   O     0.29769   0.57963   0.25357   0.00000  Uiso   1.00
O140   O     0.05742   0.57038   0.24423   0.00000  Uiso   1.00
C141   C     0.01483   0.59822   0.24864   0.00000  Uiso   1.00
O142   O     0.31490   0.50691   0.33380   0.00000  Uiso   1.00
O143   O     0.07463   0.49766   0.32446   0.00000  Uiso   1.00
C144   C     0.03556   0.50145   0.35504   0.00000  Uiso   1.00
Zn145  Zn    0.27119   0.50618   0.25623   0.00000  Uiso   1.00
Zn146  Zn    0.06214   0.49382   0.24376   0.00000  Uiso   1.00
O147   O     0.27592   0.42962   0.25576   0.00000  Uiso   1.00
O148   O     0.03565   0.42037   0.24642   0.00000  Uiso   1.00
O149   O     0.25870   0.50234   0.17554   0.00000  Uiso   1.00
O150   O     0.01843   0.49309   0.16620   0.00000  Uiso   1.00
C151   C     0.31849   0.40178   0.25132   0.00000  Uiso   1.00
C152   C     0.29725   0.49611   0.14480   0.00000  Uiso   1.00
C153   C     0.26734   0.42458   0.00397   0.00000  Uiso   1.00
H154   H     0.00668   0.43043   0.07393   0.00000  Uiso   1.00
H155   H     0.19370   0.38578   0.41049   0.00000  Uiso   1.00
H156   H     0.28551   0.39489   0.48127   0.00000  Uiso   1.00
C157   C     0.27601   0.48449   0.08506   0.00000  Uiso   1.00
C158   C     0.02598   0.53348   0.44872   0.00000  Uiso   1.00
C159   C     0.04702   0.54034   0.00617   0.00000  Uiso   1.00
C160   C     0.09800   0.51839   0.03085   0.00000  Uiso   1.00
C161   C     0.12935   0.49041   0.49629   0.00000  Uiso   1.00
C162   C     0.10155   0.47497   0.44060   0.00000  Uiso   1.00
C163   C     0.18741   0.47764   0.01451   0.00000  Uiso   1.00
C164   C     0.21099   0.43959   0.48357   0.00000  Uiso   1.00
C165   C     0.17752   0.41661   0.43346   0.00000  Uiso   1.00
C166   C     0.12341   0.43423   0.41169   0.00000  Uiso   1.00
C167   C     0.22356   0.50361   0.06145   0.00000  Uiso   1.00
C168   C     0.29911   0.44580   0.05576   0.00000  Uiso   1.00
C169   C     0.05322   0.50129   0.41571   0.00000  Uiso   1.00
H170   H     0.21015   0.53717   0.08241   0.00000  Uiso   1.00
H171   H     0.32154   0.55330   0.43006   0.00000  Uiso   1.00
H172   H     0.02302   0.56216   0.03167   0.00000  Uiso   1.00
C173   C     0.02256   0.65277   0.24785   0.00000  Uiso   1.00
H174   H     0.06506   0.33653   0.24372   0.00000  Uiso   1.00
C175   C     0.31079   0.34723   0.25217   0.00000  Uiso   1.00
H176   H     0.26830   0.66348   0.25634   0.00000  Uiso   1.00
N177   N     0.14493   0.48556   0.23542   0.00000  Uiso   1.00
H178   H     0.15712   0.45475   0.21326   0.00000  Uiso   1.00
N179   N     0.18840   0.51444   0.26457   0.00000  Uiso   1.00
F180   F     0.17365   0.55358   0.29538   0.00000  Uiso   1.00
N181   N     0.11175   0.51739   0.09087   0.00000  Uiso   1.00
O182   O     0.12451   0.47380   0.11377   0.00000  Uiso   1.00
O183   O     0.10424   0.55753   0.12233   0.00000  Uiso   1.00
F184   F     0.09110   0.40881   0.36434   0.00000  Uiso   1.00
O185   O     0.63102   0.57963   0.25357   0.00000  Uiso   1.00
O186   O     0.39075   0.57038   0.24423   0.00000  Uiso   1.00
C187   C     0.34817   0.59822   0.24864   0.00000  Uiso   1.00
O188   O     0.64823   0.50691   0.33380   0.00000  Uiso   1.00
O189   O     0.40796   0.49766   0.32446   0.00000  Uiso   1.00
C190   C     0.36889   0.50145   0.35504   0.00000  Uiso   1.00
Zn191  Zn    0.60453   0.50618   0.25623   0.00000  Uiso   1.00
Zn192  Zn    0.39547   0.49382   0.24376   0.00000  Uiso   1.00
O193   O     0.60925   0.42962   0.25576   0.00000  Uiso   1.00
O194   O     0.36898   0.42037   0.24642   0.00000  Uiso   1.00
O195   O     0.59204   0.50234   0.17554   0.00000  Uiso   1.00
O196   O     0.35177   0.49309   0.16620   0.00000  Uiso   1.00
C197   C     0.65182   0.40178   0.25132   0.00000  Uiso   1.00
C198   C     0.63058   0.49611   0.14480   0.00000  Uiso   1.00
C199   C     0.60067   0.42458   0.00397   0.00000  Uiso   1.00
H200   H     0.34001   0.43043   0.07393   0.00000  Uiso   1.00
H201   H     0.52704   0.38578   0.41049   0.00000  Uiso   1.00
H202   H     0.61884   0.39489   0.48127   0.00000  Uiso   1.00
C203   C     0.60934   0.48449   0.08506   0.00000  Uiso   1.00
C204   C     0.35931   0.53348   0.44872   0.00000  Uiso   1.00
C205   C     0.38035   0.54034   0.00617   0.00000  Uiso   1.00
C206   C     0.43133   0.51839   0.03085   0.00000  Uiso   1.00
C207   C     0.46268   0.49041   0.49629   0.00000  Uiso   1.00
C208   C     0.43489   0.47497   0.44060   0.00000  Uiso   1.00
C209   C     0.52074   0.47764   0.01451   0.00000  Uiso   1.00
C210   C     0.54433   0.43959   0.48357   0.00000  Uiso   1.00
C211   C     0.51086   0.41661   0.43346   0.00000  Uiso   1.00
C212   C     0.45675   0.43423   0.41169   0.00000  Uiso   1.00
C213   C     0.55690   0.50361   0.06145   0.00000  Uiso   1.00
C214   C     0.63244   0.44580   0.05576   0.00000  Uiso   1.00
C215   C     0.38655   0.50129   0.41571   0.00000  Uiso   1.00
H216   H     0.54349   0.53717   0.08241   0.00000  Uiso   1.00
H217   H     0.65488   0.55330   0.43006   0.00000  Uiso   1.00
H218   H     0.35635   0.56216   0.03167   0.00000  Uiso   1.00
C219   C     0.35589   0.65277   0.24785   0.00000  Uiso   1.00
H220   H     0.39839   0.33653   0.24372   0.00000  Uiso   1.00
C221   C     0.64413   0.34723   0.25217   0.00000  Uiso   1.00
H222   H     0.60163   0.66348   0.25634   0.00000  Uiso   1.00
N223   N     0.47827   0.48556   0.23542   0.00000  Uiso   1.00
H224   H     0.49045   0.45475   0.21326   0.00000  Uiso   1.00
N225   N     0.52173   0.51444   0.26457   0.00000  Uiso   1.00
F226   F     0.50699   0.55358   0.29538   0.00000  Uiso   1.00
N227   N     0.44508   0.51739   0.09087   0.00000  Uiso   1.00
O228   O     0.45785   0.47380   0.11377   0.00000  Uiso   1.00
O229   O     0.43757   0.55753   0.12233   0.00000  Uiso   1.00
F230   F     0.42443   0.40881   0.36434   0.00000  Uiso   1.00
O231   O     0.96435   0.57963   0.25357   0.00000  Uiso   1.00
O232   O     0.72408   0.57038   0.24423   0.00000  Uiso   1.00
C233   C     0.68150   0.59822   0.24864   0.00000  Uiso   1.00
O234   O     0.98157   0.50691   0.33380   0.00000  Uiso   1.00
O235   O     0.74130   0.49766   0.32446   0.00000  Uiso   1.00
C236   C     0.70223   0.50145   0.35504   0.00000  Uiso   1.00
Zn237  Zn    0.93786   0.50618   0.25623   0.00000  Uiso   1.00
Zn238  Zn    0.72881   0.49382   0.24376   0.00000  Uiso   1.00
O239   O     0.94258   0.42962   0.25576   0.00000  Uiso   1.00
O240   O     0.70231   0.42037   0.24642   0.00000  Uiso   1.00
O241   O     0.92537   0.50234   0.17554   0.00000  Uiso   1.00
O242   O     0.68510   0.49309   0.16620   0.00000  Uiso   1.00
C243   C     0.98515   0.40178   0.25132   0.00000  Uiso   1.00
C244   C     0.96392   0.49611   0.14480   0.00000  Uiso   1.00
C245   C     0.93400   0.42458   0.00397   0.00000  Uiso   1.00
H246   H     0.67335   0.43043   0.07393   0.00000  Uiso   1.00
H247   H     0.86037   0.38578   0.41049   0.00000  Uiso   1.00
H248   H     0.95218   0.39489   0.48127   0.00000  Uiso   1.00
C249   C     0.94268   0.48449   0.08506   0.00000  Uiso   1.00
C250   C     0.69264   0.53348   0.44872   0.00000  Uiso   1.00
C251   C     0.71369   0.54034   0.00617   0.00000  Uiso   1.00
C252   C     0.76467   0.51839   0.03085   0.00000  Uiso   1.00
C253   C     0.79601   0.49041   0.49629   0.00000  Uiso   1.00
C254   C     0.76822   0.47497   0.44060   0.00000  Uiso   1.00
C255   C     0.85407   0.47764   0.01451   0.00000  Uiso   1.00
C256   C     0.87766   0.43959   0.48357   0.00000  Uiso   1.00
C257   C     0.84419   0.41661   0.43346   0.00000  Uiso   1.00
C258   C     0.79008   0.43423   0.41169   0.00000  Uiso   1.00
C259   C     0.89023   0.50361   0.06145   0.00000  Uiso   1.00
C260   C     0.96577   0.44580   0.05576   0.00000  Uiso   1.00
C261   C     0.71988   0.50129   0.41571   0.00000  Uiso   1.00
H262   H     0.87682   0.53717   0.08241   0.00000  Uiso   1.00
H263   H     0.98821   0.55330   0.43006   0.00000  Uiso   1.00
H264   H     0.68969   0.56216   0.03167   0.00000  Uiso   1.00
C265   C     0.68922   0.65277   0.24785   0.00000  Uiso   1.00
H266   H     0.73173   0.33653   0.24372   0.00000  Uiso   1.00
C267   C     0.97746   0.34723   0.25217   0.00000  Uiso   1.00
H268   H     0.93497   0.66348   0.25634   0.00000  Uiso   1.00
N269   N     0.81160   0.48556   0.23542   0.00000  Uiso   1.00
H270   H     0.82379   0.45475   0.21326   0.00000  Uiso   1.00
N271   N     0.85507   0.51444   0.26457   0.00000  Uiso   1.00
F272   F     0.84032   0.55358   0.29538   0.00000  Uiso   1.00
N273   N     0.77842   0.51739   0.09087   0.00000  Uiso   1.00
O274   O     0.79118   0.47380   0.11377   0.00000  Uiso   1.00
O275   O     0.77090   0.55753   0.12233   0.00000  Uiso   1.00
F276   F     0.75776   0.40881   0.36434   0.00000  Uiso   1.00
O277   O     0.29769   0.91296   0.25357   0.00000  Uiso   1.00
O278   O     0.05742   0.90371   0.24423   0.00000  Uiso   1.00
C279   C     0.01483   0.93155   0.24864   0.00000  Uiso   1.00
O280   O     0.31490   0.84024   0.33380   0.00000  Uiso   1.00
O281   O     0.07463   0.83099   0.32446   0.00000  Uiso   1.00
C282   C     0.03556   0.83478   0.35504   0.00000  Uiso   1.00
Zn283  Zn    0.27119   0.83951   0.25623   0.00000  Uiso   1.00
Zn284  Zn    0.06214   0.82716   0.24376   0.00000  Uiso   1.00
O285   O     0.27592   0.76296   0.25576   0.00000  Uiso   1.00
O286   O     0.03565   0.75371   0.24642   0.00000  Uiso   1.00
O287   O     0.25870   0.83567   0.17554   0.00000  Uiso   1.00
O288   O     0.01843   0.82642   0.16620   0.00000  Uiso   1.00
C289   C     0.31849   0.73511   0.25132   0.00000  Uiso   1.00
C290   C     0.29725   0.82945   0.14480   0.00000  Uiso   1.00
C291   C     0.26734   0.75791   0.00397   0.00000  Uiso   1.00
H292   H     0.00668   0.76376   0.07393   0.00000  Uiso   1.00
H293   H     0.19370   0.71911   0.41049   0.00000  Uiso   1.00
H294   H     0.28551   0.72822   0.48127   0.00000  Uiso   1.00
C295   C     0.27601   0.81783   0.08506   0.00000  Uiso   1.00
C296   C     0.02598   0.86681   0.44872   0.00000  Uiso   1.00
C297   C     0.04702   0.87367   0.00617   0.00000  Uiso   1.00
C298   C     0.09800   0.85172   0.03085   0.00000  Uiso   1.00
C299   C     0.12935   0.82375   0.49629   0.00000  Uiso   1.00
C300   C     0.10155   0.80830   0.44060   0.00000  Uiso   1.00
C301   C     0.18741   0.81097   0.01451   0.00000  Uiso   1.00
C302   C     0.21099   0.77292   0.48357   0.00000  Uiso   1.00
C303   C     0.17752   0.74995   0.43346   0.00000  Uiso   1.00
C304   C     0.12341   0.76757   0.41169   0.00000  Uiso   1.00
C305   C     0.22356   0.83695   0.06145   0.00000  Uiso   1.00
C306   C     0.29911   0.77913   0.05576   0.00000  Uiso   1.00
C307   C     0.05322   0.83463   0.41571   0.00000  Uiso   1.00
H308   H     0.21015   0.87050   0.08241   0.00000  Uiso   1.00
H309   H     0.32154   0.88664   0.43006   0.00000  Uiso   1.00
H310   H     0.02302   0.89549   0.03167   0.00000  Uiso   1.00
C311   C     0.02256   0.98610   0.24785   0.00000  Uiso   1.00
H312   H     0.06506   0.66986   0.24372   0.00000  Uiso   1.00
C313   C     0.31079   0.68057   0.25217   0.00000  Uiso   1.00
H314   H     0.26830   0.99681   0.25634   0.00000  Uiso   1.00
N315   N     0.14493   0.81890   0.23542   0.00000  Uiso   1.00
H316   H     0.15712   0.78809   0.21326   0.00000  Uiso   1.00
N317   N     0.18840   0.84777   0.26457   0.00000  Uiso   1.00
F318   F     0.17365   0.88692   0.29538   0.00000  Uiso   1.00
N319   N     0.11175   0.85073   0.09087   0.00000  Uiso   1.00
O320   O     0.12451   0.80713   0.11377   0.00000  Uiso   1.00
O321   O     0.10424   0.89087   0.12233   0.00000  Uiso   1.00
F322   F     0.09110   0.74214   0.36434   0.00000  Uiso   1.00
O323   O     0.63102   0.91296   0.25357   0.00000  Uiso   1.00
O324   O     0.39075   0.90371   0.24423   0.00000  Uiso   1.00
C325   C     0.34817   0.93155   0.24864   0.00000  Uiso   1.00
O326   O     0.64823   0.84024   0.33380   0.00000  Uiso   1.00
O327   O     0.40796   0.83099   0.32446   0.00000  Uiso   1.00
C328   C     0.36889   0.83478   0.35504   0.00000  Uiso   1.00
Zn329  Zn    0.60453   0.83951   0.25623   0.00000  Uiso   1.00
Zn330  Zn    0.39547   0.82716   0.24376   0.00000  Uiso   1.00
O331   O     0.60925   0.76296   0.25576   0.00000  Uiso   1.00
O332   O     0.36898   0.75371   0.24642   0.00000  Uiso   1.00
O333   O     0.59204   0.83567   0.17554   0.00000  Uiso   1.00
O334   O     0.35177   0.82642   0.16620   0.00000  Uiso   1.00
C335   C     0.65182   0.73511   0.25132   0.00000  Uiso   1.00
C336   C     0.63058   0.82945   0.14480   0.00000  Uiso   1.00
C337   C     0.60067   0.75791   0.00397   0.00000  Uiso   1.00
H338   H     0.34001   0.76376   0.07393   0.00000  Uiso   1.00
H339   H     0.52704   0.71911   0.41049   0.00000  Uiso   1.00
H340   H     0.61884   0.72822   0.48127   0.00000  Uiso   1.00
C341   C     0.60934   0.81783   0.08506   0.00000  Uiso   1.00
C342   C     0.35931   0.86681   0.44872   0.00000  Uiso   1.00
C343   C     0.38035   0.87367   0.00617   0.00000  Uiso   1.00
C344   C     0.43133   0.85172   0.03085   0.00000  Uiso   1.00
C345   C     0.46268   0.82375   0.49629   0.00000  Uiso   1.00
C346   C     0.43489   0.80830   0.44060   0.00000  Uiso   1.00
C347   C     0.52074   0.81097   0.01451   0.00000  Uiso   1.00
C348   C     0.54433   0.77292   0.48357   0.00000  Uiso   1.00
C349   C     0.51086   0.74995   0.43346   0.00000  Uiso   1.00
C350   C     0.45675   0.76757   0.41169   0.00000  Uiso   1.00
C351   C     0.55690   0.83695   0.06145   0.00000  Uiso   1.00
C352   C     0.63244   0.77913   0.05576   0.00000  Uiso   1.00
C353   C     0.38655   0.83463   0.41571   0.00000  Uiso   1.00
H354   H     0.54349   0.87050   0.08241   0.00000  Uiso   1.00
H355   H     0.65488   0.88664   0.43006   0.00000  Uiso   1.00
H356   H     0.35635   0.89549   0.03167   0.00000  Uiso   1.00
C357   C     0.35589   0.98610   0.24785   0.00000  Uiso   1.00
H358   H     0.39839   0.66986   0.24372   0.00000  Uiso   1.00
C359   C     0.64413   0.68057   0.25217   0.00000  Uiso   1.00
H360   H     0.60163   0.99681   0.25634   0.00000  Uiso   1.00
N361   N     0.47827   0.81890   0.23542   0.00000  Uiso   1.00
H362   H     0.49045   0.78809   0.21326   0.00000  Uiso   1.00
N363   N     0.52173   0.84777   0.26457   0.00000  Uiso   1.00
F364   F     0.50699   0.88692   0.29538   0.00000  Uiso   1.00
N365   N     0.44508   0.85073   0.09087   0.00000  Uiso   1.00
O366   O     0.45785   0.80713   0.11377   0.00000  Uiso   1.00
O367   O     0.43757   0.89087   0.12233   0.00000  Uiso   1.00
F368   F     0.42443   0.74214   0.36434   0.00000  Uiso   1.00
O369   O     0.96435   0.91296   0.25357   0.00000  Uiso   1.00
O370   O     0.72408   0.90371   0.24423   0.00000  Uiso   1.00
C371   C     0.68150   0.93155   0.24864   0.00000  Uiso   1.00
O372   O     0.98157   0.84024   0.33380   0.00000  Uiso   1.00
O373   O     0.74130   0.83099   0.32446   0.00000  Uiso   1.00
C374   C     0.70223   0.83478   0.35504   0.00000  Uiso   1.00
Zn375  Zn    0.93786   0.83951   0.25623   0.00000  Uiso   1.00
Zn376  Zn    0.72881   0.82716   0.24376   0.00000  Uiso   1.00
O377   O     0.94258   0.76296   0.25576   0.00000  Uiso   1.00
O378   O     0.70231   0.75371   0.24642   0.00000  Uiso   1.00
O379   O     0.92537   0.83567   0.17554   0.00000  Uiso   1.00
O380   O     0.68510   0.82642   0.16620   0.00000  Uiso   1.00
C381   C     0.98515   0.73511   0.25132   0.00000  Uiso   1.00
C382   C     0.96392   0.82945   0.14480   0.00000  Uiso   1.00
C383   C     0.93400   0.75791   0.00397   0.00000  Uiso   1.00
H384   H     0.67335   0.76376   0.07393   0.00000  Uiso   1.00
H385   H     0.86037   0.71911   0.41049   0.00000  Uiso   1.00
H386   H     0.95218   0.72822   0.48127   0.00000  Uiso   1.00
C387   C     0.94268   0.81783   0.08506   0.00000  Uiso   1.00
C388   C     0.69264   0.86681   0.44872   0.00000  Uiso   1.00
C389   C     0.71369   0.87367   0.00617   0.00000  Uiso   1.00
C390   C     0.76467   0.85172   0.03085   0.00000  Uiso   1.00
C391   C     0.79601   0.82375   0.49629   0.00000  Uiso   1.00
C392   C     0.76822   0.80830   0.44060   0.00000  Uiso   1.00
C393   C     0.85407   0.81097   0.01451   0.00000  Uiso   1.00
C394   C     0.87766   0.77292   0.48357   0.00000  Uiso   1.00
C395   C     0.84419   0.74995   0.43346   0.00000  Uiso   1.00
C396   C     0.79008   0.76757   0.41169   0.00000  Uiso   1.00
C397   C     0.89023   0.83695   0.06145   0.00000  Uiso   1.00
C398   C     0.96577   0.77913   0.05576   0.00000  Uiso   1.00
C399   C     0.71988   0.83463   0.41571   0.00000  Uiso   1.00
H400   H     0.87682   0.87050   0.08241   0.00000  Uiso   1.00
H401   H     0.98821   0.88664   0.43006   0.00000  Uiso   1.00
H402   H     0.68969   0.89549   0.03167   0.00000  Uiso   1.00
C403   C     0.68922   0.98610   0.24785   0.00000  Uiso   1.00
H404   H     0.73173   0.66986   0.24372   0.00000  Uiso   1.00
C405   C     0.97746   0.68057   0.25217   0.00000  Uiso   1.00
H406   H     0.93497   0.99681   0.25634   0.00000  Uiso   1.00
N407   N     0.81160   0.81890   0.23542   0.00000  Uiso   1.00
H408   H     0.82379   0.78809   0.21326   0.00000  Uiso   1.00
N409   N     0.85507   0.84777   0.26457   0.00000  Uiso   1.00
F410   F     0.84032   0.88692   0.29538   0.00000  Uiso   1.00
N411   N     0.77842   0.85073   0.09087   0.00000  Uiso   1.00
O412   O     0.79118   0.80713   0.11377   0.00000  Uiso   1.00
O413   O     0.77090   0.89087   0.12233   0.00000  Uiso   1.00
F414   F     0.75776   0.74214   0.36434   0.00000  Uiso   1.00
O415   O     0.29769   0.24629   0.75357   0.00000  Uiso   1.00
O416   O     0.05742   0.23704   0.74423   0.00000  Uiso   1.00
C417   C     0.01483   0.26488   0.74864   0.00000  Uiso   1.00
O418   O     0.31490   0.17358   0.83380   0.00000  Uiso   1.00
O419   O     0.07463   0.16433   0.82446   0.00000  Uiso   1.00
C420   C     0.03556   0.16811   0.85504   0.00000  Uiso   1.00
Zn421  Zn    0.27119   0.17284   0.75623   0.00000  Uiso   1.00
Zn422  Zn    0.06214   0.16049   0.74376   0.00000  Uiso   1.00
O423   O     0.27592   0.09629   0.75576   0.00000  Uiso   1.00
O424   O     0.03565   0.08704   0.74642   0.00000  Uiso   1.00
O425   O     0.25870   0.16901   0.67554   0.00000  Uiso   1.00
O426   O     0.01843   0.15976   0.66620   0.00000  Uiso   1.00
C427   C     0.31849   0.06845   0.75132   0.00000  Uiso   1.00
C428   C     0.29725   0.16278   0.64480   0.00000  Uiso   1.00
C429   C     0.26734   0.09124   0.50397   0.00000  Uiso   1.00
H430   H     0.00668   0.09709   0.57393   0.00000  Uiso   1.00
H431   H     0.19370   0.05245   0.91049   0.00000  Uiso   1.00
H432   H     0.28551   0.06155   0.98127   0.00000  Uiso   1.00
C433   C     0.27601   0.15116   0.58506   0.00000  Uiso   1.00
C434   C     0.02598   0.20015   0.94872   0.00000  Uiso   1.00
C435   C     0.04702   0.20701   0.50617   0.00000  Uiso   1.00
C436   C     0.09800   0.18506   0.53085   0.00000  Uiso   1.00
C437   C     0.12935   0.15708   0.99629   0.00000  Uiso   1.00
C438   C     0.10155   0.14164   0.94060   0.00000  Uiso   1.00
C439   C     0.18741   0.14430   0.51451   0.00000  Uiso   1.00
C440   C     0.21099   0.10626   0.98357   0.00000  Uiso   1.00
C441   C     0.17752   0.08328   0.93346   0.00000  Uiso   1.00
C442   C     0.12341   0.10090   0.91169   0.00000  Uiso   1.00
C443   C     0.22356   0.17028   0.56145   0.00000  Uiso   1.00
C444   C     0.29911   0.11247   0.55576   0.00000  Uiso   1.00
C445   C     0.05322   0.16796   0.91571   0.00000  Uiso   1.00
H446   H     0.21015   0.20383   0.58241   0.00000  Uiso   1.00
H447   H     0.32154   0.21997   0.93006   0.00000  Uiso   1.00
H448   H     0.02302   0.22882   0.53167   0.00000  Uiso   1.00
C449   C     0.02256   0.31944   0.74785   0.00000  Uiso   1.00
H450   H     0.06506   0.00320   0.74372   0.00000  Uiso   1.00
C451   C     0.31079   0.01390   0.75217   0.00000  Uiso   1.00
H452   H     0.26830   0.33014   0.75634   0.00000  Uiso   1.00
N453   N     0.14493   0.15223   0.73542   0.00000  Uiso   1.00
H454   H     0.15712   0.12142   0.71326   0.00000  Uiso   1.00
N455   N     0.18840   0.18110   0.76457   0.00000  Uiso   1.00
F456   F     0.17365   0.22025   0.79538   0.00000  Uiso   1.00
N457   N     0.11175   0.18406   0.59087   0.00000  Uiso   1.00
O458   O     0.12451   0.14047   0.61377   0.00000  Uiso   1.00
O459   O     0.10424   0.22420   0.62233   0.00000  Uiso   1.00
F460   F     0.09110   0.07548   0.86434   0.00000  Uiso   1.00
O461   O     0.63102   0.24629   0.75357   0.00000  Uiso   1.00
O462   O     0.39075   0.23704   0.74423   0.00000  Uiso   1.00
C463   C     0.34817   0.26488   0.74864   0.00000  Uiso   1.00
O464   O     0.64823   0.17358   0.83380   0.00000  Uiso   1.00
O465   O     0.40796   0.16433   0.82446   0.00000  Uiso   1.00
C466   C     0.36889   0.16811   0.85504   0.00000  Uiso   1.00
Zn467  Zn    0.60453   0.17284   0.75623   0.00000  Uiso   1.00
Zn468  Zn    0.39547   0.16049   0.74376   0.00000  Uiso   1.00
O469   O     0.60925   0.09629   0.75576   0.00000  Uiso   1.00
O470   O     0.36898   0.08704   0.74642   0.00000  Uiso   1.00
O471   O     0.59204   0.16901   0.67554   0.00000  Uiso   1.00
O472   O     0.35177   0.15976   0.66620   0.00000  Uiso   1.00
C473   C     0.65182   0.06845   0.75132   0.00000  Uiso   1.00
C474   C     0.63058   0.16278   0.64480   0.00000  Uiso   1.00
C475   C     0.60067   0.09124   0.50397   0.00000  Uiso   1.00
H476   H     0.34001   0.09709   0.57393   0.00000  Uiso   1.00
H477   H     0.52704   0.05245   0.91049   0.00000  Uiso   1.00
H478   H     0.61884   0.06155   0.98127   0.00000  Uiso   1.00
C479   C     0.60934   0.15116   0.58506   0.00000  Uiso   1.00
C480   C     0.35931   0.20015   0.94872   0.00000  Uiso   1.00
C481   C     0.38035   0.20701   0.50617   0.00000  Uiso   1.00
C482   C     0.43133   0.18506   0.53085   0.00000  Uiso   1.00
C483   C     0.46268   0.15708   0.99629   0.00000  Uiso   1.00
C484   C     0.43489   0.14164   0.94060   0.00000  Uiso   1.00
C485   C     0.52074   0.14430   0.51451   0.00000  Uiso   1.00
C486   C     0.54433   0.10626   0.98357   0.00000  Uiso   1.00
C487   C     0.51086   0.08328   0.93346   0.00000  Uiso   1.00
C488   C     0.45675   0.10090   0.91169   0.00000  Uiso   1.00
C489   C     0.55690   0.17028   0.56145   0.00000  Uiso   1.00
C490   C     0.63244   0.11247   0.55576   0.00000  Uiso   1.00
C491   C     0.38655   0.16796   0.91571   0.00000  Uiso   1.00
H492   H     0.54349   0.20383   0.58241   0.00000  Uiso   1.00
H493   H     0.65488   0.21997   0.93006   0.00000  Uiso   1.00
H494   H     0.35635   0.22882   0.53167   0.00000  Uiso   1.00
C495   C     0.35589   0.31944   0.74785   0.00000  Uiso   1.00
H496   H     0.39839   0.00320   0.74372   0.00000  Uiso   1.00
C497   C     0.64413   0.01390   0.75217   0.00000  Uiso   1.00
H498   H     0.60163   0.33014   0.75634   0.00000  Uiso   1.00
N499   N     0.47827   0.15223   0.73542   0.00000  Uiso   1.00
H500   H     0.49045   0.12142   0.71326   0.00000  Uiso   1.00
N501   N     0.52173   0.18110   0.76457   0.00000  Uiso   1.00
F502   F     0.50699   0.22025   0.79538   0.00000  Uiso   1.00
N503   N     0.44508   0.18406   0.59087   0.00000  Uiso   1.00
O504   O     0.45785   0.14047   0.61377   0.00000  Uiso   1.00
O505   O     0.43757   0.22420   0.62233   0.00000  Uiso   1.00
F506   F     0.42443   0.07548   0.86434   0.00000  Uiso   1.00
O507   O     0.96435   0.24629   0.75357   0.00000  Uiso   1.00
O508   O     0.72408   0.23704   0.74423   0.00000  Uiso   1.00
C509   C     0.68150   0.26488   0.74864   0.00000  Uiso   1.00
O510   O     0.98157   0.17358   0.83380   0.00000  Uiso   1.00
O511   O     0.74130   0.16433   0.82446   0.00000  Uiso   1.00
C512   C     0.70223   0.16811   0.85504   0.00000  Uiso   1.00
Zn513  Zn    0.93786   0.17284   0.75623   0.00000  Uiso   1.00
Zn514  Zn    0.72881   0.16049   0.74376   0.00000  Uiso   1.00
O515   O     0.94258   0.09629   0.75576   0.00000  Uiso   1.00
O516   O     0.70231   0.08704   0.74642   0.00000  Uiso   1.00
O517   O     0.92537   0.16901   0.67554   0.00000  Uiso   1.00
O518   O     0.68510   0.15976   0.66620   0.00000  Uiso   1.00
C519   C     0.98515   0.06845   0.75132   0.00000  Uiso   1.00
C520   C     0.96392   0.16278   0.64480   0.00000  Uiso   1.00
C521   C     0.93400   0.09124   0.50397   0.00000  Uiso   1.00
H522   H     0.67335   0.09709   0.57393   0.00000  Uiso   1.00
H523   H     0.86037   0.05245   0.91049   0.00000  Uiso   1.00
H524   H     0.95218   0.06155   0.98127   0.00000  Uiso   1.00
C525   C     0.94268   0.15116   0.58506   0.00000  Uiso   1.00
C526   C     0.69264   0.20015   0.94872   0.00000  Uiso   1.00
C527   C     0.71369   0.20701   0.50617   0.00000  Uiso   1.00
C528   C     0.76467   0.18506   0.53085   0.00000  Uiso   1.00
C529   C     0.79601   0.15708   0.99629   0.00000  Uiso   1.00
C530   C     0.76822   0.14164   0.94060   0.00000  Uiso   1.00
C531   C     0.85407   0.14430   0.51451   0.00000  Uiso   1.00
C532   C     0.87766   0.10626   0.98357   0.00000  Uiso   1.00
C533   C     0.84419   0.08328   0.93346   0.00000  Uiso   1.00
C534   C     0.79008   0.10090   0.91169   0.00000  Uiso   1.00
C535   C     0.89023   0.17028   0.56145   0.00000  Uiso   1.00
C536   C     0.96577   0.11247   0.55576   0.00000  Uiso   1.00
C537   C     0.71988   0.16796   0.91571   0.00000  Uiso   1.00
H538   H     0.87682   0.20383   0.58241   0.00000  Uiso   1.00
H539   H     0.98821   0.21997   0.93006   0.00000  Uiso   1.00
H540   H     0.68969   0.22882   0.53167   0.00000  Uiso   1.00
C541   C     0.68922   0.31944   0.74785   0.00000  Uiso   1.00
H542   H     0.73173   0.00320   0.74372   0.00000  Uiso   1.00
C543   C     0.97746   0.01390   0.75217   0.00000  Uiso   1.00
H544   H     0.93497   0.33014   0.75634   0.00000  Uiso   1.00
N545   N     0.81160   0.15223   0.73542   0.00000  Uiso   1.00
H546   H     0.82379   0.12142   0.71326   0.00000  Uiso   1.00
N547   N     0.85507   0.18110   0.76457   0.00000  Uiso   1.00
F548   F     0.84032   0.22025   0.79538   0.00000  Uiso   1.00
N549   N     0.77842   0.18406   0.59087   0.00000  Uiso   1.00
O550   O     0.79118   0.14047   0.61377   0.00000  Uiso   1.00
O551   O     0.77090   0.22420   0.62233   0.00000  Uiso   1.00
F552   F     0.75776   0.07548   0.86434   0.00000  Uiso   1.00
O553   O     0.29769   0.57963   0.75357   0.00000  Uiso   1.00
O554   O     0.05742   0.57038   0.74423   0.00000  Uiso   1.00
C555   C     0.01483   0.59822   0.74864   0.00000  Uiso   1.00
O556   O     0.31490   0.50691   0.83380   0.00000  Uiso   1.00
O557   O     0.07463   0.49766   0.82446   0.00000  Uiso   1.00
C558   C     0.03556   0.50145   0.85504   0.00000  Uiso   1.00
Zn559  Zn    0.27119   0.50618   0.75623   0.00000  Uiso   1.00
Zn560  Zn    0.06214   0.49382   0.74376   0.00000  Uiso   1.00
O561   O     0.27592   0.42962   0.75576   0.00000  Uiso   1.00
O562   O     0.03565   0.42037   0.74642   0.00000  Uiso   1.00
O563   O     0.25870   0.50234   0.67554   0.00000  Uiso   1.00
O564   O     0.01843   0.49309   0.66620   0.00000  Uiso   1.00
C565   C     0.31849   0.40178   0.75132   0.00000  Uiso   1.00
C566   C     0.29725   0.49611   0.64480   0.00000  Uiso   1.00
C567   C     0.26734   0.42458   0.50397   0.00000  Uiso   1.00
H568   H     0.00668   0.43043   0.57393   0.00000  Uiso   1.00
H569   H     0.19370   0.38578   0.91049   0.00000  Uiso   1.00
H570   H     0.28551   0.39489   0.98127   0.00000  Uiso   1.00
C571   C     0.27601   0.48449   0.58506   0.00000  Uiso   1.00
C572   C     0.02598   0.53348   0.94872   0.00000  Uiso   1.00
C573   C     0.04702   0.54034   0.50617   0.00000  Uiso   1.00
C574   C     0.09800   0.51839   0.53085   0.00000  Uiso   1.00
C575   C     0.12935   0.49041   0.99629   0.00000  Uiso   1.00
C576   C     0.10155   0.47497   0.94060   0.00000  Uiso   1.00
C577   C     0.18741   0.47764   0.51451   0.00000  Uiso   1.00
C578   C     0.21099   0.43959   0.98357   0.00000  Uiso   1.00
C579   C     0.17752   0.41661   0.93346   0.00000  Uiso   1.00
C580   C     0.12341   0.43423   0.91169   0.00000  Uiso   1.00
C581   C     0.22356   0.50361   0.56145   0.00000  Uiso   1.00
C582   C     0.29911   0.44580   0.55576   0.00000  Uiso   1.00
C583   C     0.05322   0.50129   0.91571   0.00000  Uiso   1.00
H584   H     0.21015   0.53717   0.58241   0.00000  Uiso   1.00
H585   H     0.32154   0.55330   0.93006   0.00000  Uiso   1.00
H586   H     0.02302   0.56216   0.53167   0.00000  Uiso   1.00
C587   C     0.02256   0.65277   0.74785   0.00000  Uiso   1.00
H588   H     0.06506   0.33653   0.74372   0.00000  Uiso   1.00
C589   C     0.31079   0.34723   0.75217   0.00000  Uiso   1.00
H590   H     0.26830   0.66348   0.75634   0.00000  Uiso   1.00
N591   N     0.14493   0.48556   0.73542   0.00000  Uiso   1.00
H592   H     0.15712   0.45475   0.71326   0.00000  Uiso   1.00
N593   N     0.18840   0.51444   0.76457   0.00000  Uiso   1.00
F594   F     0.17365   0.55358   0.79538   0.00000  Uiso   1.00
N595   N     0.11175   0.51739   0.59087   0.00000  Uiso   1.00
O596   O     0.12451   0.47380   0.61377   0.00000  Uiso   1.00
O597   O     0.10424   0.55753   0.62233   0.00000  Uiso   1.00
F598   F     0.09110   0.40881   0.86434   0.00000  Uiso   1.00
O599   O     0.63102   0.57963   0.75357   0.00000  Uiso   1.00
O600   O     0.39075   0.57038   0.74423   0.00000  Uiso   1.00
C601   C     0.34817   0.59822   0.74864   0.00000  Uiso   1.00
O602   O     0.64823   0.50691   0.83380   0.00000  Uiso   1.00
O603   O     0.40796   0.49766   0.82446   0.00000  Uiso   1.00
C604   C     0.36889   0.50145   0.85504   0.00000  Uiso   1.00
Zn605  Zn    0.60453   0.50618   0.75623   0.00000  Uiso   1.00
Zn606  Zn    0.39547   0.49382   0.74376   0.00000  Uiso   1.00
O607   O     0.60925   0.42962   0.75576   0.00000  Uiso   1.00
O608   O     0.36898   0.42037   0.74642   0.00000  Uiso   1.00
O609   O     0.59204   0.50234   0.67554   0.00000  Uiso   1.00
O610   O     0.35177   0.49309   0.66620   0.00000  Uiso   1.00
C611   C     0.65182   0.40178   0.75132   0.00000  Uiso   1.00
C612   C     0.63058   0.49611   0.64480   0.00000  Uiso   1.00
C613   C     0.60067   0.42458   0.50397   0.00000  Uiso   1.00
H614   H     0.34001   0.43043   0.57393   0.00000  Uiso   1.00
H615   H     0.52704   0.38578   0.91049   0.00000  Uiso   1.00
H616   H     0.61884   0.39489   0.98127   0.00000  Uiso   1.00
C617   C     0.60934   0.48449   0.58506   0.00000  Uiso   1.00
C618   C     0.35931   0.53348   0.94872   0.00000  Uiso   1.00
C619   C     0.38035   0.54034   0.50617   0.00000  Uiso   1.00
C620   C     0.43133   0.51839   0.53085   0.00000  Uiso   1.00
C621   C     0.46268   0.49041   0.99629   0.00000  Uiso   1.00
C622   C     0.43489   0.47497   0.94060   0.00000  Uiso   1.00
C623   C     0.52074   0.47764   0.51451   0.00000  Uiso   1.00
C624   C     0.54433   0.43959   0.98357   0.00000  Uiso   1.00
C625   C     0.51086   0.41661   0.93346   0.00000  Uiso   1.00
C626   C     0.45675   0.43423   0.91169   0.00000  Uiso   1.00
C627   C     0.55690   0.50361   0.56145   0.00000  Uiso   1.00
C628   C     0.63244   0.44580   0.55576   0.00000  Uiso   1.00
C629   C     0.38655   0.50129   0.91571   0.00000  Uiso   1.00
H630   H     0.54349   0.53717   0.58241   0.00000  Uiso   1.00
H631   H     0.65488   0.55330   0.93006   0.00000  Uiso   1.00
H632   H     0.35635   0.56216   0.53167   0.00000  Uiso   1.00
C633   C     0.35589   0.65277   0.74785   0.00000  Uiso   1.00
H634   H     0.39839   0.33653   0.74372   0.00000  Uiso   1.00
C635   C     0.64413   0.34723   0.75217   0.00000  Uiso   1.00
H636   H     0.60163   0.66348   0.75634   0.00000  Uiso   1.00
N637   N     0.47827   0.48556   0.73542   0.00000  Uiso   1.00
H638   H     0.49045   0.45475   0.71326   0.00000  Uiso   1.00
N639   N     0.52173   0.51444   0.76457   0.00000  Uiso   1.00
F640   F     0.50699   0.55358   0.79538   0.00000  Uiso   1.00
N641   N     0.44508   0.51739   0.59087   0.00000  Uiso   1.00
O642   O     0.45785   0.47380   0.61377   0.00000  Uiso   1.00
O643   O     0.43757   0.55753   0.62233   0.00000  Uiso   1.00
F644   F     0.42443   0.40881   0.86434   0.00000  Uiso   1.00
O645   O     0.96435   0.57963   0.75357   0.00000  Uiso   1.00
O646   O     0.72408   0.57038   0.74423   0.00000  Uiso   1.00
C647   C     0.68150   0.59822   0.74864   0.00000  Uiso   1.00
O648   O     0.98157   0.50691   0.83380   0.00000  Uiso   1.00
O649   O     0.74130   0.49766   0.82446   0.00000  Uiso   1.00
C650   C     0.70223   0.50145   0.85504   0.00000  Uiso   1.00
Zn651  Zn    0.93786   0.50618   0.75623   0.00000  Uiso   1.00
Zn652  Zn    0.72881   0.49382   0.74376   0.00000  Uiso   1.00
O653   O     0.94258   0.42962   0.75576   0.00000  Uiso   1.00
O654   O     0.70231   0.42037   0.74642   0.00000  Uiso   1.00
O655   O     0.92537   0.50234   0.67554   0.00000  Uiso   1.00
O656   O     0.68510   0.49309   0.66620   0.00000  Uiso   1.00
C657   C     0.98515   0.40178   0.75132   0.00000  Uiso   1.00
C658   C     0.96392   0.49611   0.64480   0.00000  Uiso   1.00
C659   C     0.93400   0.42458   0.50397   0.00000  Uiso   1.00
H660   H     0.67335   0.43043   0.57393   0.00000  Uiso   1.00
H661   H     0.86037   0.38578   0.91049   0.00000  Uiso   1.00
H662   H     0.95218   0.39489   0.98127   0.00000  Uiso   1.00
C663   C     0.94268   0.48449   0.58506   0.00000  Uiso   1.00
C664   C     0.69264   0.53348   0.94872   0.00000  Uiso   1.00
C665   C     0.71369   0.54034   0.50617   0.00000  Uiso   1.00
C666   C     0.76467   0.51839   0.53085   0.00000  Uiso   1.00
C667   C     0.79601   0.49041   0.99629   0.00000  Uiso   1.00
C668   C     0.76822   0.47497   0.94060   0.00000  Uiso   1.00
C669   C     0.85407   0.47764   0.51451   0.00000  Uiso   1.00
C670   C     0.87766   0.43959   0.98357   0.00000  Uiso   1.00
C671   C     0.84419   0.41661   0.93346   0.00000  Uiso   1.00
C672   C     0.79008   0.43423   0.91169   0.00000  Uiso   1.00
C673   C     0.89023   0.50361   0.56145   0.00000  Uiso   1.00
C674   C     0.96577   0.44580   0.55576   0.00000  Uiso   1.00
C675   C     0.71988   0.50129   0.91571   0.00000  Uiso   1.00
H676   H     0.87682   0.53717   0.58241   0.00000  Uiso   1.00
H677   H     0.98821   0.55330   0.93006   0.00000  Uiso   1.00
H678   H     0.68969   0.56216   0.53167   0.00000  Uiso   1.00
C679   C     0.68922   0.65277   0.74785   0.00000  Uiso   1.00
H680   H     0.73173   0.33653   0.74372   0.00000  Uiso   1.00
C681   C     0.97746   0.34723   0.75217   0.00000  Uiso   1.00
H682   H     0.93497   0.66348   0.75634   0.00000  Uiso   1.00
N683   N     0.81160   0.48556   0.73542   0.00000  Uiso   1.00
H684   H     0.82379   0.45475   0.71326   0.00000  Uiso   1.00
N685   N     0.85507   0.51444   0.76457   0.00000  Uiso   1.00
F686   F     0.84032   0.55358   0.79538   0.00000  Uiso   1.00
N687   N     0.77842   0.51739   0.59087   0.00000  Uiso   1.00
O688   O     0.79118   0.47380   0.61377   0.00000  Uiso   1.00
O689   O     0.77090   0.55753   0.62233   0.00000  Uiso   1.00
F690   F     0.75776   0.40881   0.86434   0.00000  Uiso   1.00
O691   O     0.29769   0.91296   0.75357   0.00000  Uiso   1.00
O692   O     0.05742   0.90371   0.74423   0.00000  Uiso   1.00
C693   C     0.01483   0.93155   0.74864   0.00000  Uiso   1.00
O694   O     0.31490   0.84024   0.83380   0.00000  Uiso   1.00
O695   O     0.07463   0.83099   0.82446   0.00000  Uiso   1.00
C696   C     0.03556   0.83478   0.85504   0.00000  Uiso   1.00
Zn697  Zn    0.27119   0.83951   0.75623   0.00000  Uiso   1.00
Zn698  Zn    0.06214   0.82716   0.74376   0.00000  Uiso   1.00
O699   O     0.27592   0.76296   0.75576   0.00000  Uiso   1.00
O700   O     0.03565   0.75371   0.74642   0.00000  Uiso   1.00
O701   O     0.25870   0.83567   0.67554   0.00000  Uiso   1.00
O702   O     0.01843   0.82642   0.66620   0.00000  Uiso   1.00
C703   C     0.31849   0.73511   0.75132   0.00000  Uiso   1.00
C704   C     0.29725   0.82945   0.64480   0.00000  Uiso   1.00
C705   C     0.26734   0.75791   0.50397   0.00000  Uiso   1.00
H706   H     0.00668   0.76376   0.57393   0.00000  Uiso   1.00
H707   H     0.19370   0.71911   0.91049   0.00000  Uiso   1.00
H708   H     0.28551   0.72822   0.98127   0.00000  Uiso   1.00
C709   C     0.27601   0.81783   0.58506   0.00000  Uiso   1.00
C710   C     0.02598   0.86681   0.94872   0.00000  Uiso   1.00
C711   C     0.04702   0.87367   0.50617   0.00000  Uiso   1.00
C712   C     0.09800   0.85172   0.53085   0.00000  Uiso   1.00
C713   C     0.12935   0.82375   0.99629   0.00000  Uiso   1.00
C714   C     0.10155   0.80830   0.94060   0.00000  Uiso   1.00
C715   C     0.18741   0.81097   0.51451   0.00000  Uiso   1.00
C716   C     0.21099   0.77292   0.98357   0.00000  Uiso   1.00
C717   C     0.17752   0.74995   0.93346   0.00000  Uiso   1.00
C718   C     0.12341   0.76757   0.91169   0.00000  Uiso   1.00
C719   C     0.22356   0.83695   0.56145   0.00000  Uiso   1.00
C720   C     0.29911   0.77913   0.55576   0.00000  Uiso   1.00
C721   C     0.05322   0.83463   0.91571   0.00000  Uiso   1.00
H722   H     0.21015   0.87050   0.58241   0.00000  Uiso   1.00
H723   H     0.32154   0.88664   0.93006   0.00000  Uiso   1.00
H724   H     0.02302   0.89549   0.53167   0.00000  Uiso   1.00
C725   C     0.02256   0.98610   0.74785   0.00000  Uiso   1.00
H726   H     0.06506   0.66986   0.74372   0.00000  Uiso   1.00
C727   C     0.31079   0.68057   0.75217   0.00000  Uiso   1.00
H728   H     0.26830   0.99681   0.75634   0.00000  Uiso   1.00
N729   N     0.14493   0.81890   0.73542   0.00000  Uiso   1.00
H730   H     0.15712   0.78809   0.71326   0.00000  Uiso   1.00
N731   N     0.18840   0.84777   0.76457   0.00000  Uiso   1.00
F732   F     0.17365   0.88692   0.79538   0.00000  Uiso   1.00
N733   N     0.11175   0.85073   0.59087   0.00000  Uiso   1.00
O734   O     0.12451   0.80713   0.61377   0.00000  Uiso   1.00
O735   O     0.10424   0.89087   0.62233   0.00000  Uiso   1.00
F736   F     0.09110   0.74214   0.86434   0.00000  Uiso   1.00
O737   O     0.63102   0.91296   0.75357   0.00000  Uiso   1.00
O738   O     0.39075   0.90371   0.74423   0.00000  Uiso   1.00
C739   C     0.34817   0.93155   0.74864   0.00000  Uiso   1.00
O740   O     0.64823   0.84024   0.83380   0.00000  Uiso   1.00
O741   O     0.40796   0.83099   0.82446   0.00000  Uiso   1.00
C742   C     0.36889   0.83478   0.85504   0.00000  Uiso   1.00
Zn743  Zn    0.60453   0.83951   0.75623   0.00000  Uiso   1.00
Zn744  Zn    0.39547   0.82716   0.74376   0.00000  Uiso   1.00
O745   O     0.60925   0.76296   0.75576   0.00000  Uiso   1.00
O746   O     0.36898   0.75371   0.74642   0.00000  Uiso   1.00
O747   O     0.59204   0.83567   0.67554   0.00000  Uiso   1.00
O748   O     0.35177   0.82642   0.66620   0.00000  Uiso   1.00
C749   C     0.65182   0.73511   0.75132   0.00000  Uiso   1.00
C750   C     0.63058   0.82945   0.64480   0.00000  Uiso   1.00
C751   C     0.60067   0.75791   0.50397   0.00000  Uiso   1.00
H752   H     0.34001   0.76376   0.57393   0.00000  Uiso   1.00
H753   H     0.52704   0.71911   0.91049   0.00000  Uiso   1.00
H754   H     0.61884   0.72822   0.98127   0.00000  Uiso   1.00
C755   C     0.60934   0.81783   0.58506   0.00000  Uiso   1.00
C756   C     0.35931   0.86681   0.94872   0.00000  Uiso   1.00
C757   C     0.38035   0.87367   0.50617   0.00000  Uiso   1.00
C758   C     0.43133   0.85172   0.53085   0.00000  Uiso   1.00
C759   C     0.46268   0.82375   0.99629   0.00000  Uiso   1.00
C760   C     0.43489   0.80830   0.94060   0.00000  Uiso   1.00
C761   C     0.52074   0.81097   0.51451   0.00000  Uiso   1.00
C762   C     0.54433   0.77292   0.98357   0.00000  Uiso   1.00
C763   C     0.51086   0.74995   0.93346   0.00000  Uiso   1.00
C764   C     0.45675   0.76757   0.91169   0.00000  Uiso   1.00
C765   C     0.55690   0.83695   0.56145   0.00000  Uiso   1.00
C766   C     0.63244   0.77913   0.55576   0.00000  Uiso   1.00
C767   C     0.38655   0.83463   0.91571   0.00000  Uiso   1.00
H768   H     0.54349   0.87050   0.58241   0.00000  Uiso   1.00
H769   H     0.65488   0.88664   0.93006   0.00000  Uiso   1.00
H770   H     0.35635   0.89549   0.53167   0.00000  Uiso   1.00
C771   C     0.35589   0.98610   0.74785   0.00000  Uiso   1.00
H772   H     0.39839   0.66986   0.74372   0.00000  Uiso   1.00
C773   C     0.64413   0.68057   0.75217   0.00000  Uiso   1.00
H774   H     0.60163   0.99681   0.75634   0.00000  Uiso   1.00
N775   N     0.47827   0.81890   0.73542   0.00000  Uiso   1.00
H776   H     0.49045   0.78809   0.71326   0.00000  Uiso   1.00
N777   N     0.52173   0.84777   0.76457   0.00000  Uiso   1.00
F778   F     0.50699   0.88692   0.79538   0.00000  Uiso   1.00
N779   N     0.44508   0.85073   0.59087   0.00000  Uiso   1.00
O780   O     0.45785   0.80713   0.61377   0.00000  Uiso   1.00
O781   O     0.43757   0.89087   0.62233   0.00000  Uiso   1.00
F782   F     0.42443   0.74214   0.86434   0.00000  Uiso   1.00
O783   O     0.96435   0.91296   0.75357   0.00000  Uiso   1.00
O784   O     0.72408   0.90371   0.74423   0.00000  Uiso   1.00
C785   C     0.68150   0.93155   0.74864   0.00000  Uiso   1.00
O786   O     0.98157   0.84024   0.83380   0.00000  Uiso   1.00
O787   O     0.74130   0.83099   0.82446   0.00000  Uiso   1.00
C788   C     0.70223   0.83478   0.85504   0.00000  Uiso   1.00
Zn789  Zn    0.93786   0.83951   0.75623   0.00000  Uiso   1.00
Zn790  Zn    0.72881   0.82716   0.74376   0.00000  Uiso   1.00
O791   O     0.94258   0.76296   0.75576   0.00000  Uiso   1.00
O792   O     0.70231   0.75371   0.74642   0.00000  Uiso   1.00
O793   O     0.92537   0.83567   0.67554   0.00000  Uiso   1.00
O794   O     0.68510   0.82642   0.66620   0.00000  Uiso   1.00
C795   C     0.98515   0.73511   0.75132   0.00000  Uiso   1.00
C796   C     0.96392   0.82945   0.64480   0.00000  Uiso   1.00
C797   C     0.93400   0.75791   0.50397   0.00000  Uiso   1.00
H798   H     0.67335   0.76376   0.57393   0.00000  Uiso   1.00
H799   H     0.86037   0.71911   0.91049   0.00000  Uiso   1.00
H800   H     0.95218   0.72822   0.98127   0.00000  Uiso   1.00
C801   C     0.94268   0.81783   0.58506   0.00000  Uiso   1.00
C802   C     0.69264   0.86681   0.94872   0.00000  Uiso   1.00
C803   C     0.71369   0.87367   0.50617   0.00000  Uiso   1.00
C804   C     0.76467   0.85172   0.53085   0.00000  Uiso   1.00
C805   C     0.79601   0.82375   0.99629   0.00000  Uiso   1.00
C806   C     0.76822   0.80830   0.94060   0.00000  Uiso   1.00
C807   C     0.85407   0.81097   0.51451   0.00000  Uiso   1.00
C808   C     0.87766   0.77292   0.98357   0.00000  Uiso   1.00
C809   C     0.84419   0.74995   0.93346   0.00000  Uiso   1.00
C810   C     0.79008   0.76757   0.91169   0.00000  Uiso   1.00
C811   C     0.89023   0.83695   0.56145   0.00000  Uiso   1.00
C812   C     0.96577   0.77913   0.55576   0.00000  Uiso   1.00
C813   C     0.71988   0.83463   0.91571   0.00000  Uiso   1.00
H814   H     0.87682   0.87050   0.58241   0.00000  Uiso   1.00
H815   H     0.98821   0.88664   0.93006   0.00000  Uiso   1.00
H816   H     0.68969   0.89549   0.53167   0.00000  Uiso   1.00
C817   C     0.68922   0.98610   0.74785   0.00000  Uiso   1.00
H818   H     0.73173   0.66986   0.74372   0.00000  Uiso   1.00
C819   C     0.97746   0.68057   0.75217   0.00000  Uiso   1.00
H820   H     0.93497   0.99681   0.75634   0.00000  Uiso   1.00
N821   N     0.81160   0.81890   0.73542   0.00000  Uiso   1.00
H822   H     0.82379   0.78809   0.71326   0.00000  Uiso   1.00
N823   N     0.85507   0.84777   0.76457   0.00000  Uiso   1.00
F824   F     0.84032   0.88692   0.79538   0.00000  Uiso   1.00
N825   N     0.77842   0.85073   0.59087   0.00000  Uiso   1.00
O826   O     0.79118   0.80713   0.61377   0.00000  Uiso   1.00
O827   O     0.77090   0.89087   0.62233   0.00000  Uiso   1.00
F828   F     0.75776   0.74214   0.86434   0.00000  Uiso   1.00
loop_
_geom_bond_atom_site_label_1
_geom_bond_atom_site_label_2
_geom_bond_distance
_geom_bond_site_symmetry_2
_ccdc_geom_bond_type
O1     Zn7     1.954   .     S
O1     C49     1.278   .     S
O2     C3      1.289   .     A
O2     Zn8     1.979   .     S
C3     C35     1.403   .     S
C3     O93     1.278   1_455 S
O4     Zn7     1.956   .     S
O4     C52     1.290   .     S
O5     Zn8     1.922   .     S
O5     C6      1.299   .     A
C6     C31     1.450   .     S
C6     O96     1.290   1_455 S
Zn7    N41     2.021   .     S
Zn7    O11     1.922   .     S
Zn7    O9      1.979   .     S
Zn8    N39     2.021   .     S
Zn8    O12     1.956   .     S
Zn8    O10     1.954   .     S
O9     C13     1.289   .     A
O10    C105    1.278   1_455 S
O11    C14     1.299   .     A
O12    C106    1.291   1_455 S
C13    C37     1.403   .     S
C13    O56     1.278   .     S
C14    C19     1.448   .     S
C14    O58     1.291   .     S
C15    C30     1.395   .     A
C15    H432    1.084   1_554 S
C15    C440    1.404   1_554 S
H16    C122    1.083   1_455 S
H17    C27     1.084   .     S
H18    C429    1.084   .     S
C19    C30     1.401   .     A
C19    C29     1.384   .     A
C20    C31     1.401   .     A
C20    C435    1.384   .     S
C20    H125    1.084   1_455 S
C21    C22     1.396   .     A
C21    H34     1.083   .     S
C21    C434    1.384   1_554 S
C22    N43     1.431   .     S
C22    C437    1.428   1_554 S
C23    C24     1.406   .     A
C23    C436    1.428   .     S
C23    C439    1.413   .     S
C24    C31     1.407   .     A
C24    C28     1.419   .     A
C25    C29     1.390   .     A
C25    C437    1.413   1_554 S
C25    C440    1.418   1_554 S
C26    C27     1.392   .     A
C26    C429    1.404   .     S
C26    C439    1.418   .     S
C27    C28     1.390   .     A
C28    F46     1.357   .     S
C29    H32     1.081   .     S
C30    H62     1.083   .     S
H33    C66     1.084   .     S
C35    H174    1.088   .     S
C35    C267    1.338   1_455 S
H36    C311    1.088   1_545 S
C37    C357    1.338   1_545 S
C37    H314    1.088   1_545 S
H38    C175    1.088   .     S
N39    N41     1.285   .     D
N39    H40     1.028   .     S
N41    F42     1.335   .     S
N43    O45     1.301   .     A
N43    O44     1.300   .     A
O47    Zn53    1.954   .     S
O47    C95     1.278   .     S
O48    C49     1.289   .     A
O48    Zn54    1.979   .     S
C49    C81     1.403   .     S
O50    Zn53    1.956   .     S
O50    C98     1.290   .     S
O51    Zn54    1.922   .     S
O51    C52     1.299   .     A
C52    C77     1.450   .     S
Zn53   N87     2.021   .     S
Zn53   O57     1.922   .     S
Zn53   O55     1.979   .     S
Zn54   N85     2.021   .     S
Zn54   O58     1.956   .     S
Zn54   O56     1.954   .     S
O55    C59     1.289   .     A
O57    C60     1.299   .     A
C59    C83     1.403   .     S
C59    O102    1.278   .     S
C60    C65     1.448   .     S
C60    O104    1.291   .     S
C61    C76     1.395   .     A
C61    H478    1.084   1_554 S
C61    C486    1.404   1_554 S
H63    C73     1.084   .     S
H64    C475    1.084   .     S
C65    C76     1.401   .     A
C65    C75     1.384   .     A
C66    C77     1.401   .     A
C66    C481    1.384   .     S
C67    C68     1.396   .     A
C67    H80     1.083   .     S
C67    C480    1.384   1_554 S
C68    N89     1.431   .     S
C68    C483    1.428   1_554 S
C69    C70     1.406   .     A
C69    C482    1.428   .     S
C69    C485    1.413   .     S
C70    C77     1.407   .     A
C70    C74     1.419   .     A
C71    C75     1.390   .     A
C71    C483    1.413   1_554 S
C71    C486    1.418   1_554 S
C72    C73     1.392   .     A
C72    C475    1.404   .     S
C72    C485    1.418   .     S
C73    C74     1.390   .     A
C74    F92     1.357   .     S
C75    H78     1.081   .     S
C76    H108    1.083   .     S
H79    C112    1.084   .     S
C81    H220    1.088   .     S
C81    C175    1.338   .     S
H82    C357    1.088   1_545 S
C83    C403    1.338   1_545 S
C83    H360    1.088   1_545 S
H84    C221    1.088   .     S
N85    N87     1.285   .     D
N85    H86     1.028   .     S
N87    F88     1.335   .     S
N89    O91     1.301   .     A
N89    O90     1.300   .     A
O93    Zn99    1.954   .     S
O93    C3      1.278   1_655 S
O94    C95     1.289   .     A
O94    Zn100   1.979   .     S
C95    C127    1.403   .     S
O96    Zn99    1.956   .     S
O96    C6      1.290   1_655 S
O97    Zn100   1.922   .     S
O97    C98     1.299   .     A
C98    C123    1.450   .     S
Zn99   N133    2.021   .     S
Zn99   O103    1.922   .     S
Zn99   O101    1.979   .     S
Zn100  N131    2.021   .     S
Zn100  O104    1.956   .     S
Zn100  O102    1.954   .     S
O101   C105    1.289   .     A
O103   C106    1.299   .     A
C105   C129    1.403   .     S
C105   O10     1.278   1_655 S
C106   C111    1.448   .     S
C106   O12     1.291   1_655 S
C107   C122    1.395   .     A
C107   H524    1.084   1_554 S
C107   C532    1.404   1_554 S
H109   C119    1.084   .     S
H110   C521    1.084   .     S
C111   C122    1.401   .     A
C111   C121    1.384   .     A
C112   C123    1.401   .     A
C112   C527    1.384   .     S
C113   C114    1.396   .     A
C113   H126    1.083   .     S
C113   C526    1.384   1_554 S
C114   N135    1.431   .     S
C114   C529    1.428   1_554 S
C115   C116    1.406   .     A
C115   C528    1.428   .     S
C115   C531    1.413   .     S
C116   C123    1.407   .     A
C116   C120    1.419   .     A
C117   C121    1.390   .     A
C117   C529    1.413   1_554 S
C117   C532    1.418   1_554 S
C118   C119    1.392   .     A
C118   C521    1.404   .     S
C118   C531    1.418   .     S
C119   C120    1.390   .     A
C120   F138    1.357   .     S
C121   H124    1.081   .     S
C122   H16     1.083   1_655 S
H125   C20     1.084   1_655 S
C127   H266    1.088   .     S
C127   C221    1.338   .     S
H128   C403    1.088   1_545 S
C129   C311    1.338   1_645 S
C129   H406    1.088   1_545 S
H130   C267    1.088   .     S
N131   N133    1.285   .     D
N131   H132    1.028   .     S
N133   F134    1.335   .     S
N135   O137    1.301   .     A
N135   O136    1.300   .     A
O139   Zn145   1.954   .     S
O139   C187    1.278   .     S
O140   C141    1.289   .     A
O140   Zn146   1.979   .     S
C141   C173    1.403   .     S
C141   O231    1.278   1_455 S
O142   Zn145   1.956   .     S
O142   C190    1.290   .     S
O143   Zn146   1.922   .     S
O143   C144    1.299   .     A
C144   C169    1.450   .     S
C144   O234    1.290   1_455 S
Zn145  N179    2.021   .     S
Zn145  O149    1.922   .     S
Zn145  O147    1.979   .     S
Zn146  N177    2.021   .     S
Zn146  O150    1.956   .     S
Zn146  O148    1.954   .     S
O147   C151    1.289   .     A
O148   C243    1.278   1_455 S
O149   C152    1.299   .     A
O150   C244    1.291   1_455 S
C151   C175    1.403   .     S
C151   O194    1.278   .     S
C152   C157    1.448   .     S
C152   O196    1.291   .     S
C153   C168    1.395   .     A
C153   H570    1.084   1_554 S
C153   C578    1.404   1_554 S
H154   C260    1.083   1_455 S
H155   C165    1.084   .     S
H156   C567    1.084   .     S
C157   C168    1.401   .     A
C157   C167    1.384   .     A
C158   C169    1.401   .     A
C158   C573    1.384   .     S
C158   H263    1.084   1_455 S
C159   C160    1.396   .     A
C159   H172    1.083   .     S
C159   C572    1.384   1_554 S
C160   N181    1.431   .     S
C160   C575    1.428   1_554 S
C161   C162    1.406   .     A
C161   C574    1.428   .     S
C161   C577    1.413   .     S
C162   C169    1.407   .     A
C162   C166    1.419   .     A
C163   C167    1.390   .     A
C163   C575    1.413   1_554 S
C163   C578    1.418   1_554 S
C164   C165    1.392   .     A
C164   C567    1.404   .     S
C164   C577    1.418   .     S
C165   C166    1.390   .     A
C166   F184    1.357   .     S
C167   H170    1.081   .     S
C168   H200    1.083   .     S
H171   C204    1.084   .     S
C173   H312    1.088   .     S
C173   C405    1.338   1_455 S
H176   C313    1.088   .     S
N177   N179    1.285   .     D
N177   H178    1.028   .     S
N179   F180    1.335   .     S
N181   O183    1.301   .     A
N181   O182    1.300   .     A
O185   Zn191   1.954   .     S
O185   C233    1.278   .     S
O186   C187    1.289   .     A
O186   Zn192   1.979   .     S
C187   C219    1.403   .     S
O188   Zn191   1.956   .     S
O188   C236    1.290   .     S
O189   Zn192   1.922   .     S
O189   C190    1.299   .     A
C190   C215    1.450   .     S
Zn191  N225    2.021   .     S
Zn191  O195    1.922   .     S
Zn191  O193    1.979   .     S
Zn192  N223    2.021   .     S
Zn192  O196    1.956   .     S
Zn192  O194    1.954   .     S
O193   C197    1.289   .     A
O195   C198    1.299   .     A
C197   C221    1.403   .     S
C197   O240    1.278   .     S
C198   C203    1.448   .     S
C198   O242    1.291   .     S
C199   C214    1.395   .     A
C199   H616    1.084   1_554 S
C199   C624    1.404   1_554 S
H201   C211    1.084   .     S
H202   C613    1.084   .     S
C203   C214    1.401   .     A
C203   C213    1.384   .     A
C204   C215    1.401   .     A
C204   C619    1.384   .     S
C205   C206    1.396   .     A
C205   H218    1.083   .     S
C205   C618    1.384   1_554 S
C206   N227    1.431   .     S
C206   C621    1.428   1_554 S
C207   C208    1.406   .     A
C207   C620    1.428   .     S
C207   C623    1.413   .     S
C208   C215    1.407   .     A
C208   C212    1.419   .     A
C209   C213    1.390   .     A
C209   C621    1.413   1_554 S
C209   C624    1.418   1_554 S
C210   C211    1.392   .     A
C210   C613    1.404   .     S
C210   C623    1.418   .     S
C211   C212    1.390   .     A
C212   F230    1.357   .     S
C213   H216    1.081   .     S
C214   H246    1.083   .     S
H217   C250    1.084   .     S
C219   H358    1.088   .     S
C219   C313    1.338   .     S
H222   C359    1.088   .     S
N223   N225    1.285   .     D
N223   H224    1.028   .     S
N225   F226    1.335   .     S
N227   O229    1.301   .     A
N227   O228    1.300   .     A
O231   Zn237   1.954   .     S
O231   C141    1.278   1_655 S
O232   C233    1.289   .     A
O232   Zn238   1.979   .     S
C233   C265    1.403   .     S
O234   Zn237   1.956   .     S
O234   C144    1.290   1_655 S
O235   Zn238   1.922   .     S
O235   C236    1.299   .     A
C236   C261    1.450   .     S
Zn237  N271    2.021   .     S
Zn237  O241    1.922   .     S
Zn237  O239    1.979   .     S
Zn238  N269    2.021   .     S
Zn238  O242    1.956   .     S
Zn238  O240    1.954   .     S
O239   C243    1.289   .     A
O241   C244    1.299   .     A
C243   C267    1.403   .     S
C243   O148    1.278   1_655 S
C244   C249    1.448   .     S
C244   O150    1.291   1_655 S
C245   C260    1.395   .     A
C245   H662    1.084   1_554 S
C245   C670    1.404   1_554 S
H247   C257    1.084   .     S
H248   C659    1.084   .     S
C249   C260    1.401   .     A
C249   C259    1.384   .     A
C250   C261    1.401   .     A
C250   C665    1.384   .     S
C251   C252    1.396   .     A
C251   H264    1.083   .     S
C251   C664    1.384   1_554 S
C252   N273    1.431   .     S
C252   C667    1.428   1_554 S
C253   C254    1.406   .     A
C253   C666    1.428   .     S
C253   C669    1.413   .     S
C254   C261    1.407   .     A
C254   C258    1.419   .     A
C255   C259    1.390   .     A
C255   C667    1.413   1_554 S
C255   C670    1.418   1_554 S
C256   C257    1.392   .     A
C256   C659    1.404   .     S
C256   C669    1.418   .     S
C257   C258    1.390   .     A
C258   F276    1.357   .     S
C259   H262    1.081   .     S
C260   H154    1.083   1_655 S
H263   C158    1.084   1_655 S
C265   H404    1.088   .     S
C265   C359    1.338   .     S
C267   C35     1.338   1_655 S
H268   C405    1.088   .     S
N269   N271    1.285   .     D
N269   H270    1.028   .     S
N271   F272    1.335   .     S
N273   O275    1.301   .     A
N273   O274    1.300   .     A
O277   Zn283   1.954   .     S
O277   C325    1.278   .     S
O278   C279    1.289   .     A
O278   Zn284   1.979   .     S
C279   C311    1.403   .     S
C279   O369    1.278   1_455 S
O280   Zn283   1.956   .     S
O280   C328    1.290   .     S
O281   Zn284   1.922   .     S
O281   C282    1.299   .     A
C282   C307    1.450   .     S
C282   O372    1.290   1_455 S
Zn283  N317    2.021   .     S
Zn283  O287    1.922   .     S
Zn283  O285    1.979   .     S
Zn284  N315    2.021   .     S
Zn284  O288    1.956   .     S
Zn284  O286    1.954   .     S
O285   C289    1.289   .     A
O286   C381    1.278   1_455 S
O287   C290    1.299   .     A
O288   C382    1.291   1_455 S
C289   C313    1.403   .     S
C289   O332    1.278   .     S
C290   C295    1.448   .     S
C290   O334    1.291   .     S
C291   C306    1.395   .     A
C291   H708    1.084   1_554 S
C291   C716    1.404   1_554 S
H292   C398    1.083   1_455 S
H293   C303    1.084   .     S
H294   C705    1.084   .     S
C295   C306    1.401   .     A
C295   C305    1.384   .     A
C296   C307    1.401   .     A
C296   C711    1.384   .     S
C296   H401    1.084   1_455 S
C297   C298    1.396   .     A
C297   H310    1.083   .     S
C297   C710    1.384   1_554 S
C298   N319    1.431   .     S
C298   C713    1.428   1_554 S
C299   C300    1.406   .     A
C299   C712    1.428   .     S
C299   C715    1.413   .     S
C300   C307    1.407   .     A
C300   C304    1.419   .     A
C301   C305    1.390   .     A
C301   C713    1.413   1_554 S
C301   C716    1.418   1_554 S
C302   C303    1.392   .     A
C302   C705    1.404   .     S
C302   C715    1.418   .     S
C303   C304    1.390   .     A
C304   F322    1.357   .     S
C305   H308    1.081   .     S
C306   H338    1.083   .     S
H309   C342    1.084   .     S
C311   H36     1.088   1_565 S
C311   C129    1.338   1_465 S
H314   C37     1.088   1_565 S
N315   N317    1.285   .     D
N315   H316    1.028   .     S
N317   F318    1.335   .     S
N319   O321    1.301   .     A
N319   O320    1.300   .     A
O323   Zn329   1.954   .     S
O323   C371    1.278   .     S
O324   C325    1.289   .     A
O324   Zn330   1.979   .     S
C325   C357    1.403   .     S
O326   Zn329   1.956   .     S
O326   C374    1.290   .     S
O327   Zn330   1.922   .     S
O327   C328    1.299   .     A
C328   C353    1.450   .     S
Zn329  N363    2.021   .     S
Zn329  O333    1.922   .     S
Zn329  O331    1.979   .     S
Zn330  N361    2.021   .     S
Zn330  O334    1.956   .     S
Zn330  O332    1.954   .     S
O331   C335    1.289   .     A
O333   C336    1.299   .     A
C335   C359    1.403   .     S
C335   O378    1.278   .     S
C336   C341    1.448   .     S
C336   O380    1.291   .     S
C337   C352    1.395   .     A
C337   H754    1.084   1_554 S
C337   C762    1.404   1_554 S
H339   C349    1.084   .     S
H340   C751    1.084   .     S
C341   C352    1.401   .     A
C341   C351    1.384   .     A
C342   C353    1.401   .     A
C342   C757    1.384   .     S
C343   C344    1.396   .     A
C343   H356    1.083   .     S
C343   C756    1.384   1_554 S
C344   N365    1.431   .     S
C344   C759    1.428   1_554 S
C345   C346    1.406   .     A
C345   C758    1.428   .     S
C345   C761    1.413   .     S
C346   C353    1.407   .     A
C346   C350    1.419   .     A
C347   C351    1.390   .     A
C347   C759    1.413   1_554 S
C347   C762    1.418   1_554 S
C348   C349    1.392   .     A
C348   C751    1.404   .     S
C348   C761    1.418   .     S
C349   C350    1.390   .     A
C350   F368    1.357   .     S
C351   H354    1.081   .     S
C352   H384    1.083   .     S
H355   C388    1.084   .     S
C357   H82     1.088   1_565 S
C357   C37     1.338   1_565 S
H360   C83     1.088   1_565 S
N361   N363    1.285   .     D
N361   H362    1.028   .     S
N363   F364    1.335   .     S
N365   O367    1.301   .     A
N365   O366    1.300   .     A
O369   Zn375   1.954   .     S
O369   C279    1.278   1_655 S
O370   C371    1.289   .     A
O370   Zn376   1.979   .     S
C371   C403    1.403   .     S
O372   Zn375   1.956   .     S
O372   C282    1.290   1_655 S
O373   Zn376   1.922   .     S
O373   C374    1.299   .     A
C374   C399    1.450   .     S
Zn375  N409    2.021   .     S
Zn375  O379    1.922   .     S
Zn375  O377    1.979   .     S
Zn376  N407    2.021   .     S
Zn376  O380    1.956   .     S
Zn376  O378    1.954   .     S
O377   C381    1.289   .     A
O379   C382    1.299   .     A
C381   C405    1.403   .     S
C381   O286    1.278   1_655 S
C382   C387    1.448   .     S
C382   O288    1.291   1_655 S
C383   C398    1.395   .     A
C383   H800    1.084   1_554 S
C383   C808    1.404   1_554 S
H385   C395    1.084   .     S
H386   C797    1.084   .     S
C387   C398    1.401   .     A
C387   C397    1.384   .     A
C388   C399    1.401   .     A
C388   C803    1.384   .     S
C389   C390    1.396   .     A
C389   H402    1.083   .     S
C389   C802    1.384   1_554 S
C390   N411    1.431   .     S
C390   C805    1.428   1_554 S
C391   C392    1.406   .     A
C391   C804    1.428   .     S
C391   C807    1.413   .     S
C392   C399    1.407   .     A
C392   C396    1.419   .     A
C393   C397    1.390   .     A
C393   C805    1.413   1_554 S
C393   C808    1.418   1_554 S
C394   C395    1.392   .     A
C394   C797    1.404   .     S
C394   C807    1.418   .     S
C395   C396    1.390   .     A
C396   F414    1.357   .     S
C397   H400    1.081   .     S
C398   H292    1.083   1_655 S
H401   C296    1.084   1_655 S
C403   H128    1.088   1_565 S
C403   C83     1.338   1_565 S
C405   C173    1.338   1_655 S
H406   C129    1.088   1_565 S
N407   N409    1.285   .     D
N407   H408    1.028   .     S
N409   F410    1.335   .     S
N411   O413    1.301   .     A
N411   O412    1.300   .     A
O415   Zn421   1.954   .     S
O415   C463    1.278   .     S
O416   C417    1.289   .     A
O416   Zn422   1.979   .     S
C417   C449    1.403   .     S
C417   O507    1.278   1_455 S
O418   Zn421   1.956   .     S
O418   C466    1.290   .     S
O419   Zn422   1.922   .     S
O419   C420    1.299   .     A
C420   C445    1.450   .     S
C420   O510    1.290   1_455 S
Zn421  N455    2.021   .     S
Zn421  O425    1.922   .     S
Zn421  O423    1.979   .     S
Zn422  N453    2.021   .     S
Zn422  O426    1.956   .     S
Zn422  O424    1.954   .     S
O423   C427    1.289   .     A
O424   C519    1.278   1_455 S
O425   C428    1.299   .     A
O426   C520    1.291   1_455 S
C427   C451    1.403   .     S
C427   O470    1.278   .     S
C428   C433    1.448   .     S
C428   O472    1.291   .     S
C429   C444    1.395   .     A
H430   C536    1.083   1_455 S
H431   C441    1.084   .     S
H432   C15     1.084   1_556 S
C433   C444    1.401   .     A
C433   C443    1.384   .     A
C434   C445    1.401   .     A
C434   C21     1.384   1_556 S
C434   H539    1.084   1_455 S
C435   C436    1.396   .     A
C435   H448    1.083   .     S
C436   N457    1.431   .     S
C437   C438    1.406   .     A
C437   C22     1.428   1_556 S
C437   C25     1.413   1_556 S
C438   C445    1.407   .     A
C438   C442    1.419   .     A
C439   C443    1.390   .     A
C440   C441    1.392   .     A
C440   C15     1.404   1_556 S
C440   C25     1.418   1_556 S
C441   C442    1.390   .     A
C442   F460    1.357   .     S
C443   H446    1.081   .     S
C444   H476    1.083   .     S
H447   C480    1.084   .     S
C449   H588    1.088   .     S
C449   C681    1.338   1_455 S
H450   C725    1.088   1_545 S
C451   C771    1.338   1_545 S
C451   H728    1.088   1_545 S
H452   C589    1.088   .     S
N453   N455    1.285   .     D
N453   H454    1.028   .     S
N455   F456    1.335   .     S
N457   O459    1.301   .     A
N457   O458    1.300   .     A
O461   Zn467   1.954   .     S
O461   C509    1.278   .     S
O462   C463    1.289   .     A
O462   Zn468   1.979   .     S
C463   C495    1.403   .     S
O464   Zn467   1.956   .     S
O464   C512    1.290   .     S
O465   Zn468   1.922   .     S
O465   C466    1.299   .     A
C466   C491    1.450   .     S
Zn467  N501    2.021   .     S
Zn467  O471    1.922   .     S
Zn467  O469    1.979   .     S
Zn468  N499    2.021   .     S
Zn468  O472    1.956   .     S
Zn468  O470    1.954   .     S
O469   C473    1.289   .     A
O471   C474    1.299   .     A
C473   C497    1.403   .     S
C473   O516    1.278   .     S
C474   C479    1.448   .     S
C474   O518    1.291   .     S
C475   C490    1.395   .     A
H477   C487    1.084   .     S
H478   C61     1.084   1_556 S
C479   C490    1.401   .     A
C479   C489    1.384   .     A
C480   C491    1.401   .     A
C480   C67     1.384   1_556 S
C481   C482    1.396   .     A
C481   H494    1.083   .     S
C482   N503    1.431   .     S
C483   C484    1.406   .     A
C483   C68     1.428   1_556 S
C483   C71     1.413   1_556 S
C484   C491    1.407   .     A
C484   C488    1.419   .     A
C485   C489    1.390   .     A
C486   C487    1.392   .     A
C486   C61     1.404   1_556 S
C486   C71     1.418   1_556 S
C487   C488    1.390   .     A
C488   F506    1.357   .     S
C489   H492    1.081   .     S
C490   H522    1.083   .     S
H493   C526    1.084   .     S
C495   H634    1.088   .     S
C495   C589    1.338   .     S
H496   C771    1.088   1_545 S
C497   C817    1.338   1_545 S
C497   H774    1.088   1_545 S
H498   C635    1.088   .     S
N499   N501    1.285   .     D
N499   H500    1.028   .     S
N501   F502    1.335   .     S
N503   O505    1.301   .     A
N503   O504    1.300   .     A
O507   Zn513   1.954   .     S
O507   C417    1.278   1_655 S
O508   C509    1.289   .     A
O508   Zn514   1.979   .     S
C509   C541    1.403   .     S
O510   Zn513   1.956   .     S
O510   C420    1.290   1_655 S
O511   Zn514   1.922   .     S
O511   C512    1.299   .     A
C512   C537    1.450   .     S
Zn513  N547    2.021   .     S
Zn513  O517    1.922   .     S
Zn513  O515    1.979   .     S
Zn514  N545    2.021   .     S
Zn514  O518    1.956   .     S
Zn514  O516    1.954   .     S
O515   C519    1.289   .     A
O517   C520    1.299   .     A
C519   C543    1.403   .     S
C519   O424    1.278   1_655 S
C520   C525    1.448   .     S
C520   O426    1.291   1_655 S
C521   C536    1.395   .     A
H523   C533    1.084   .     S
H524   C107    1.084   1_556 S
C525   C536    1.401   .     A
C525   C535    1.384   .     A
C526   C537    1.401   .     A
C526   C113    1.384   1_556 S
C527   C528    1.396   .     A
C527   H540    1.083   .     S
C528   N549    1.431   .     S
C529   C530    1.406   .     A
C529   C114    1.428   1_556 S
C529   C117    1.413   1_556 S
C530   C537    1.407   .     A
C530   C534    1.419   .     A
C531   C535    1.390   .     A
C532   C533    1.392   .     A
C532   C107    1.404   1_556 S
C532   C117    1.418   1_556 S
C533   C534    1.390   .     A
C534   F552    1.357   .     S
C535   H538    1.081   .     S
C536   H430    1.083   1_655 S
H539   C434    1.084   1_655 S
C541   H680    1.088   .     S
C541   C635    1.338   .     S
H542   C817    1.088   1_545 S
C543   C725    1.338   1_645 S
C543   H820    1.088   1_545 S
H544   C681    1.088   .     S
N545   N547    1.285   .     D
N545   H546    1.028   .     S
N547   F548    1.335   .     S
N549   O551    1.301   .     A
N549   O550    1.300   .     A
O553   Zn559   1.954   .     S
O553   C601    1.278   .     S
O554   C555    1.289   .     A
O554   Zn560   1.979   .     S
C555   C587    1.403   .     S
C555   O645    1.278   1_455 S
O556   Zn559   1.956   .     S
O556   C604    1.290   .     S
O557   Zn560   1.922   .     S
O557   C558    1.299   .     A
C558   C583    1.450   .     S
C558   O648    1.290   1_455 S
Zn559  N593    2.021   .     S
Zn559  O563    1.922   .     S
Zn559  O561    1.979   .     S
Zn560  N591    2.021   .     S
Zn560  O564    1.956   .     S
Zn560  O562    1.954   .     S
O561   C565    1.289   .     A
O562   C657    1.278   1_455 S
O563   C566    1.299   .     A
O564   C658    1.291   1_455 S
C565   C589    1.403   .     S
C565   O608    1.278   .     S
C566   C571    1.448   .     S
C566   O610    1.291   .     S
C567   C582    1.395   .     A
H568   C674    1.083   1_455 S
H569   C579    1.084   .     S
H570   C153    1.084   1_556 S
C571   C582    1.401   .     A
C571   C581    1.384   .     A
C572   C583    1.401   .     A
C572   C159    1.384   1_556 S
C572   H677    1.084   1_455 S
C573   C574    1.396   .     A
C573   H586    1.083   .     S
C574   N595    1.431   .     S
C575   C576    1.406   .     A
C575   C160    1.428   1_556 S
C575   C163    1.413   1_556 S
C576   C583    1.407   .     A
C576   C580    1.419   .     A
C577   C581    1.390   .     A
C578   C579    1.392   .     A
C578   C153    1.404   1_556 S
C578   C163    1.418   1_556 S
C579   C580    1.390   .     A
C580   F598    1.357   .     S
C581   H584    1.081   .     S
C582   H614    1.083   .     S
H585   C618    1.084   .     S
C587   H726    1.088   .     S
C587   C819    1.338   1_455 S
H590   C727    1.088   .     S
N591   N593    1.285   .     D
N591   H592    1.028   .     S
N593   F594    1.335   .     S
N595   O597    1.301   .     A
N595   O596    1.300   .     A
O599   Zn605   1.954   .     S
O599   C647    1.278   .     S
O600   C601    1.289   .     A
O600   Zn606   1.979   .     S
C601   C633    1.403   .     S
O602   Zn605   1.956   .     S
O602   C650    1.290   .     S
O603   Zn606   1.922   .     S
O603   C604    1.299   .     A
C604   C629    1.450   .     S
Zn605  N639    2.021   .     S
Zn605  O609    1.922   .     S
Zn605  O607    1.979   .     S
Zn606  N637    2.021   .     S
Zn606  O610    1.956   .     S
Zn606  O608    1.954   .     S
O607   C611    1.289   .     A
O609   C612    1.299   .     A
C611   C635    1.403   .     S
C611   O654    1.278   .     S
C612   C617    1.448   .     S
C612   O656    1.291   .     S
C613   C628    1.395   .     A
H615   C625    1.084   .     S
H616   C199    1.084   1_556 S
C617   C628    1.401   .     A
C617   C627    1.384   .     A
C618   C629    1.401   .     A
C618   C205    1.384   1_556 S
C619   C620    1.396   .     A
C619   H632    1.083   .     S
C620   N641    1.431   .     S
C621   C622    1.406   .     A
C621   C206    1.428   1_556 S
C621   C209    1.413   1_556 S
C622   C629    1.407   .     A
C622   C626    1.419   .     A
C623   C627    1.390   .     A
C624   C625    1.392   .     A
C624   C199    1.404   1_556 S
C624   C209    1.418   1_556 S
C625   C626    1.390   .     A
C626   F644    1.357   .     S
C627   H630    1.081   .     S
C628   H660    1.083   .     S
H631   C664    1.084   .     S
C633   H772    1.088   .     S
C633   C727    1.338   .     S
H636   C773    1.088   .     S
N637   N639    1.285   .     D
N637   H638    1.028   .     S
N639   F640    1.335   .     S
N641   O643    1.301   .     A
N641   O642    1.300   .     A
O645   Zn651   1.954   .     S
O645   C555    1.278   1_655 S
O646   C647    1.289   .     A
O646   Zn652   1.979   .     S
C647   C679    1.403   .     S
O648   Zn651   1.956   .     S
O648   C558    1.290   1_655 S
O649   Zn652   1.922   .     S
O649   C650    1.299   .     A
C650   C675    1.450   .     S
Zn651  N685    2.021   .     S
Zn651  O655    1.922   .     S
Zn651  O653    1.979   .     S
Zn652  N683    2.021   .     S
Zn652  O656    1.956   .     S
Zn652  O654    1.954   .     S
O653   C657    1.289   .     A
O655   C658    1.299   .     A
C657   C681    1.403   .     S
C657   O562    1.278   1_655 S
C658   C663    1.448   .     S
C658   O564    1.291   1_655 S
C659   C674    1.395   .     A
H661   C671    1.084   .     S
H662   C245    1.084   1_556 S
C663   C674    1.401   .     A
C663   C673    1.384   .     A
C664   C675    1.401   .     A
C664   C251    1.384   1_556 S
C665   C666    1.396   .     A
C665   H678    1.083   .     S
C666   N687    1.431   .     S
C667   C668    1.406   .     A
C667   C252    1.428   1_556 S
C667   C255    1.413   1_556 S
C668   C675    1.407   .     A
C668   C672    1.419   .     A
C669   C673    1.390   .     A
C670   C671    1.392   .     A
C670   C245    1.404   1_556 S
C670   C255    1.418   1_556 S
C671   C672    1.390   .     A
C672   F690    1.357   .     S
C673   H676    1.081   .     S
C674   H568    1.083   1_655 S
H677   C572    1.084   1_655 S
C679   H818    1.088   .     S
C679   C773    1.338   .     S
C681   C449    1.338   1_655 S
H682   C819    1.088   .     S
N683   N685    1.285   .     D
N683   H684    1.028   .     S
N685   F686    1.335   .     S
N687   O689    1.301   .     A
N687   O688    1.300   .     A
O691   Zn697   1.954   .     S
O691   C739    1.278   .     S
O692   C693    1.289   .     A
O692   Zn698   1.979   .     S
C693   C725    1.403   .     S
C693   O783    1.278   1_455 S
O694   Zn697   1.956   .     S
O694   C742    1.290   .     S
O695   Zn698   1.922   .     S
O695   C696    1.299   .     A
C696   C721    1.450   .     S
C696   O786    1.290   1_455 S
Zn697  N731    2.021   .     S
Zn697  O701    1.922   .     S
Zn697  O699    1.979   .     S
Zn698  N729    2.021   .     S
Zn698  O702    1.956   .     S
Zn698  O700    1.954   .     S
O699   C703    1.289   .     A
O700   C795    1.278   1_455 S
O701   C704    1.299   .     A
O702   C796    1.291   1_455 S
C703   C727    1.403   .     S
C703   O746    1.278   .     S
C704   C709    1.448   .     S
C704   O748    1.291   .     S
C705   C720    1.395   .     A
H706   C812    1.083   1_455 S
H707   C717    1.084   .     S
H708   C291    1.084   1_556 S
C709   C720    1.401   .     A
C709   C719    1.384   .     A
C710   C721    1.401   .     A
C710   C297    1.384   1_556 S
C710   H815    1.084   1_455 S
C711   C712    1.396   .     A
C711   H724    1.083   .     S
C712   N733    1.431   .     S
C713   C714    1.406   .     A
C713   C298    1.428   1_556 S
C713   C301    1.413   1_556 S
C714   C721    1.407   .     A
C714   C718    1.419   .     A
C715   C719    1.390   .     A
C716   C717    1.392   .     A
C716   C291    1.404   1_556 S
C716   C301    1.418   1_556 S
C717   C718    1.390   .     A
C718   F736    1.357   .     S
C719   H722    1.081   .     S
C720   H752    1.083   .     S
H723   C756    1.084   .     S
C725   H450    1.088   1_565 S
C725   C543    1.338   1_465 S
H728   C451    1.088   1_565 S
N729   N731    1.285   .     D
N729   H730    1.028   .     S
N731   F732    1.335   .     S
N733   O735    1.301   .     A
N733   O734    1.300   .     A
O737   Zn743   1.954   .     S
O737   C785    1.278   .     S
O738   C739    1.289   .     A
O738   Zn744   1.979   .     S
C739   C771    1.403   .     S
O740   Zn743   1.956   .     S
O740   C788    1.290   .     S
O741   Zn744   1.922   .     S
O741   C742    1.299   .     A
C742   C767    1.450   .     S
Zn743  N777    2.021   .     S
Zn743  O747    1.922   .     S
Zn743  O745    1.979   .     S
Zn744  N775    2.021   .     S
Zn744  O748    1.956   .     S
Zn744  O746    1.954   .     S
O745   C749    1.289   .     A
O747   C750    1.299   .     A
C749   C773    1.403   .     S
C749   O792    1.278   .     S
C750   C755    1.448   .     S
C750   O794    1.291   .     S
C751   C766    1.395   .     A
H753   C763    1.084   .     S
H754   C337    1.084   1_556 S
C755   C766    1.401   .     A
C755   C765    1.384   .     A
C756   C767    1.401   .     A
C756   C343    1.384   1_556 S
C757   C758    1.396   .     A
C757   H770    1.083   .     S
C758   N779    1.431   .     S
C759   C760    1.406   .     A
C759   C344    1.428   1_556 S
C759   C347    1.413   1_556 S
C760   C767    1.407   .     A
C760   C764    1.419   .     A
C761   C765    1.390   .     A
C762   C763    1.392   .     A
C762   C337    1.404   1_556 S
C762   C347    1.418   1_556 S
C763   C764    1.390   .     A
C764   F782    1.357   .     S
C765   H768    1.081   .     S
C766   H798    1.083   .     S
H769   C802    1.084   .     S
C771   H496    1.088   1_565 S
C771   C451    1.338   1_565 S
H774   C497    1.088   1_565 S
N775   N777    1.285   .     D
N775   H776    1.028   .     S
N777   F778    1.335   .     S
N779   O781    1.301   .     A
N779   O780    1.300   .     A
O783   Zn789   1.954   .     S
O783   C693    1.278   1_655 S
O784   C785    1.289   .     A
O784   Zn790   1.979   .     S
C785   C817    1.403   .     S
O786   Zn789   1.956   .     S
O786   C696    1.290   1_655 S
O787   Zn790   1.922   .     S
O787   C788    1.299   .     A
C788   C813    1.450   .     S
Zn789  N823    2.021   .     S
Zn789  O793    1.922   .     S
Zn789  O791    1.979   .     S
Zn790  N821    2.021   .     S
Zn790  O794    1.956   .     S
Zn790  O792    1.954   .     S
O791   C795    1.289   .     A
O793   C796    1.299   .     A
C795   C819    1.403   .     S
C795   O700    1.278   1_655 S
C796   C801    1.448   .     S
C796   O702    1.291   1_655 S
C797   C812    1.395   .     A
H799   C809    1.084   .     S
H800   C383    1.084   1_556 S
C801   C812    1.401   .     A
C801   C811    1.384   .     A
C802   C813    1.401   .     A
C802   C389    1.384   1_556 S
C803   C804    1.396   .     A
C803   H816    1.083   .     S
C804   N825    1.431   .     S
C805   C806    1.406   .     A
C805   C390    1.428   1_556 S
C805   C393    1.413   1_556 S
C806   C813    1.407   .     A
C806   C810    1.419   .     A
C807   C811    1.390   .     A
C808   C809    1.392   .     A
C808   C383    1.404   1_556 S
C808   C393    1.418   1_556 S
C809   C810    1.390   .     A
C810   F828    1.357   .     S
C811   H814    1.081   .     S
C812   H706    1.083   1_655 S
H815   C710    1.084   1_655 S
C817   H542    1.088   1_565 S
C817   C497    1.338   1_565 S
C819   C587    1.338   1_655 S
H820   C543    1.088   1_565 S
N821   N823    1.285   .     D
N821   H822    1.028   .     S
N823   F824    1.335   .     S
N825   O827    1.301   .     A
N825   O826    1.300   .     A
