data_str_m3_o1_o16_pcu_sym.179
_audit_creation_date              2020-01-03
_audit_creation_method            'Materials Studio'
_symmetry_space_group_name_H-M    'P1'
_symmetry_Int_Tables_number       1
_symmetry_cell_setting            triclinic
loop_
_symmetry_equiv_pos_as_xyz
  x,y,z
_cell_length_a                    29.5641
_cell_length_b                    32.1473
_cell_length_c                    26.1410
_cell_angle_alpha                 90.0504
_cell_angle_beta                  71.6955
_cell_angle_gamma                 90.0084
loop_
_atom_site_label
_atom_site_type_symbol
_atom_site_fract_x
_atom_site_fract_y
_atom_site_fract_z
_atom_site_U_iso_or_equiv
_atom_site_adp_type
_atom_site_occupancy
C1     C     0.16668   0.24670   0.25001   0.00000  Uiso   1.00
C2     C     0.15074   0.20104   0.48646   0.00000  Uiso   1.00
C3     C     0.16440   0.19935   0.43008   0.00000  Uiso   1.00
C4     C     0.18574   0.19219   0.01149   0.00000  Uiso   1.00
C5     C     0.23433   0.18837   0.47987   0.00000  Uiso   1.00
C6     C     0.24794   0.19799   0.42534   0.00000  Uiso   1.00
C7     C     0.21319   0.20475   0.40100   0.00000  Uiso   1.00
C8     C     0.17328   0.18373   0.06628   0.00000  Uiso   1.00
C9     C     0.25531   0.16750   0.05830   0.00000  Uiso   1.00
C10    C     0.12877   0.19202   0.40527   0.00000  Uiso   1.00
C11    C     0.20350   0.31203   0.26176   0.00000  Uiso   1.00
C12    C     0.14150   0.17419   0.35046   0.00000  Uiso   1.00
C13    C     0.20351   0.02132   0.26171   0.00000  Uiso   1.00
C14    C     0.16661   0.04248   0.25013   0.00000  Uiso   1.00
C15    C     0.12969   0.02128   0.23865   0.00000  Uiso   1.00
C16    C     0.12969   0.31199   0.23866   0.00000  Uiso   1.00
C17    C     0.16663   0.29084   0.25016   0.00000  Uiso   1.00
C18    C     0.31368   0.13213   0.23452   0.00000  Uiso   1.00
C19    C     0.02828   0.13218   0.23440   0.00000  Uiso   1.00
C20    C     0.01971   0.20123   0.26531   0.00000  Uiso   1.00
C21    C     0.30529   0.20131   0.26491   0.00000  Uiso   1.00
C22    C     0.16664   0.08664   0.25004   0.00000  Uiso   1.00
C23    C     0.19260   0.16694   0.14797   0.00000  Uiso   1.00
C24    C     0.26847   0.17518   0.00323   0.00000  Uiso   1.00
C25    C     0.20769   0.17216   0.08987   0.00000  Uiso   1.00
C26    C     0.08139   0.20229   0.43372   0.00000  Uiso   1.00
C27    C     0.06927   0.21545   0.48758   0.00000  Uiso   1.00
C28    C     0.10300   0.21151   0.01485   0.00000  Uiso   1.00
H29    H     0.28219   0.15803   0.07610   0.00000  Uiso   1.00
H30    H     0.23207   0.03758   0.27105   0.00000  Uiso   1.00
H31    H     0.10114   0.03748   0.22929   0.00000  Uiso   1.00
H32    H     0.10114   0.29574   0.22930   0.00000  Uiso   1.00
H33    H     0.29917   0.10449   0.22197   0.00000  Uiso   1.00
H34    H     0.04980   0.10459   0.22171   0.00000  Uiso   1.00
H35    H     0.03426   0.22891   0.27773   0.00000  Uiso   1.00
H36    H     0.28419   0.22923   0.27649   0.00000  Uiso   1.00
H37    H     0.28521   0.19913   0.40127   0.00000  Uiso   1.00
H38    H     0.30525   0.17079   0.47885   0.00000  Uiso   1.00
H39    H     0.13648   0.18502   0.09103   0.00000  Uiso   1.00
H40    H     0.05434   0.20106   0.41378   0.00000  Uiso   1.00
H41    H     0.09237   0.21964   0.05706   0.00000  Uiso   1.00
H42    H     0.22500   0.21449   0.35949   0.00000  Uiso   1.00
H43    H     0.23203   0.29581   0.27116   0.00000  Uiso   1.00
N44    N     0.04760   0.16668   0.25001   0.00000  Uiso   1.00
N45    N     0.28573   0.16665   0.25000   0.00000  Uiso   1.00
O46    O     0.12846   0.22775   0.25000   0.00000  Uiso   1.00
O47    O     0.20490   0.22774   0.25000   0.00000  Uiso   1.00
O48    O     0.10947   0.16666   0.32681   0.00000  Uiso   1.00
O49    O     0.18591   0.16665   0.32681   0.00000  Uiso   1.00
O50    O     0.12843   0.10559   0.24999   0.00000  Uiso   1.00
O51    O     0.20488   0.10558   0.24999   0.00000  Uiso   1.00
O52    O     0.14742   0.16668   0.17319   0.00000  Uiso   1.00
O53    O     0.22387   0.16667   0.17319   0.00000  Uiso   1.00
Zn54   Zn    0.11562   0.16667   0.25000   0.00000  Uiso   1.00
Zn55   Zn    0.21771   0.16666   0.25000   0.00000  Uiso   1.00
C56    C     0.02209   0.23403   0.01520   0.00000  Uiso   1.00
O57    O     0.33210   0.24939   0.48879   0.00000  Uiso   1.00
O58    O     0.00478   0.23528   0.07151   0.00000  Uiso   1.00
H59    H     0.30559   0.24887   0.08552   0.00000  Uiso   1.00
C60    C     0.50001   0.24670   0.25001   0.00000  Uiso   1.00
C61    C     0.48407   0.20104   0.48646   0.00000  Uiso   1.00
C62    C     0.49773   0.19935   0.43008   0.00000  Uiso   1.00
C63    C     0.51907   0.19219   0.01149   0.00000  Uiso   1.00
C64    C     0.56766   0.18837   0.47987   0.00000  Uiso   1.00
C65    C     0.58127   0.19799   0.42534   0.00000  Uiso   1.00
C66    C     0.54653   0.20475   0.40100   0.00000  Uiso   1.00
C67    C     0.50661   0.18373   0.06628   0.00000  Uiso   1.00
C68    C     0.58865   0.16750   0.05830   0.00000  Uiso   1.00
C69    C     0.46210   0.19202   0.40527   0.00000  Uiso   1.00
C70    C     0.53684   0.31203   0.26176   0.00000  Uiso   1.00
C71    C     0.47483   0.17419   0.35046   0.00000  Uiso   1.00
C72    C     0.53685   0.02132   0.26171   0.00000  Uiso   1.00
C73    C     0.49995   0.04248   0.25013   0.00000  Uiso   1.00
C74    C     0.46302   0.02128   0.23865   0.00000  Uiso   1.00
C75    C     0.46303   0.31199   0.23866   0.00000  Uiso   1.00
C76    C     0.49996   0.29084   0.25016   0.00000  Uiso   1.00
C77    C     0.64702   0.13213   0.23452   0.00000  Uiso   1.00
C78    C     0.36161   0.13218   0.23440   0.00000  Uiso   1.00
C79    C     0.35305   0.20123   0.26531   0.00000  Uiso   1.00
C80    C     0.63863   0.20131   0.26491   0.00000  Uiso   1.00
C81    C     0.49997   0.08664   0.25004   0.00000  Uiso   1.00
C82    C     0.52594   0.16694   0.14797   0.00000  Uiso   1.00
C83    C     0.60181   0.17518   0.00323   0.00000  Uiso   1.00
C84    C     0.54102   0.17216   0.08987   0.00000  Uiso   1.00
C85    C     0.41472   0.20229   0.43372   0.00000  Uiso   1.00
C86    C     0.40260   0.21545   0.48758   0.00000  Uiso   1.00
C87    C     0.43633   0.21151   0.01485   0.00000  Uiso   1.00
H88    H     0.61552   0.15803   0.07610   0.00000  Uiso   1.00
H89    H     0.56540   0.03758   0.27105   0.00000  Uiso   1.00
H90    H     0.43447   0.03748   0.22929   0.00000  Uiso   1.00
H91    H     0.43448   0.29574   0.22930   0.00000  Uiso   1.00
H92    H     0.63250   0.10449   0.22197   0.00000  Uiso   1.00
H93    H     0.38313   0.10459   0.22171   0.00000  Uiso   1.00
H94    H     0.36759   0.22891   0.27773   0.00000  Uiso   1.00
H95    H     0.61753   0.22923   0.27649   0.00000  Uiso   1.00
H96    H     0.61854   0.19913   0.40127   0.00000  Uiso   1.00
H97    H     0.63859   0.17079   0.47885   0.00000  Uiso   1.00
H98    H     0.46981   0.18502   0.09103   0.00000  Uiso   1.00
H99    H     0.38768   0.20106   0.41378   0.00000  Uiso   1.00
H100   H     0.42571   0.21964   0.05706   0.00000  Uiso   1.00
H101   H     0.55834   0.21449   0.35949   0.00000  Uiso   1.00
H102   H     0.56536   0.29581   0.27116   0.00000  Uiso   1.00
N103   N     0.38093   0.16668   0.25001   0.00000  Uiso   1.00
N104   N     0.61906   0.16665   0.25000   0.00000  Uiso   1.00
O105   O     0.46179   0.22775   0.25000   0.00000  Uiso   1.00
O106   O     0.53823   0.22774   0.25000   0.00000  Uiso   1.00
O107   O     0.44280   0.16666   0.32681   0.00000  Uiso   1.00
O108   O     0.51924   0.16665   0.32681   0.00000  Uiso   1.00
O109   O     0.46177   0.10559   0.24999   0.00000  Uiso   1.00
O110   O     0.53821   0.10558   0.24999   0.00000  Uiso   1.00
O111   O     0.48076   0.16668   0.17319   0.00000  Uiso   1.00
O112   O     0.55720   0.16667   0.17319   0.00000  Uiso   1.00
Zn113  Zn    0.44896   0.16667   0.25000   0.00000  Uiso   1.00
Zn114  Zn    0.55104   0.16666   0.25000   0.00000  Uiso   1.00
C115   C     0.35543   0.23403   0.01520   0.00000  Uiso   1.00
O116   O     0.66543   0.24939   0.48879   0.00000  Uiso   1.00
O117   O     0.33812   0.23528   0.07151   0.00000  Uiso   1.00
H118   H     0.63893   0.24887   0.08552   0.00000  Uiso   1.00
C119   C     0.83335   0.24670   0.25001   0.00000  Uiso   1.00
C120   C     0.81741   0.20104   0.48646   0.00000  Uiso   1.00
C121   C     0.83107   0.19935   0.43008   0.00000  Uiso   1.00
C122   C     0.85241   0.19219   0.01149   0.00000  Uiso   1.00
C123   C     0.90099   0.18837   0.47987   0.00000  Uiso   1.00
C124   C     0.91461   0.19799   0.42534   0.00000  Uiso   1.00
C125   C     0.87986   0.20475   0.40100   0.00000  Uiso   1.00
C126   C     0.83995   0.18373   0.06628   0.00000  Uiso   1.00
C127   C     0.92198   0.16750   0.05830   0.00000  Uiso   1.00
C128   C     0.79543   0.19202   0.40527   0.00000  Uiso   1.00
C129   C     0.87017   0.31203   0.26176   0.00000  Uiso   1.00
C130   C     0.80817   0.17419   0.35046   0.00000  Uiso   1.00
C131   C     0.87018   0.02132   0.26171   0.00000  Uiso   1.00
C132   C     0.83328   0.04248   0.25013   0.00000  Uiso   1.00
C133   C     0.79635   0.02128   0.23865   0.00000  Uiso   1.00
C134   C     0.79636   0.31199   0.23866   0.00000  Uiso   1.00
C135   C     0.83329   0.29084   0.25016   0.00000  Uiso   1.00
C136   C     0.98035   0.13213   0.23452   0.00000  Uiso   1.00
C137   C     0.69494   0.13218   0.23440   0.00000  Uiso   1.00
C138   C     0.68638   0.20123   0.26531   0.00000  Uiso   1.00
C139   C     0.97196   0.20131   0.26491   0.00000  Uiso   1.00
C140   C     0.83331   0.08664   0.25004   0.00000  Uiso   1.00
C141   C     0.85927   0.16694   0.14797   0.00000  Uiso   1.00
C142   C     0.93514   0.17518   0.00323   0.00000  Uiso   1.00
C143   C     0.87436   0.17216   0.08987   0.00000  Uiso   1.00
C144   C     0.74805   0.20229   0.43372   0.00000  Uiso   1.00
C145   C     0.73593   0.21545   0.48758   0.00000  Uiso   1.00
C146   C     0.76967   0.21151   0.01485   0.00000  Uiso   1.00
H147   H     0.94885   0.15803   0.07610   0.00000  Uiso   1.00
H148   H     0.89873   0.03758   0.27105   0.00000  Uiso   1.00
H149   H     0.76780   0.03748   0.22929   0.00000  Uiso   1.00
H150   H     0.76781   0.29574   0.22930   0.00000  Uiso   1.00
H151   H     0.96584   0.10449   0.22197   0.00000  Uiso   1.00
H152   H     0.71646   0.10459   0.22171   0.00000  Uiso   1.00
H153   H     0.70092   0.22891   0.27773   0.00000  Uiso   1.00
H154   H     0.95086   0.22923   0.27649   0.00000  Uiso   1.00
H155   H     0.95187   0.19913   0.40127   0.00000  Uiso   1.00
H156   H     0.97192   0.17079   0.47885   0.00000  Uiso   1.00
H157   H     0.80315   0.18502   0.09103   0.00000  Uiso   1.00
H158   H     0.72101   0.20106   0.41378   0.00000  Uiso   1.00
H159   H     0.75904   0.21964   0.05706   0.00000  Uiso   1.00
H160   H     0.89167   0.21449   0.35949   0.00000  Uiso   1.00
H161   H     0.89869   0.29581   0.27116   0.00000  Uiso   1.00
N162   N     0.71426   0.16668   0.25001   0.00000  Uiso   1.00
N163   N     0.95239   0.16665   0.25000   0.00000  Uiso   1.00
O164   O     0.79512   0.22775   0.25000   0.00000  Uiso   1.00
O165   O     0.87157   0.22774   0.25000   0.00000  Uiso   1.00
O166   O     0.77613   0.16666   0.32681   0.00000  Uiso   1.00
O167   O     0.85258   0.16665   0.32681   0.00000  Uiso   1.00
O168   O     0.79510   0.10559   0.24999   0.00000  Uiso   1.00
O169   O     0.87154   0.10558   0.24999   0.00000  Uiso   1.00
O170   O     0.81409   0.16668   0.17319   0.00000  Uiso   1.00
O171   O     0.89053   0.16667   0.17319   0.00000  Uiso   1.00
Zn172  Zn    0.78229   0.16667   0.25000   0.00000  Uiso   1.00
Zn173  Zn    0.88438   0.16666   0.25000   0.00000  Uiso   1.00
C174   C     0.68876   0.23403   0.01520   0.00000  Uiso   1.00
O175   O     0.99876   0.24939   0.48879   0.00000  Uiso   1.00
O176   O     0.67145   0.23528   0.07151   0.00000  Uiso   1.00
H177   H     0.97226   0.24887   0.08552   0.00000  Uiso   1.00
C178   C     0.16668   0.58003   0.25001   0.00000  Uiso   1.00
C179   C     0.15074   0.53437   0.48646   0.00000  Uiso   1.00
C180   C     0.16440   0.53268   0.43008   0.00000  Uiso   1.00
C181   C     0.18574   0.52553   0.01149   0.00000  Uiso   1.00
C182   C     0.23433   0.52170   0.47987   0.00000  Uiso   1.00
C183   C     0.24794   0.53132   0.42534   0.00000  Uiso   1.00
C184   C     0.21319   0.53809   0.40100   0.00000  Uiso   1.00
C185   C     0.17328   0.51707   0.06628   0.00000  Uiso   1.00
C186   C     0.25531   0.50083   0.05830   0.00000  Uiso   1.00
C187   C     0.12877   0.52536   0.40527   0.00000  Uiso   1.00
C188   C     0.20350   0.64536   0.26176   0.00000  Uiso   1.00
C189   C     0.14150   0.50752   0.35046   0.00000  Uiso   1.00
C190   C     0.20351   0.35465   0.26171   0.00000  Uiso   1.00
C191   C     0.16661   0.37581   0.25013   0.00000  Uiso   1.00
C192   C     0.12969   0.35461   0.23865   0.00000  Uiso   1.00
C193   C     0.12969   0.64533   0.23866   0.00000  Uiso   1.00
C194   C     0.16663   0.62417   0.25016   0.00000  Uiso   1.00
C195   C     0.31368   0.46546   0.23452   0.00000  Uiso   1.00
C196   C     0.02828   0.46551   0.23440   0.00000  Uiso   1.00
C197   C     0.01971   0.53457   0.26531   0.00000  Uiso   1.00
C198   C     0.30529   0.53465   0.26491   0.00000  Uiso   1.00
C199   C     0.16664   0.41997   0.25004   0.00000  Uiso   1.00
C200   C     0.19260   0.50028   0.14797   0.00000  Uiso   1.00
C201   C     0.26847   0.50851   0.00323   0.00000  Uiso   1.00
C202   C     0.20769   0.50549   0.08987   0.00000  Uiso   1.00
C203   C     0.08139   0.53563   0.43372   0.00000  Uiso   1.00
C204   C     0.06927   0.54878   0.48758   0.00000  Uiso   1.00
C205   C     0.10300   0.54484   0.01485   0.00000  Uiso   1.00
H206   H     0.28219   0.49137   0.07610   0.00000  Uiso   1.00
H207   H     0.23207   0.37091   0.27105   0.00000  Uiso   1.00
H208   H     0.10114   0.37082   0.22929   0.00000  Uiso   1.00
H209   H     0.10114   0.62907   0.22930   0.00000  Uiso   1.00
H210   H     0.29917   0.43782   0.22197   0.00000  Uiso   1.00
H211   H     0.04980   0.43793   0.22171   0.00000  Uiso   1.00
H212   H     0.03426   0.56225   0.27773   0.00000  Uiso   1.00
H213   H     0.28419   0.56256   0.27649   0.00000  Uiso   1.00
H214   H     0.28521   0.53246   0.40127   0.00000  Uiso   1.00
H215   H     0.30525   0.50412   0.47885   0.00000  Uiso   1.00
H216   H     0.13648   0.51835   0.09103   0.00000  Uiso   1.00
H217   H     0.05434   0.53439   0.41378   0.00000  Uiso   1.00
H218   H     0.09237   0.55297   0.05706   0.00000  Uiso   1.00
H219   H     0.22500   0.54783   0.35949   0.00000  Uiso   1.00
H220   H     0.23203   0.62914   0.27116   0.00000  Uiso   1.00
N221   N     0.04760   0.50001   0.25001   0.00000  Uiso   1.00
N222   N     0.28573   0.49998   0.25000   0.00000  Uiso   1.00
O223   O     0.12846   0.56108   0.25000   0.00000  Uiso   1.00
O224   O     0.20490   0.56107   0.25000   0.00000  Uiso   1.00
O225   O     0.10947   0.50000   0.32681   0.00000  Uiso   1.00
O226   O     0.18591   0.49999   0.32681   0.00000  Uiso   1.00
O227   O     0.12843   0.43893   0.24999   0.00000  Uiso   1.00
O228   O     0.20488   0.43892   0.24999   0.00000  Uiso   1.00
O229   O     0.14742   0.50001   0.17319   0.00000  Uiso   1.00
O230   O     0.22387   0.50000   0.17319   0.00000  Uiso   1.00
Zn231  Zn    0.11562   0.50001   0.25000   0.00000  Uiso   1.00
Zn232  Zn    0.21771   0.49999   0.25000   0.00000  Uiso   1.00
C233   C     0.02209   0.56737   0.01520   0.00000  Uiso   1.00
O234   O     0.33210   0.58272   0.48879   0.00000  Uiso   1.00
O235   O     0.00478   0.56861   0.07151   0.00000  Uiso   1.00
H236   H     0.30559   0.58220   0.08552   0.00000  Uiso   1.00
C237   C     0.50001   0.58003   0.25001   0.00000  Uiso   1.00
C238   C     0.48407   0.53437   0.48646   0.00000  Uiso   1.00
C239   C     0.49773   0.53268   0.43008   0.00000  Uiso   1.00
C240   C     0.51907   0.52553   0.01149   0.00000  Uiso   1.00
C241   C     0.56766   0.52170   0.47987   0.00000  Uiso   1.00
C242   C     0.58127   0.53132   0.42534   0.00000  Uiso   1.00
C243   C     0.54653   0.53809   0.40100   0.00000  Uiso   1.00
C244   C     0.50661   0.51707   0.06628   0.00000  Uiso   1.00
C245   C     0.58865   0.50083   0.05830   0.00000  Uiso   1.00
C246   C     0.46210   0.52536   0.40527   0.00000  Uiso   1.00
C247   C     0.53684   0.64536   0.26176   0.00000  Uiso   1.00
C248   C     0.47483   0.50752   0.35046   0.00000  Uiso   1.00
C249   C     0.53685   0.35465   0.26171   0.00000  Uiso   1.00
C250   C     0.49995   0.37581   0.25013   0.00000  Uiso   1.00
C251   C     0.46302   0.35461   0.23865   0.00000  Uiso   1.00
C252   C     0.46303   0.64533   0.23866   0.00000  Uiso   1.00
C253   C     0.49996   0.62417   0.25016   0.00000  Uiso   1.00
C254   C     0.64702   0.46546   0.23452   0.00000  Uiso   1.00
C255   C     0.36161   0.46551   0.23440   0.00000  Uiso   1.00
C256   C     0.35305   0.53457   0.26531   0.00000  Uiso   1.00
C257   C     0.63863   0.53465   0.26491   0.00000  Uiso   1.00
C258   C     0.49997   0.41997   0.25004   0.00000  Uiso   1.00
C259   C     0.52594   0.50028   0.14797   0.00000  Uiso   1.00
C260   C     0.60181   0.50851   0.00323   0.00000  Uiso   1.00
C261   C     0.54102   0.50549   0.08987   0.00000  Uiso   1.00
C262   C     0.41472   0.53563   0.43372   0.00000  Uiso   1.00
C263   C     0.40260   0.54878   0.48758   0.00000  Uiso   1.00
C264   C     0.43633   0.54484   0.01485   0.00000  Uiso   1.00
H265   H     0.61552   0.49137   0.07610   0.00000  Uiso   1.00
H266   H     0.56540   0.37091   0.27105   0.00000  Uiso   1.00
H267   H     0.43447   0.37082   0.22929   0.00000  Uiso   1.00
H268   H     0.43448   0.62907   0.22930   0.00000  Uiso   1.00
H269   H     0.63250   0.43782   0.22197   0.00000  Uiso   1.00
H270   H     0.38313   0.43793   0.22171   0.00000  Uiso   1.00
H271   H     0.36759   0.56225   0.27773   0.00000  Uiso   1.00
H272   H     0.61753   0.56256   0.27649   0.00000  Uiso   1.00
H273   H     0.61854   0.53246   0.40127   0.00000  Uiso   1.00
H274   H     0.63859   0.50412   0.47885   0.00000  Uiso   1.00
H275   H     0.46981   0.51835   0.09103   0.00000  Uiso   1.00
H276   H     0.38768   0.53439   0.41378   0.00000  Uiso   1.00
H277   H     0.42571   0.55297   0.05706   0.00000  Uiso   1.00
H278   H     0.55834   0.54783   0.35949   0.00000  Uiso   1.00
H279   H     0.56536   0.62914   0.27116   0.00000  Uiso   1.00
N280   N     0.38093   0.50001   0.25001   0.00000  Uiso   1.00
N281   N     0.61906   0.49998   0.25000   0.00000  Uiso   1.00
O282   O     0.46179   0.56108   0.25000   0.00000  Uiso   1.00
O283   O     0.53823   0.56107   0.25000   0.00000  Uiso   1.00
O284   O     0.44280   0.50000   0.32681   0.00000  Uiso   1.00
O285   O     0.51924   0.49999   0.32681   0.00000  Uiso   1.00
O286   O     0.46177   0.43893   0.24999   0.00000  Uiso   1.00
O287   O     0.53821   0.43892   0.24999   0.00000  Uiso   1.00
O288   O     0.48076   0.50001   0.17319   0.00000  Uiso   1.00
O289   O     0.55720   0.50000   0.17319   0.00000  Uiso   1.00
Zn290  Zn    0.44896   0.50001   0.25000   0.00000  Uiso   1.00
Zn291  Zn    0.55104   0.49999   0.25000   0.00000  Uiso   1.00
C292   C     0.35543   0.56737   0.01520   0.00000  Uiso   1.00
O293   O     0.66543   0.58272   0.48879   0.00000  Uiso   1.00
O294   O     0.33812   0.56861   0.07151   0.00000  Uiso   1.00
H295   H     0.63893   0.58220   0.08552   0.00000  Uiso   1.00
C296   C     0.83335   0.58003   0.25001   0.00000  Uiso   1.00
C297   C     0.81741   0.53437   0.48646   0.00000  Uiso   1.00
C298   C     0.83107   0.53268   0.43008   0.00000  Uiso   1.00
C299   C     0.85241   0.52553   0.01149   0.00000  Uiso   1.00
C300   C     0.90099   0.52170   0.47987   0.00000  Uiso   1.00
C301   C     0.91461   0.53132   0.42534   0.00000  Uiso   1.00
C302   C     0.87986   0.53809   0.40100   0.00000  Uiso   1.00
C303   C     0.83995   0.51707   0.06628   0.00000  Uiso   1.00
C304   C     0.92198   0.50083   0.05830   0.00000  Uiso   1.00
C305   C     0.79543   0.52536   0.40527   0.00000  Uiso   1.00
C306   C     0.87017   0.64536   0.26176   0.00000  Uiso   1.00
C307   C     0.80817   0.50752   0.35046   0.00000  Uiso   1.00
C308   C     0.87018   0.35465   0.26171   0.00000  Uiso   1.00
C309   C     0.83328   0.37581   0.25013   0.00000  Uiso   1.00
C310   C     0.79635   0.35461   0.23865   0.00000  Uiso   1.00
C311   C     0.79636   0.64533   0.23866   0.00000  Uiso   1.00
C312   C     0.83329   0.62417   0.25016   0.00000  Uiso   1.00
C313   C     0.98035   0.46546   0.23452   0.00000  Uiso   1.00
C314   C     0.69494   0.46551   0.23440   0.00000  Uiso   1.00
C315   C     0.68638   0.53457   0.26531   0.00000  Uiso   1.00
C316   C     0.97196   0.53465   0.26491   0.00000  Uiso   1.00
C317   C     0.83331   0.41997   0.25004   0.00000  Uiso   1.00
C318   C     0.85927   0.50028   0.14797   0.00000  Uiso   1.00
C319   C     0.93514   0.50851   0.00323   0.00000  Uiso   1.00
C320   C     0.87436   0.50549   0.08987   0.00000  Uiso   1.00
C321   C     0.74805   0.53563   0.43372   0.00000  Uiso   1.00
C322   C     0.73593   0.54878   0.48758   0.00000  Uiso   1.00
C323   C     0.76967   0.54484   0.01485   0.00000  Uiso   1.00
H324   H     0.94885   0.49137   0.07610   0.00000  Uiso   1.00
H325   H     0.89873   0.37091   0.27105   0.00000  Uiso   1.00
H326   H     0.76780   0.37082   0.22929   0.00000  Uiso   1.00
H327   H     0.76781   0.62907   0.22930   0.00000  Uiso   1.00
H328   H     0.96584   0.43782   0.22197   0.00000  Uiso   1.00
H329   H     0.71646   0.43793   0.22171   0.00000  Uiso   1.00
H330   H     0.70092   0.56225   0.27773   0.00000  Uiso   1.00
H331   H     0.95086   0.56256   0.27649   0.00000  Uiso   1.00
H332   H     0.95187   0.53246   0.40127   0.00000  Uiso   1.00
H333   H     0.97192   0.50412   0.47885   0.00000  Uiso   1.00
H334   H     0.80315   0.51835   0.09103   0.00000  Uiso   1.00
H335   H     0.72101   0.53439   0.41378   0.00000  Uiso   1.00
H336   H     0.75904   0.55297   0.05706   0.00000  Uiso   1.00
H337   H     0.89167   0.54783   0.35949   0.00000  Uiso   1.00
H338   H     0.89869   0.62914   0.27116   0.00000  Uiso   1.00
N339   N     0.71426   0.50001   0.25001   0.00000  Uiso   1.00
N340   N     0.95239   0.49998   0.25000   0.00000  Uiso   1.00
O341   O     0.79512   0.56108   0.25000   0.00000  Uiso   1.00
O342   O     0.87157   0.56107   0.25000   0.00000  Uiso   1.00
O343   O     0.77613   0.50000   0.32681   0.00000  Uiso   1.00
O344   O     0.85258   0.49999   0.32681   0.00000  Uiso   1.00
O345   O     0.79510   0.43893   0.24999   0.00000  Uiso   1.00
O346   O     0.87154   0.43892   0.24999   0.00000  Uiso   1.00
O347   O     0.81409   0.50001   0.17319   0.00000  Uiso   1.00
O348   O     0.89053   0.50000   0.17319   0.00000  Uiso   1.00
Zn349  Zn    0.78229   0.50001   0.25000   0.00000  Uiso   1.00
Zn350  Zn    0.88438   0.49999   0.25000   0.00000  Uiso   1.00
C351   C     0.68876   0.56737   0.01520   0.00000  Uiso   1.00
O352   O     0.99876   0.58272   0.48879   0.00000  Uiso   1.00
O353   O     0.67145   0.56861   0.07151   0.00000  Uiso   1.00
H354   H     0.97226   0.58220   0.08552   0.00000  Uiso   1.00
C355   C     0.16668   0.91336   0.25001   0.00000  Uiso   1.00
C356   C     0.15074   0.86771   0.48646   0.00000  Uiso   1.00
C357   C     0.16440   0.86602   0.43008   0.00000  Uiso   1.00
C358   C     0.18574   0.85886   0.01149   0.00000  Uiso   1.00
C359   C     0.23433   0.85504   0.47987   0.00000  Uiso   1.00
C360   C     0.24794   0.86466   0.42534   0.00000  Uiso   1.00
C361   C     0.21319   0.87142   0.40100   0.00000  Uiso   1.00
C362   C     0.17328   0.85040   0.06628   0.00000  Uiso   1.00
C363   C     0.25531   0.83416   0.05830   0.00000  Uiso   1.00
C364   C     0.12877   0.85869   0.40527   0.00000  Uiso   1.00
C365   C     0.20350   0.97870   0.26176   0.00000  Uiso   1.00
C366   C     0.14150   0.84085   0.35046   0.00000  Uiso   1.00
C367   C     0.20351   0.68799   0.26171   0.00000  Uiso   1.00
C368   C     0.16661   0.70914   0.25013   0.00000  Uiso   1.00
C369   C     0.12969   0.68794   0.23865   0.00000  Uiso   1.00
C370   C     0.12969   0.97866   0.23866   0.00000  Uiso   1.00
C371   C     0.16663   0.95751   0.25016   0.00000  Uiso   1.00
C372   C     0.31368   0.79880   0.23452   0.00000  Uiso   1.00
C373   C     0.02828   0.79885   0.23440   0.00000  Uiso   1.00
C374   C     0.01971   0.86790   0.26531   0.00000  Uiso   1.00
C375   C     0.30529   0.86798   0.26491   0.00000  Uiso   1.00
C376   C     0.16664   0.75330   0.25004   0.00000  Uiso   1.00
C377   C     0.19260   0.83361   0.14797   0.00000  Uiso   1.00
C378   C     0.26847   0.84185   0.00323   0.00000  Uiso   1.00
C379   C     0.20769   0.83883   0.08987   0.00000  Uiso   1.00
C380   C     0.08139   0.86896   0.43372   0.00000  Uiso   1.00
C381   C     0.06927   0.88212   0.48758   0.00000  Uiso   1.00
C382   C     0.10300   0.87817   0.01485   0.00000  Uiso   1.00
H383   H     0.28219   0.82470   0.07610   0.00000  Uiso   1.00
H384   H     0.23207   0.70424   0.27105   0.00000  Uiso   1.00
H385   H     0.10114   0.70415   0.22929   0.00000  Uiso   1.00
H386   H     0.10114   0.96241   0.22930   0.00000  Uiso   1.00
H387   H     0.29917   0.77116   0.22197   0.00000  Uiso   1.00
H388   H     0.04980   0.77126   0.22171   0.00000  Uiso   1.00
H389   H     0.03426   0.89558   0.27773   0.00000  Uiso   1.00
H390   H     0.28419   0.89589   0.27649   0.00000  Uiso   1.00
H391   H     0.28521   0.86580   0.40127   0.00000  Uiso   1.00
H392   H     0.30525   0.83745   0.47885   0.00000  Uiso   1.00
H393   H     0.13648   0.85169   0.09103   0.00000  Uiso   1.00
H394   H     0.05434   0.86772   0.41378   0.00000  Uiso   1.00
H395   H     0.09237   0.88631   0.05706   0.00000  Uiso   1.00
H396   H     0.22500   0.88116   0.35949   0.00000  Uiso   1.00
H397   H     0.23203   0.96248   0.27116   0.00000  Uiso   1.00
N398   N     0.04760   0.83334   0.25001   0.00000  Uiso   1.00
N399   N     0.28573   0.83331   0.25000   0.00000  Uiso   1.00
O400   O     0.12846   0.89442   0.25000   0.00000  Uiso   1.00
O401   O     0.20490   0.89441   0.25000   0.00000  Uiso   1.00
O402   O     0.10947   0.83333   0.32681   0.00000  Uiso   1.00
O403   O     0.18591   0.83332   0.32681   0.00000  Uiso   1.00
O404   O     0.12843   0.77226   0.24999   0.00000  Uiso   1.00
O405   O     0.20488   0.77225   0.24999   0.00000  Uiso   1.00
O406   O     0.14742   0.83335   0.17319   0.00000  Uiso   1.00
O407   O     0.22387   0.83334   0.17319   0.00000  Uiso   1.00
Zn408  Zn    0.11562   0.83334   0.25000   0.00000  Uiso   1.00
Zn409  Zn    0.21771   0.83333   0.25000   0.00000  Uiso   1.00
C410   C     0.02209   0.90070   0.01520   0.00000  Uiso   1.00
O411   O     0.33210   0.91606   0.48879   0.00000  Uiso   1.00
O412   O     0.00478   0.90195   0.07151   0.00000  Uiso   1.00
H413   H     0.30559   0.91553   0.08552   0.00000  Uiso   1.00
C414   C     0.50001   0.91336   0.25001   0.00000  Uiso   1.00
C415   C     0.48407   0.86771   0.48646   0.00000  Uiso   1.00
C416   C     0.49773   0.86602   0.43008   0.00000  Uiso   1.00
C417   C     0.51907   0.85886   0.01149   0.00000  Uiso   1.00
C418   C     0.56766   0.85504   0.47987   0.00000  Uiso   1.00
C419   C     0.58127   0.86466   0.42534   0.00000  Uiso   1.00
C420   C     0.54653   0.87142   0.40100   0.00000  Uiso   1.00
C421   C     0.50661   0.85040   0.06628   0.00000  Uiso   1.00
C422   C     0.58865   0.83416   0.05830   0.00000  Uiso   1.00
C423   C     0.46210   0.85869   0.40527   0.00000  Uiso   1.00
C424   C     0.53684   0.97870   0.26176   0.00000  Uiso   1.00
C425   C     0.47483   0.84085   0.35046   0.00000  Uiso   1.00
C426   C     0.53685   0.68799   0.26171   0.00000  Uiso   1.00
C427   C     0.49995   0.70914   0.25013   0.00000  Uiso   1.00
C428   C     0.46302   0.68794   0.23865   0.00000  Uiso   1.00
C429   C     0.46303   0.97866   0.23866   0.00000  Uiso   1.00
C430   C     0.49996   0.95751   0.25016   0.00000  Uiso   1.00
C431   C     0.64702   0.79880   0.23452   0.00000  Uiso   1.00
C432   C     0.36161   0.79885   0.23440   0.00000  Uiso   1.00
C433   C     0.35305   0.86790   0.26531   0.00000  Uiso   1.00
C434   C     0.63863   0.86798   0.26491   0.00000  Uiso   1.00
C435   C     0.49997   0.75330   0.25004   0.00000  Uiso   1.00
C436   C     0.52594   0.83361   0.14797   0.00000  Uiso   1.00
C437   C     0.60181   0.84185   0.00323   0.00000  Uiso   1.00
C438   C     0.54102   0.83883   0.08987   0.00000  Uiso   1.00
C439   C     0.41472   0.86896   0.43372   0.00000  Uiso   1.00
C440   C     0.40260   0.88212   0.48758   0.00000  Uiso   1.00
C441   C     0.43633   0.87817   0.01485   0.00000  Uiso   1.00
H442   H     0.61552   0.82470   0.07610   0.00000  Uiso   1.00
H443   H     0.56540   0.70424   0.27105   0.00000  Uiso   1.00
H444   H     0.43447   0.70415   0.22929   0.00000  Uiso   1.00
H445   H     0.43448   0.96241   0.22930   0.00000  Uiso   1.00
H446   H     0.63250   0.77116   0.22197   0.00000  Uiso   1.00
H447   H     0.38313   0.77126   0.22171   0.00000  Uiso   1.00
H448   H     0.36759   0.89558   0.27773   0.00000  Uiso   1.00
H449   H     0.61753   0.89589   0.27649   0.00000  Uiso   1.00
H450   H     0.61854   0.86580   0.40127   0.00000  Uiso   1.00
H451   H     0.63859   0.83745   0.47885   0.00000  Uiso   1.00
H452   H     0.46981   0.85169   0.09103   0.00000  Uiso   1.00
H453   H     0.38768   0.86772   0.41378   0.00000  Uiso   1.00
H454   H     0.42571   0.88631   0.05706   0.00000  Uiso   1.00
H455   H     0.55834   0.88116   0.35949   0.00000  Uiso   1.00
H456   H     0.56536   0.96248   0.27116   0.00000  Uiso   1.00
N457   N     0.38093   0.83334   0.25001   0.00000  Uiso   1.00
N458   N     0.61906   0.83331   0.25000   0.00000  Uiso   1.00
O459   O     0.46179   0.89442   0.25000   0.00000  Uiso   1.00
O460   O     0.53823   0.89441   0.25000   0.00000  Uiso   1.00
O461   O     0.44280   0.83333   0.32681   0.00000  Uiso   1.00
O462   O     0.51924   0.83332   0.32681   0.00000  Uiso   1.00
O463   O     0.46177   0.77226   0.24999   0.00000  Uiso   1.00
O464   O     0.53821   0.77225   0.24999   0.00000  Uiso   1.00
O465   O     0.48076   0.83335   0.17319   0.00000  Uiso   1.00
O466   O     0.55720   0.83334   0.17319   0.00000  Uiso   1.00
Zn467  Zn    0.44896   0.83334   0.25000   0.00000  Uiso   1.00
Zn468  Zn    0.55104   0.83333   0.25000   0.00000  Uiso   1.00
C469   C     0.35543   0.90070   0.01520   0.00000  Uiso   1.00
O470   O     0.66543   0.91606   0.48879   0.00000  Uiso   1.00
O471   O     0.33812   0.90195   0.07151   0.00000  Uiso   1.00
H472   H     0.63893   0.91553   0.08552   0.00000  Uiso   1.00
C473   C     0.83335   0.91336   0.25001   0.00000  Uiso   1.00
C474   C     0.81741   0.86771   0.48646   0.00000  Uiso   1.00
C475   C     0.83107   0.86602   0.43008   0.00000  Uiso   1.00
C476   C     0.85241   0.85886   0.01149   0.00000  Uiso   1.00
C477   C     0.90099   0.85504   0.47987   0.00000  Uiso   1.00
C478   C     0.91461   0.86466   0.42534   0.00000  Uiso   1.00
C479   C     0.87986   0.87142   0.40100   0.00000  Uiso   1.00
C480   C     0.83995   0.85040   0.06628   0.00000  Uiso   1.00
C481   C     0.92198   0.83416   0.05830   0.00000  Uiso   1.00
C482   C     0.79543   0.85869   0.40527   0.00000  Uiso   1.00
C483   C     0.87017   0.97870   0.26176   0.00000  Uiso   1.00
C484   C     0.80817   0.84085   0.35046   0.00000  Uiso   1.00
C485   C     0.87018   0.68799   0.26171   0.00000  Uiso   1.00
C486   C     0.83328   0.70914   0.25013   0.00000  Uiso   1.00
C487   C     0.79635   0.68794   0.23865   0.00000  Uiso   1.00
C488   C     0.79636   0.97866   0.23866   0.00000  Uiso   1.00
C489   C     0.83329   0.95751   0.25016   0.00000  Uiso   1.00
C490   C     0.98035   0.79880   0.23452   0.00000  Uiso   1.00
C491   C     0.69494   0.79885   0.23440   0.00000  Uiso   1.00
C492   C     0.68638   0.86790   0.26531   0.00000  Uiso   1.00
C493   C     0.97196   0.86798   0.26491   0.00000  Uiso   1.00
C494   C     0.83331   0.75330   0.25004   0.00000  Uiso   1.00
C495   C     0.85927   0.83361   0.14797   0.00000  Uiso   1.00
C496   C     0.93514   0.84185   0.00323   0.00000  Uiso   1.00
C497   C     0.87436   0.83883   0.08987   0.00000  Uiso   1.00
C498   C     0.74805   0.86896   0.43372   0.00000  Uiso   1.00
C499   C     0.73593   0.88212   0.48758   0.00000  Uiso   1.00
C500   C     0.76967   0.87817   0.01485   0.00000  Uiso   1.00
H501   H     0.94885   0.82470   0.07610   0.00000  Uiso   1.00
H502   H     0.89873   0.70424   0.27105   0.00000  Uiso   1.00
H503   H     0.76780   0.70415   0.22929   0.00000  Uiso   1.00
H504   H     0.76781   0.96241   0.22930   0.00000  Uiso   1.00
H505   H     0.96584   0.77116   0.22197   0.00000  Uiso   1.00
H506   H     0.71646   0.77126   0.22171   0.00000  Uiso   1.00
H507   H     0.70092   0.89558   0.27773   0.00000  Uiso   1.00
H508   H     0.95086   0.89589   0.27649   0.00000  Uiso   1.00
H509   H     0.95187   0.86580   0.40127   0.00000  Uiso   1.00
H510   H     0.97192   0.83745   0.47885   0.00000  Uiso   1.00
H511   H     0.80315   0.85169   0.09103   0.00000  Uiso   1.00
H512   H     0.72101   0.86772   0.41378   0.00000  Uiso   1.00
H513   H     0.75904   0.88631   0.05706   0.00000  Uiso   1.00
H514   H     0.89167   0.88116   0.35949   0.00000  Uiso   1.00
H515   H     0.89869   0.96248   0.27116   0.00000  Uiso   1.00
N516   N     0.71426   0.83334   0.25001   0.00000  Uiso   1.00
N517   N     0.95239   0.83331   0.25000   0.00000  Uiso   1.00
O518   O     0.79512   0.89442   0.25000   0.00000  Uiso   1.00
O519   O     0.87157   0.89441   0.25000   0.00000  Uiso   1.00
O520   O     0.77613   0.83333   0.32681   0.00000  Uiso   1.00
O521   O     0.85258   0.83332   0.32681   0.00000  Uiso   1.00
O522   O     0.79510   0.77226   0.24999   0.00000  Uiso   1.00
O523   O     0.87154   0.77225   0.24999   0.00000  Uiso   1.00
O524   O     0.81409   0.83335   0.17319   0.00000  Uiso   1.00
O525   O     0.89053   0.83334   0.17319   0.00000  Uiso   1.00
Zn526  Zn    0.78229   0.83334   0.25000   0.00000  Uiso   1.00
Zn527  Zn    0.88438   0.83333   0.25000   0.00000  Uiso   1.00
C528   C     0.68876   0.90070   0.01520   0.00000  Uiso   1.00
O529   O     0.99876   0.91606   0.48879   0.00000  Uiso   1.00
O530   O     0.67145   0.90195   0.07151   0.00000  Uiso   1.00
H531   H     0.97226   0.91553   0.08552   0.00000  Uiso   1.00
C532   C     0.16668   0.24670   0.75001   0.00000  Uiso   1.00
C533   C     0.15074   0.20104   0.98646   0.00000  Uiso   1.00
C534   C     0.16440   0.19935   0.93008   0.00000  Uiso   1.00
C535   C     0.18574   0.19219   0.51149   0.00000  Uiso   1.00
C536   C     0.23433   0.18837   0.97987   0.00000  Uiso   1.00
C537   C     0.24794   0.19799   0.92534   0.00000  Uiso   1.00
C538   C     0.21319   0.20475   0.90100   0.00000  Uiso   1.00
C539   C     0.17328   0.18373   0.56628   0.00000  Uiso   1.00
C540   C     0.25531   0.16750   0.55830   0.00000  Uiso   1.00
C541   C     0.12877   0.19202   0.90527   0.00000  Uiso   1.00
C542   C     0.20350   0.31203   0.76176   0.00000  Uiso   1.00
C543   C     0.14150   0.17419   0.85046   0.00000  Uiso   1.00
C544   C     0.20351   0.02132   0.76171   0.00000  Uiso   1.00
C545   C     0.16661   0.04248   0.75013   0.00000  Uiso   1.00
C546   C     0.12969   0.02128   0.73865   0.00000  Uiso   1.00
C547   C     0.12969   0.31199   0.73866   0.00000  Uiso   1.00
C548   C     0.16663   0.29084   0.75016   0.00000  Uiso   1.00
C549   C     0.31368   0.13213   0.73452   0.00000  Uiso   1.00
C550   C     0.02828   0.13218   0.73440   0.00000  Uiso   1.00
C551   C     0.01971   0.20123   0.76531   0.00000  Uiso   1.00
C552   C     0.30529   0.20131   0.76491   0.00000  Uiso   1.00
C553   C     0.16664   0.08664   0.75004   0.00000  Uiso   1.00
C554   C     0.19260   0.16694   0.64797   0.00000  Uiso   1.00
C555   C     0.26847   0.17518   0.50323   0.00000  Uiso   1.00
C556   C     0.20769   0.17216   0.58987   0.00000  Uiso   1.00
C557   C     0.08139   0.20229   0.93372   0.00000  Uiso   1.00
C558   C     0.06927   0.21545   0.98758   0.00000  Uiso   1.00
C559   C     0.10300   0.21151   0.51485   0.00000  Uiso   1.00
H560   H     0.28219   0.15803   0.57610   0.00000  Uiso   1.00
H561   H     0.23207   0.03758   0.77105   0.00000  Uiso   1.00
H562   H     0.10114   0.03748   0.72929   0.00000  Uiso   1.00
H563   H     0.10114   0.29574   0.72930   0.00000  Uiso   1.00
H564   H     0.29917   0.10449   0.72197   0.00000  Uiso   1.00
H565   H     0.04980   0.10459   0.72171   0.00000  Uiso   1.00
H566   H     0.03426   0.22891   0.77773   0.00000  Uiso   1.00
H567   H     0.28419   0.22923   0.77649   0.00000  Uiso   1.00
H568   H     0.28521   0.19913   0.90127   0.00000  Uiso   1.00
H569   H     0.30525   0.17079   0.97885   0.00000  Uiso   1.00
H570   H     0.13648   0.18502   0.59103   0.00000  Uiso   1.00
H571   H     0.05434   0.20106   0.91378   0.00000  Uiso   1.00
H572   H     0.09237   0.21964   0.55706   0.00000  Uiso   1.00
H573   H     0.22500   0.21449   0.85949   0.00000  Uiso   1.00
H574   H     0.23203   0.29581   0.77116   0.00000  Uiso   1.00
N575   N     0.04760   0.16668   0.75001   0.00000  Uiso   1.00
N576   N     0.28573   0.16665   0.75000   0.00000  Uiso   1.00
O577   O     0.12846   0.22775   0.75000   0.00000  Uiso   1.00
O578   O     0.20490   0.22774   0.75000   0.00000  Uiso   1.00
O579   O     0.10947   0.16666   0.82681   0.00000  Uiso   1.00
O580   O     0.18591   0.16665   0.82681   0.00000  Uiso   1.00
O581   O     0.12843   0.10559   0.74999   0.00000  Uiso   1.00
O582   O     0.20488   0.10558   0.74999   0.00000  Uiso   1.00
O583   O     0.14742   0.16668   0.67319   0.00000  Uiso   1.00
O584   O     0.22387   0.16667   0.67319   0.00000  Uiso   1.00
Zn585  Zn    0.11562   0.16667   0.75000   0.00000  Uiso   1.00
Zn586  Zn    0.21771   0.16666   0.75000   0.00000  Uiso   1.00
C587   C     0.02209   0.23403   0.51520   0.00000  Uiso   1.00
O588   O     0.33210   0.24939   0.98879   0.00000  Uiso   1.00
O589   O     0.00478   0.23528   0.57151   0.00000  Uiso   1.00
H590   H     0.30559   0.24887   0.58552   0.00000  Uiso   1.00
C591   C     0.50001   0.24670   0.75001   0.00000  Uiso   1.00
C592   C     0.48407   0.20104   0.98646   0.00000  Uiso   1.00
C593   C     0.49773   0.19935   0.93008   0.00000  Uiso   1.00
C594   C     0.51907   0.19219   0.51149   0.00000  Uiso   1.00
C595   C     0.56766   0.18837   0.97987   0.00000  Uiso   1.00
C596   C     0.58127   0.19799   0.92534   0.00000  Uiso   1.00
C597   C     0.54653   0.20475   0.90100   0.00000  Uiso   1.00
C598   C     0.50661   0.18373   0.56628   0.00000  Uiso   1.00
C599   C     0.58865   0.16750   0.55830   0.00000  Uiso   1.00
C600   C     0.46210   0.19202   0.90527   0.00000  Uiso   1.00
C601   C     0.53684   0.31203   0.76176   0.00000  Uiso   1.00
C602   C     0.47483   0.17419   0.85046   0.00000  Uiso   1.00
C603   C     0.53685   0.02132   0.76171   0.00000  Uiso   1.00
C604   C     0.49995   0.04248   0.75013   0.00000  Uiso   1.00
C605   C     0.46302   0.02128   0.73865   0.00000  Uiso   1.00
C606   C     0.46303   0.31199   0.73866   0.00000  Uiso   1.00
C607   C     0.49996   0.29084   0.75016   0.00000  Uiso   1.00
C608   C     0.64702   0.13213   0.73452   0.00000  Uiso   1.00
C609   C     0.36161   0.13218   0.73440   0.00000  Uiso   1.00
C610   C     0.35305   0.20123   0.76531   0.00000  Uiso   1.00
C611   C     0.63863   0.20131   0.76491   0.00000  Uiso   1.00
C612   C     0.49997   0.08664   0.75004   0.00000  Uiso   1.00
C613   C     0.52594   0.16694   0.64797   0.00000  Uiso   1.00
C614   C     0.60181   0.17518   0.50323   0.00000  Uiso   1.00
C615   C     0.54102   0.17216   0.58987   0.00000  Uiso   1.00
C616   C     0.41472   0.20229   0.93372   0.00000  Uiso   1.00
C617   C     0.40260   0.21545   0.98758   0.00000  Uiso   1.00
C618   C     0.43633   0.21151   0.51485   0.00000  Uiso   1.00
H619   H     0.61552   0.15803   0.57610   0.00000  Uiso   1.00
H620   H     0.56540   0.03758   0.77105   0.00000  Uiso   1.00
H621   H     0.43447   0.03748   0.72929   0.00000  Uiso   1.00
H622   H     0.43448   0.29574   0.72930   0.00000  Uiso   1.00
H623   H     0.63250   0.10449   0.72197   0.00000  Uiso   1.00
H624   H     0.38313   0.10459   0.72171   0.00000  Uiso   1.00
H625   H     0.36759   0.22891   0.77773   0.00000  Uiso   1.00
H626   H     0.61753   0.22923   0.77649   0.00000  Uiso   1.00
H627   H     0.61854   0.19913   0.90127   0.00000  Uiso   1.00
H628   H     0.63859   0.17079   0.97885   0.00000  Uiso   1.00
H629   H     0.46981   0.18502   0.59103   0.00000  Uiso   1.00
H630   H     0.38768   0.20106   0.91378   0.00000  Uiso   1.00
H631   H     0.42571   0.21964   0.55706   0.00000  Uiso   1.00
H632   H     0.55834   0.21449   0.85949   0.00000  Uiso   1.00
H633   H     0.56536   0.29581   0.77116   0.00000  Uiso   1.00
N634   N     0.38093   0.16668   0.75001   0.00000  Uiso   1.00
N635   N     0.61906   0.16665   0.75000   0.00000  Uiso   1.00
O636   O     0.46179   0.22775   0.75000   0.00000  Uiso   1.00
O637   O     0.53823   0.22774   0.75000   0.00000  Uiso   1.00
O638   O     0.44280   0.16666   0.82681   0.00000  Uiso   1.00
O639   O     0.51924   0.16665   0.82681   0.00000  Uiso   1.00
O640   O     0.46177   0.10559   0.74999   0.00000  Uiso   1.00
O641   O     0.53821   0.10558   0.74999   0.00000  Uiso   1.00
O642   O     0.48076   0.16668   0.67319   0.00000  Uiso   1.00
O643   O     0.55720   0.16667   0.67319   0.00000  Uiso   1.00
Zn644  Zn    0.44896   0.16667   0.75000   0.00000  Uiso   1.00
Zn645  Zn    0.55104   0.16666   0.75000   0.00000  Uiso   1.00
C646   C     0.35543   0.23403   0.51520   0.00000  Uiso   1.00
O647   O     0.66543   0.24939   0.98879   0.00000  Uiso   1.00
O648   O     0.33812   0.23528   0.57151   0.00000  Uiso   1.00
H649   H     0.63893   0.24887   0.58552   0.00000  Uiso   1.00
C650   C     0.83335   0.24670   0.75001   0.00000  Uiso   1.00
C651   C     0.81741   0.20104   0.98646   0.00000  Uiso   1.00
C652   C     0.83107   0.19935   0.93008   0.00000  Uiso   1.00
C653   C     0.85241   0.19219   0.51149   0.00000  Uiso   1.00
C654   C     0.90099   0.18837   0.97987   0.00000  Uiso   1.00
C655   C     0.91461   0.19799   0.92534   0.00000  Uiso   1.00
C656   C     0.87986   0.20475   0.90100   0.00000  Uiso   1.00
C657   C     0.83995   0.18373   0.56628   0.00000  Uiso   1.00
C658   C     0.92198   0.16750   0.55830   0.00000  Uiso   1.00
C659   C     0.79543   0.19202   0.90527   0.00000  Uiso   1.00
C660   C     0.87017   0.31203   0.76176   0.00000  Uiso   1.00
C661   C     0.80817   0.17419   0.85046   0.00000  Uiso   1.00
C662   C     0.87018   0.02132   0.76171   0.00000  Uiso   1.00
C663   C     0.83328   0.04248   0.75013   0.00000  Uiso   1.00
C664   C     0.79635   0.02128   0.73865   0.00000  Uiso   1.00
C665   C     0.79636   0.31199   0.73866   0.00000  Uiso   1.00
C666   C     0.83329   0.29084   0.75016   0.00000  Uiso   1.00
C667   C     0.98035   0.13213   0.73452   0.00000  Uiso   1.00
C668   C     0.69494   0.13218   0.73440   0.00000  Uiso   1.00
C669   C     0.68638   0.20123   0.76531   0.00000  Uiso   1.00
C670   C     0.97196   0.20131   0.76491   0.00000  Uiso   1.00
C671   C     0.83331   0.08664   0.75004   0.00000  Uiso   1.00
C672   C     0.85927   0.16694   0.64797   0.00000  Uiso   1.00
C673   C     0.93514   0.17518   0.50323   0.00000  Uiso   1.00
C674   C     0.87436   0.17216   0.58987   0.00000  Uiso   1.00
C675   C     0.74805   0.20229   0.93372   0.00000  Uiso   1.00
C676   C     0.73593   0.21545   0.98758   0.00000  Uiso   1.00
C677   C     0.76967   0.21151   0.51485   0.00000  Uiso   1.00
H678   H     0.94885   0.15803   0.57610   0.00000  Uiso   1.00
H679   H     0.89873   0.03758   0.77105   0.00000  Uiso   1.00
H680   H     0.76780   0.03748   0.72929   0.00000  Uiso   1.00
H681   H     0.76781   0.29574   0.72930   0.00000  Uiso   1.00
H682   H     0.96584   0.10449   0.72197   0.00000  Uiso   1.00
H683   H     0.71646   0.10459   0.72171   0.00000  Uiso   1.00
H684   H     0.70092   0.22891   0.77773   0.00000  Uiso   1.00
H685   H     0.95086   0.22923   0.77649   0.00000  Uiso   1.00
H686   H     0.95187   0.19913   0.90127   0.00000  Uiso   1.00
H687   H     0.97192   0.17079   0.97885   0.00000  Uiso   1.00
H688   H     0.80315   0.18502   0.59103   0.00000  Uiso   1.00
H689   H     0.72101   0.20106   0.91378   0.00000  Uiso   1.00
H690   H     0.75904   0.21964   0.55706   0.00000  Uiso   1.00
H691   H     0.89167   0.21449   0.85949   0.00000  Uiso   1.00
H692   H     0.89869   0.29581   0.77116   0.00000  Uiso   1.00
N693   N     0.71426   0.16668   0.75001   0.00000  Uiso   1.00
N694   N     0.95239   0.16665   0.75000   0.00000  Uiso   1.00
O695   O     0.79512   0.22775   0.75000   0.00000  Uiso   1.00
O696   O     0.87157   0.22774   0.75000   0.00000  Uiso   1.00
O697   O     0.77613   0.16666   0.82681   0.00000  Uiso   1.00
O698   O     0.85258   0.16665   0.82681   0.00000  Uiso   1.00
O699   O     0.79510   0.10559   0.74999   0.00000  Uiso   1.00
O700   O     0.87154   0.10558   0.74999   0.00000  Uiso   1.00
O701   O     0.81409   0.16668   0.67319   0.00000  Uiso   1.00
O702   O     0.89053   0.16667   0.67319   0.00000  Uiso   1.00
Zn703  Zn    0.78229   0.16667   0.75000   0.00000  Uiso   1.00
Zn704  Zn    0.88438   0.16666   0.75000   0.00000  Uiso   1.00
C705   C     0.68876   0.23403   0.51520   0.00000  Uiso   1.00
O706   O     0.99876   0.24939   0.98879   0.00000  Uiso   1.00
O707   O     0.67145   0.23528   0.57151   0.00000  Uiso   1.00
H708   H     0.97226   0.24887   0.58552   0.00000  Uiso   1.00
C709   C     0.16668   0.58003   0.75001   0.00000  Uiso   1.00
C710   C     0.15074   0.53437   0.98646   0.00000  Uiso   1.00
C711   C     0.16440   0.53268   0.93008   0.00000  Uiso   1.00
C712   C     0.18574   0.52553   0.51149   0.00000  Uiso   1.00
C713   C     0.23433   0.52170   0.97987   0.00000  Uiso   1.00
C714   C     0.24794   0.53132   0.92534   0.00000  Uiso   1.00
C715   C     0.21319   0.53809   0.90100   0.00000  Uiso   1.00
C716   C     0.17328   0.51707   0.56628   0.00000  Uiso   1.00
C717   C     0.25531   0.50083   0.55830   0.00000  Uiso   1.00
C718   C     0.12877   0.52536   0.90527   0.00000  Uiso   1.00
C719   C     0.20350   0.64536   0.76176   0.00000  Uiso   1.00
C720   C     0.14150   0.50752   0.85046   0.00000  Uiso   1.00
C721   C     0.20351   0.35465   0.76171   0.00000  Uiso   1.00
C722   C     0.16661   0.37581   0.75013   0.00000  Uiso   1.00
C723   C     0.12969   0.35461   0.73865   0.00000  Uiso   1.00
C724   C     0.12969   0.64533   0.73866   0.00000  Uiso   1.00
C725   C     0.16663   0.62417   0.75016   0.00000  Uiso   1.00
C726   C     0.31368   0.46546   0.73452   0.00000  Uiso   1.00
C727   C     0.02828   0.46551   0.73440   0.00000  Uiso   1.00
C728   C     0.01971   0.53457   0.76531   0.00000  Uiso   1.00
C729   C     0.30529   0.53465   0.76491   0.00000  Uiso   1.00
C730   C     0.16664   0.41997   0.75004   0.00000  Uiso   1.00
C731   C     0.19260   0.50028   0.64797   0.00000  Uiso   1.00
C732   C     0.26847   0.50851   0.50323   0.00000  Uiso   1.00
C733   C     0.20769   0.50549   0.58987   0.00000  Uiso   1.00
C734   C     0.08139   0.53563   0.93372   0.00000  Uiso   1.00
C735   C     0.06927   0.54878   0.98758   0.00000  Uiso   1.00
C736   C     0.10300   0.54484   0.51485   0.00000  Uiso   1.00
H737   H     0.28219   0.49137   0.57610   0.00000  Uiso   1.00
H738   H     0.23207   0.37091   0.77105   0.00000  Uiso   1.00
H739   H     0.10114   0.37082   0.72929   0.00000  Uiso   1.00
H740   H     0.10114   0.62907   0.72930   0.00000  Uiso   1.00
H741   H     0.29917   0.43782   0.72197   0.00000  Uiso   1.00
H742   H     0.04980   0.43793   0.72171   0.00000  Uiso   1.00
H743   H     0.03426   0.56225   0.77773   0.00000  Uiso   1.00
H744   H     0.28419   0.56256   0.77649   0.00000  Uiso   1.00
H745   H     0.28521   0.53246   0.90127   0.00000  Uiso   1.00
H746   H     0.30525   0.50412   0.97885   0.00000  Uiso   1.00
H747   H     0.13648   0.51835   0.59103   0.00000  Uiso   1.00
H748   H     0.05434   0.53439   0.91378   0.00000  Uiso   1.00
H749   H     0.09237   0.55297   0.55706   0.00000  Uiso   1.00
H750   H     0.22500   0.54783   0.85949   0.00000  Uiso   1.00
H751   H     0.23203   0.62914   0.77116   0.00000  Uiso   1.00
N752   N     0.04760   0.50001   0.75001   0.00000  Uiso   1.00
N753   N     0.28573   0.49998   0.75000   0.00000  Uiso   1.00
O754   O     0.12846   0.56108   0.75000   0.00000  Uiso   1.00
O755   O     0.20490   0.56107   0.75000   0.00000  Uiso   1.00
O756   O     0.10947   0.50000   0.82681   0.00000  Uiso   1.00
O757   O     0.18591   0.49999   0.82681   0.00000  Uiso   1.00
O758   O     0.12843   0.43893   0.74999   0.00000  Uiso   1.00
O759   O     0.20488   0.43892   0.74999   0.00000  Uiso   1.00
O760   O     0.14742   0.50001   0.67319   0.00000  Uiso   1.00
O761   O     0.22387   0.50000   0.67319   0.00000  Uiso   1.00
Zn762  Zn    0.11562   0.50001   0.75000   0.00000  Uiso   1.00
Zn763  Zn    0.21771   0.49999   0.75000   0.00000  Uiso   1.00
C764   C     0.02209   0.56737   0.51520   0.00000  Uiso   1.00
O765   O     0.33210   0.58272   0.98879   0.00000  Uiso   1.00
O766   O     0.00478   0.56861   0.57151   0.00000  Uiso   1.00
H767   H     0.30559   0.58220   0.58552   0.00000  Uiso   1.00
C768   C     0.50001   0.58003   0.75001   0.00000  Uiso   1.00
C769   C     0.48407   0.53437   0.98646   0.00000  Uiso   1.00
C770   C     0.49773   0.53268   0.93008   0.00000  Uiso   1.00
C771   C     0.51907   0.52553   0.51149   0.00000  Uiso   1.00
C772   C     0.56766   0.52170   0.97987   0.00000  Uiso   1.00
C773   C     0.58127   0.53132   0.92534   0.00000  Uiso   1.00
C774   C     0.54653   0.53809   0.90100   0.00000  Uiso   1.00
C775   C     0.50661   0.51707   0.56628   0.00000  Uiso   1.00
C776   C     0.58865   0.50083   0.55830   0.00000  Uiso   1.00
C777   C     0.46210   0.52536   0.90527   0.00000  Uiso   1.00
C778   C     0.53684   0.64536   0.76176   0.00000  Uiso   1.00
C779   C     0.47483   0.50752   0.85046   0.00000  Uiso   1.00
C780   C     0.53685   0.35465   0.76171   0.00000  Uiso   1.00
C781   C     0.49995   0.37581   0.75013   0.00000  Uiso   1.00
C782   C     0.46302   0.35461   0.73865   0.00000  Uiso   1.00
C783   C     0.46303   0.64533   0.73866   0.00000  Uiso   1.00
C784   C     0.49996   0.62417   0.75016   0.00000  Uiso   1.00
C785   C     0.64702   0.46546   0.73452   0.00000  Uiso   1.00
C786   C     0.36161   0.46551   0.73440   0.00000  Uiso   1.00
C787   C     0.35305   0.53457   0.76531   0.00000  Uiso   1.00
C788   C     0.63863   0.53465   0.76491   0.00000  Uiso   1.00
C789   C     0.49997   0.41997   0.75004   0.00000  Uiso   1.00
C790   C     0.52594   0.50028   0.64797   0.00000  Uiso   1.00
C791   C     0.60181   0.50851   0.50323   0.00000  Uiso   1.00
C792   C     0.54102   0.50549   0.58987   0.00000  Uiso   1.00
C793   C     0.41472   0.53563   0.93372   0.00000  Uiso   1.00
C794   C     0.40260   0.54878   0.98758   0.00000  Uiso   1.00
C795   C     0.43633   0.54484   0.51485   0.00000  Uiso   1.00
H796   H     0.61552   0.49137   0.57610   0.00000  Uiso   1.00
H797   H     0.56540   0.37091   0.77105   0.00000  Uiso   1.00
H798   H     0.43447   0.37082   0.72929   0.00000  Uiso   1.00
H799   H     0.43448   0.62907   0.72930   0.00000  Uiso   1.00
H800   H     0.63250   0.43782   0.72197   0.00000  Uiso   1.00
H801   H     0.38313   0.43793   0.72171   0.00000  Uiso   1.00
H802   H     0.36759   0.56225   0.77773   0.00000  Uiso   1.00
H803   H     0.61753   0.56256   0.77649   0.00000  Uiso   1.00
H804   H     0.61854   0.53246   0.90127   0.00000  Uiso   1.00
H805   H     0.63859   0.50412   0.97885   0.00000  Uiso   1.00
H806   H     0.46981   0.51835   0.59103   0.00000  Uiso   1.00
H807   H     0.38768   0.53439   0.91378   0.00000  Uiso   1.00
H808   H     0.42571   0.55297   0.55706   0.00000  Uiso   1.00
H809   H     0.55834   0.54783   0.85949   0.00000  Uiso   1.00
H810   H     0.56536   0.62914   0.77116   0.00000  Uiso   1.00
N811   N     0.38093   0.50001   0.75001   0.00000  Uiso   1.00
N812   N     0.61906   0.49998   0.75000   0.00000  Uiso   1.00
O813   O     0.46179   0.56108   0.75000   0.00000  Uiso   1.00
O814   O     0.53823   0.56107   0.75000   0.00000  Uiso   1.00
O815   O     0.44280   0.50000   0.82681   0.00000  Uiso   1.00
O816   O     0.51924   0.49999   0.82681   0.00000  Uiso   1.00
O817   O     0.46177   0.43893   0.74999   0.00000  Uiso   1.00
O818   O     0.53821   0.43892   0.74999   0.00000  Uiso   1.00
O819   O     0.48076   0.50001   0.67319   0.00000  Uiso   1.00
O820   O     0.55720   0.50000   0.67319   0.00000  Uiso   1.00
Zn821  Zn    0.44896   0.50001   0.75000   0.00000  Uiso   1.00
Zn822  Zn    0.55104   0.49999   0.75000   0.00000  Uiso   1.00
C823   C     0.35543   0.56737   0.51520   0.00000  Uiso   1.00
O824   O     0.66543   0.58272   0.98879   0.00000  Uiso   1.00
O825   O     0.33812   0.56861   0.57151   0.00000  Uiso   1.00
H826   H     0.63893   0.58220   0.58552   0.00000  Uiso   1.00
C827   C     0.83335   0.58003   0.75001   0.00000  Uiso   1.00
C828   C     0.81741   0.53437   0.98646   0.00000  Uiso   1.00
C829   C     0.83107   0.53268   0.93008   0.00000  Uiso   1.00
C830   C     0.85241   0.52553   0.51149   0.00000  Uiso   1.00
C831   C     0.90099   0.52170   0.97987   0.00000  Uiso   1.00
C832   C     0.91461   0.53132   0.92534   0.00000  Uiso   1.00
C833   C     0.87986   0.53809   0.90100   0.00000  Uiso   1.00
C834   C     0.83995   0.51707   0.56628   0.00000  Uiso   1.00
C835   C     0.92198   0.50083   0.55830   0.00000  Uiso   1.00
C836   C     0.79543   0.52536   0.90527   0.00000  Uiso   1.00
C837   C     0.87017   0.64536   0.76176   0.00000  Uiso   1.00
C838   C     0.80817   0.50752   0.85046   0.00000  Uiso   1.00
C839   C     0.87018   0.35465   0.76171   0.00000  Uiso   1.00
C840   C     0.83328   0.37581   0.75013   0.00000  Uiso   1.00
C841   C     0.79635   0.35461   0.73865   0.00000  Uiso   1.00
C842   C     0.79636   0.64533   0.73866   0.00000  Uiso   1.00
C843   C     0.83329   0.62417   0.75016   0.00000  Uiso   1.00
C844   C     0.98035   0.46546   0.73452   0.00000  Uiso   1.00
C845   C     0.69494   0.46551   0.73440   0.00000  Uiso   1.00
C846   C     0.68638   0.53457   0.76531   0.00000  Uiso   1.00
C847   C     0.97196   0.53465   0.76491   0.00000  Uiso   1.00
C848   C     0.83331   0.41997   0.75004   0.00000  Uiso   1.00
C849   C     0.85927   0.50028   0.64797   0.00000  Uiso   1.00
C850   C     0.93514   0.50851   0.50323   0.00000  Uiso   1.00
C851   C     0.87436   0.50549   0.58987   0.00000  Uiso   1.00
C852   C     0.74805   0.53563   0.93372   0.00000  Uiso   1.00
C853   C     0.73593   0.54878   0.98758   0.00000  Uiso   1.00
C854   C     0.76967   0.54484   0.51485   0.00000  Uiso   1.00
H855   H     0.94885   0.49137   0.57610   0.00000  Uiso   1.00
H856   H     0.89873   0.37091   0.77105   0.00000  Uiso   1.00
H857   H     0.76780   0.37082   0.72929   0.00000  Uiso   1.00
H858   H     0.76781   0.62907   0.72930   0.00000  Uiso   1.00
H859   H     0.96584   0.43782   0.72197   0.00000  Uiso   1.00
H860   H     0.71646   0.43793   0.72171   0.00000  Uiso   1.00
H861   H     0.70092   0.56225   0.77773   0.00000  Uiso   1.00
H862   H     0.95086   0.56256   0.77649   0.00000  Uiso   1.00
H863   H     0.95187   0.53246   0.90127   0.00000  Uiso   1.00
H864   H     0.97192   0.50412   0.97885   0.00000  Uiso   1.00
H865   H     0.80315   0.51835   0.59103   0.00000  Uiso   1.00
H866   H     0.72101   0.53439   0.91378   0.00000  Uiso   1.00
H867   H     0.75904   0.55297   0.55706   0.00000  Uiso   1.00
H868   H     0.89167   0.54783   0.85949   0.00000  Uiso   1.00
H869   H     0.89869   0.62914   0.77116   0.00000  Uiso   1.00
N870   N     0.71426   0.50001   0.75001   0.00000  Uiso   1.00
N871   N     0.95239   0.49998   0.75000   0.00000  Uiso   1.00
O872   O     0.79512   0.56108   0.75000   0.00000  Uiso   1.00
O873   O     0.87157   0.56107   0.75000   0.00000  Uiso   1.00
O874   O     0.77613   0.50000   0.82681   0.00000  Uiso   1.00
O875   O     0.85258   0.49999   0.82681   0.00000  Uiso   1.00
O876   O     0.79510   0.43893   0.74999   0.00000  Uiso   1.00
O877   O     0.87154   0.43892   0.74999   0.00000  Uiso   1.00
O878   O     0.81409   0.50001   0.67319   0.00000  Uiso   1.00
O879   O     0.89053   0.50000   0.67319   0.00000  Uiso   1.00
Zn880  Zn    0.78229   0.50001   0.75000   0.00000  Uiso   1.00
Zn881  Zn    0.88438   0.49999   0.75000   0.00000  Uiso   1.00
C882   C     0.68876   0.56737   0.51520   0.00000  Uiso   1.00
O883   O     0.99876   0.58272   0.98879   0.00000  Uiso   1.00
O884   O     0.67145   0.56861   0.57151   0.00000  Uiso   1.00
H885   H     0.97226   0.58220   0.58552   0.00000  Uiso   1.00
C886   C     0.16668   0.91336   0.75001   0.00000  Uiso   1.00
C887   C     0.15074   0.86771   0.98646   0.00000  Uiso   1.00
C888   C     0.16440   0.86602   0.93008   0.00000  Uiso   1.00
C889   C     0.18574   0.85886   0.51149   0.00000  Uiso   1.00
C890   C     0.23433   0.85504   0.97987   0.00000  Uiso   1.00
C891   C     0.24794   0.86466   0.92534   0.00000  Uiso   1.00
C892   C     0.21319   0.87142   0.90100   0.00000  Uiso   1.00
C893   C     0.17328   0.85040   0.56628   0.00000  Uiso   1.00
C894   C     0.25531   0.83416   0.55830   0.00000  Uiso   1.00
C895   C     0.12877   0.85869   0.90527   0.00000  Uiso   1.00
C896   C     0.20350   0.97870   0.76176   0.00000  Uiso   1.00
C897   C     0.14150   0.84085   0.85046   0.00000  Uiso   1.00
C898   C     0.20351   0.68799   0.76171   0.00000  Uiso   1.00
C899   C     0.16661   0.70914   0.75013   0.00000  Uiso   1.00
C900   C     0.12969   0.68794   0.73865   0.00000  Uiso   1.00
C901   C     0.12969   0.97866   0.73866   0.00000  Uiso   1.00
C902   C     0.16663   0.95751   0.75016   0.00000  Uiso   1.00
C903   C     0.31368   0.79880   0.73452   0.00000  Uiso   1.00
C904   C     0.02828   0.79885   0.73440   0.00000  Uiso   1.00
C905   C     0.01971   0.86790   0.76531   0.00000  Uiso   1.00
C906   C     0.30529   0.86798   0.76491   0.00000  Uiso   1.00
C907   C     0.16664   0.75330   0.75004   0.00000  Uiso   1.00
C908   C     0.19260   0.83361   0.64797   0.00000  Uiso   1.00
C909   C     0.26847   0.84185   0.50323   0.00000  Uiso   1.00
C910   C     0.20769   0.83883   0.58987   0.00000  Uiso   1.00
C911   C     0.08139   0.86896   0.93372   0.00000  Uiso   1.00
C912   C     0.06927   0.88212   0.98758   0.00000  Uiso   1.00
C913   C     0.10300   0.87817   0.51485   0.00000  Uiso   1.00
H914   H     0.28219   0.82470   0.57610   0.00000  Uiso   1.00
H915   H     0.23207   0.70424   0.77105   0.00000  Uiso   1.00
H916   H     0.10114   0.70415   0.72929   0.00000  Uiso   1.00
H917   H     0.10114   0.96241   0.72930   0.00000  Uiso   1.00
H918   H     0.29917   0.77116   0.72197   0.00000  Uiso   1.00
H919   H     0.04980   0.77126   0.72171   0.00000  Uiso   1.00
H920   H     0.03426   0.89558   0.77773   0.00000  Uiso   1.00
H921   H     0.28419   0.89589   0.77649   0.00000  Uiso   1.00
H922   H     0.28521   0.86580   0.90127   0.00000  Uiso   1.00
H923   H     0.30525   0.83745   0.97885   0.00000  Uiso   1.00
H924   H     0.13648   0.85169   0.59103   0.00000  Uiso   1.00
H925   H     0.05434   0.86772   0.91378   0.00000  Uiso   1.00
H926   H     0.09237   0.88631   0.55706   0.00000  Uiso   1.00
H927   H     0.22500   0.88116   0.85949   0.00000  Uiso   1.00
H928   H     0.23203   0.96248   0.77116   0.00000  Uiso   1.00
N929   N     0.04760   0.83334   0.75001   0.00000  Uiso   1.00
N930   N     0.28573   0.83331   0.75000   0.00000  Uiso   1.00
O931   O     0.12846   0.89442   0.75000   0.00000  Uiso   1.00
O932   O     0.20490   0.89441   0.75000   0.00000  Uiso   1.00
O933   O     0.10947   0.83333   0.82681   0.00000  Uiso   1.00
O934   O     0.18591   0.83332   0.82681   0.00000  Uiso   1.00
O935   O     0.12843   0.77226   0.74999   0.00000  Uiso   1.00
O936   O     0.20488   0.77225   0.74999   0.00000  Uiso   1.00
O937   O     0.14742   0.83335   0.67319   0.00000  Uiso   1.00
O938   O     0.22387   0.83334   0.67319   0.00000  Uiso   1.00
Zn939  Zn    0.11562   0.83334   0.75000   0.00000  Uiso   1.00
Zn940  Zn    0.21771   0.83333   0.75000   0.00000  Uiso   1.00
C941   C     0.02209   0.90070   0.51520   0.00000  Uiso   1.00
O942   O     0.33210   0.91606   0.98879   0.00000  Uiso   1.00
O943   O     0.00478   0.90195   0.57151   0.00000  Uiso   1.00
H944   H     0.30559   0.91553   0.58552   0.00000  Uiso   1.00
C945   C     0.50001   0.91336   0.75001   0.00000  Uiso   1.00
C946   C     0.48407   0.86771   0.98646   0.00000  Uiso   1.00
C947   C     0.49773   0.86602   0.93008   0.00000  Uiso   1.00
C948   C     0.51907   0.85886   0.51149   0.00000  Uiso   1.00
C949   C     0.56766   0.85504   0.97987   0.00000  Uiso   1.00
C950   C     0.58127   0.86466   0.92534   0.00000  Uiso   1.00
C951   C     0.54653   0.87142   0.90100   0.00000  Uiso   1.00
C952   C     0.50661   0.85040   0.56628   0.00000  Uiso   1.00
C953   C     0.58865   0.83416   0.55830   0.00000  Uiso   1.00
C954   C     0.46210   0.85869   0.90527   0.00000  Uiso   1.00
C955   C     0.53684   0.97870   0.76176   0.00000  Uiso   1.00
C956   C     0.47483   0.84085   0.85046   0.00000  Uiso   1.00
C957   C     0.53685   0.68799   0.76171   0.00000  Uiso   1.00
C958   C     0.49995   0.70914   0.75013   0.00000  Uiso   1.00
C959   C     0.46302   0.68794   0.73865   0.00000  Uiso   1.00
C960   C     0.46303   0.97866   0.73866   0.00000  Uiso   1.00
C961   C     0.49996   0.95751   0.75016   0.00000  Uiso   1.00
C962   C     0.64702   0.79880   0.73452   0.00000  Uiso   1.00
C963   C     0.36161   0.79885   0.73440   0.00000  Uiso   1.00
C964   C     0.35305   0.86790   0.76531   0.00000  Uiso   1.00
C965   C     0.63863   0.86798   0.76491   0.00000  Uiso   1.00
C966   C     0.49997   0.75330   0.75004   0.00000  Uiso   1.00
C967   C     0.52594   0.83361   0.64797   0.00000  Uiso   1.00
C968   C     0.60181   0.84185   0.50323   0.00000  Uiso   1.00
C969   C     0.54102   0.83883   0.58987   0.00000  Uiso   1.00
C970   C     0.41472   0.86896   0.93372   0.00000  Uiso   1.00
C971   C     0.40260   0.88212   0.98758   0.00000  Uiso   1.00
C972   C     0.43633   0.87817   0.51485   0.00000  Uiso   1.00
H973   H     0.61552   0.82470   0.57610   0.00000  Uiso   1.00
H974   H     0.56540   0.70424   0.77105   0.00000  Uiso   1.00
H975   H     0.43447   0.70415   0.72929   0.00000  Uiso   1.00
H976   H     0.43448   0.96241   0.72930   0.00000  Uiso   1.00
H977   H     0.63250   0.77116   0.72197   0.00000  Uiso   1.00
H978   H     0.38313   0.77126   0.72171   0.00000  Uiso   1.00
H979   H     0.36759   0.89558   0.77773   0.00000  Uiso   1.00
H980   H     0.61753   0.89589   0.77649   0.00000  Uiso   1.00
H981   H     0.61854   0.86580   0.90127   0.00000  Uiso   1.00
H982   H     0.63859   0.83745   0.97885   0.00000  Uiso   1.00
H983   H     0.46981   0.85169   0.59103   0.00000  Uiso   1.00
H984   H     0.38768   0.86772   0.91378   0.00000  Uiso   1.00
H985   H     0.42571   0.88631   0.55706   0.00000  Uiso   1.00
H986   H     0.55834   0.88116   0.85949   0.00000  Uiso   1.00
H987   H     0.56536   0.96248   0.77116   0.00000  Uiso   1.00
N988   N     0.38093   0.83334   0.75001   0.00000  Uiso   1.00
N989   N     0.61906   0.83331   0.75000   0.00000  Uiso   1.00
O990   O     0.46179   0.89442   0.75000   0.00000  Uiso   1.00
O991   O     0.53823   0.89441   0.75000   0.00000  Uiso   1.00
O992   O     0.44280   0.83333   0.82681   0.00000  Uiso   1.00
O993   O     0.51924   0.83332   0.82681   0.00000  Uiso   1.00
O994   O     0.46177   0.77226   0.74999   0.00000  Uiso   1.00
O995   O     0.53821   0.77225   0.74999   0.00000  Uiso   1.00
O996   O     0.48076   0.83335   0.67319   0.00000  Uiso   1.00
O997   O     0.55720   0.83334   0.67319   0.00000  Uiso   1.00
Zn998  Zn    0.44896   0.83334   0.75000   0.00000  Uiso   1.00
Zn999  Zn    0.55104   0.83333   0.75000   0.00000  Uiso   1.00
C1000  C     0.35543   0.90070   0.51520   0.00000  Uiso   1.00
O1001  O     0.66543   0.91606   0.98879   0.00000  Uiso   1.00
O1002  O     0.33812   0.90195   0.57151   0.00000  Uiso   1.00
H1003  H     0.63893   0.91553   0.58552   0.00000  Uiso   1.00
C1004  C     0.83335   0.91336   0.75001   0.00000  Uiso   1.00
C1005  C     0.81741   0.86771   0.98646   0.00000  Uiso   1.00
C1006  C     0.83107   0.86602   0.93008   0.00000  Uiso   1.00
C1007  C     0.85241   0.85886   0.51149   0.00000  Uiso   1.00
C1008  C     0.90099   0.85504   0.97987   0.00000  Uiso   1.00
C1009  C     0.91461   0.86466   0.92534   0.00000  Uiso   1.00
C1010  C     0.87986   0.87142   0.90100   0.00000  Uiso   1.00
C1011  C     0.83995   0.85040   0.56628   0.00000  Uiso   1.00
C1012  C     0.92198   0.83416   0.55830   0.00000  Uiso   1.00
C1013  C     0.79543   0.85869   0.90527   0.00000  Uiso   1.00
C1014  C     0.87017   0.97870   0.76176   0.00000  Uiso   1.00
C1015  C     0.80817   0.84085   0.85046   0.00000  Uiso   1.00
C1016  C     0.87018   0.68799   0.76171   0.00000  Uiso   1.00
C1017  C     0.83328   0.70914   0.75013   0.00000  Uiso   1.00
C1018  C     0.79635   0.68794   0.73865   0.00000  Uiso   1.00
C1019  C     0.79636   0.97866   0.73866   0.00000  Uiso   1.00
C1020  C     0.83329   0.95751   0.75016   0.00000  Uiso   1.00
C1021  C     0.98035   0.79880   0.73452   0.00000  Uiso   1.00
C1022  C     0.69494   0.79885   0.73440   0.00000  Uiso   1.00
C1023  C     0.68638   0.86790   0.76531   0.00000  Uiso   1.00
C1024  C     0.97196   0.86798   0.76491   0.00000  Uiso   1.00
C1025  C     0.83331   0.75330   0.75004   0.00000  Uiso   1.00
C1026  C     0.85927   0.83361   0.64797   0.00000  Uiso   1.00
C1027  C     0.93514   0.84185   0.50323   0.00000  Uiso   1.00
C1028  C     0.87436   0.83883   0.58987   0.00000  Uiso   1.00
C1029  C     0.74805   0.86896   0.93372   0.00000  Uiso   1.00
C1030  C     0.73593   0.88212   0.98758   0.00000  Uiso   1.00
C1031  C     0.76967   0.87817   0.51485   0.00000  Uiso   1.00
H1032  H     0.94885   0.82470   0.57610   0.00000  Uiso   1.00
H1033  H     0.89873   0.70424   0.77105   0.00000  Uiso   1.00
H1034  H     0.76780   0.70415   0.72929   0.00000  Uiso   1.00
H1035  H     0.76781   0.96241   0.72930   0.00000  Uiso   1.00
H1036  H     0.96584   0.77116   0.72197   0.00000  Uiso   1.00
H1037  H     0.71646   0.77126   0.72171   0.00000  Uiso   1.00
H1038  H     0.70092   0.89558   0.77773   0.00000  Uiso   1.00
H1039  H     0.95086   0.89589   0.77649   0.00000  Uiso   1.00
H1040  H     0.95187   0.86580   0.90127   0.00000  Uiso   1.00
H1041  H     0.97192   0.83745   0.97885   0.00000  Uiso   1.00
H1042  H     0.80315   0.85169   0.59103   0.00000  Uiso   1.00
H1043  H     0.72101   0.86772   0.91378   0.00000  Uiso   1.00
H1044  H     0.75904   0.88631   0.55706   0.00000  Uiso   1.00
H1045  H     0.89167   0.88116   0.85949   0.00000  Uiso   1.00
H1046  H     0.89869   0.96248   0.77116   0.00000  Uiso   1.00
N1047  N     0.71426   0.83334   0.75001   0.00000  Uiso   1.00
N1048  N     0.95239   0.83331   0.75000   0.00000  Uiso   1.00
O1049  O     0.79512   0.89442   0.75000   0.00000  Uiso   1.00
O1050  O     0.87157   0.89441   0.75000   0.00000  Uiso   1.00
O1051  O     0.77613   0.83333   0.82681   0.00000  Uiso   1.00
O1052  O     0.85258   0.83332   0.82681   0.00000  Uiso   1.00
O1053  O     0.79510   0.77226   0.74999   0.00000  Uiso   1.00
O1054  O     0.87154   0.77225   0.74999   0.00000  Uiso   1.00
O1055  O     0.81409   0.83335   0.67319   0.00000  Uiso   1.00
O1056  O     0.89053   0.83334   0.67319   0.00000  Uiso   1.00
Zn1057 Zn    0.78229   0.83334   0.75000   0.00000  Uiso   1.00
Zn1058 Zn    0.88438   0.83333   0.75000   0.00000  Uiso   1.00
C1059  C     0.68876   0.90070   0.51520   0.00000  Uiso   1.00
O1060  O     0.99876   0.91606   0.98879   0.00000  Uiso   1.00
O1061  O     0.67145   0.90195   0.57151   0.00000  Uiso   1.00
H1062  H     0.97226   0.91553   0.58552   0.00000  Uiso   1.00
loop_
_geom_bond_atom_site_label_1
_geom_bond_atom_site_label_2
_geom_bond_distance
_geom_bond_site_symmetry_2
_ccdc_geom_bond_type
C1     O47     1.284   .     A
C1     O46     1.284   .     A
C1     C17     1.419   .     S
C2     C3      1.402   .     A
C2     C535    1.416   .     S
C2     C559    1.413   .     S
C3     C7      1.414   .     A
C3     C10     1.419   .     A
C4     C8      1.389   .     A
C4     C533    1.416   1_554 S
C4     C536    1.420   1_554 S
C5     C6      1.389   .     A
C5     C535    1.420   .     S
C5     C555    1.400   .     S
C6     C7      1.385   .     A
C6     H37     1.084   .     S
C7     H42     1.077   .     S
C8     H39     1.078   .     S
C8     C25     1.396   .     A
C9     C24     1.390   .     A
C9     H29     1.083   .     S
C9     C25     1.399   .     A
C10    C12     1.477   .     S
C10    C26     1.403   .     A
C11    H43     1.084   .     S
C11    C17     1.397   .     A
C11    C190    1.370   .     S
C12    O48     1.306   .     A
C12    O49     1.286   .     A
C13    H30     1.084   .     S
C13    C14     1.397   .     A
C13    C365    1.370   1_545 S
C14    C22     1.420   .     S
C14    C15     1.397   .     A
C15    H31     1.084   .     S
C15    C370    1.370   1_545 S
C16    H32     1.084   .     S
C16    C17     1.397   .     A
C16    C192    1.370   .     S
C18    H33     1.081   .     S
C18    N45     1.367   .     A
C18    C78     1.416   .     S
C19    N44     1.367   .     A
C19    H34     1.081   .     S
C19    C136    1.416   1_455 S
C20    N44     1.366   .     A
C20    H35     1.081   .     S
C20    C139    1.415   1_455 S
C21    N45     1.367   .     A
C21    H36     1.080   .     S
C21    C79     1.415   .     S
C22    O50     1.284   .     A
C22    O51     1.284   .     A
C23    O52     1.291   .     A
C23    O53     1.293   .     A
C23    C25     1.452   .     S
C24    C536    1.400   1_554 S
C24    H569    1.083   1_554 S
C26    H40     1.084   .     S
C26    C27     1.404   .     A
C27    C559    1.402   .     S
C27    C587    1.480   .     S
C28    H41     1.080   .     S
C28    C533    1.413   1_554 S
C28    C558    1.402   1_554 S
H38    C555    1.083   .     S
N44    Zn54    2.011   .     S
N45    Zn55    2.011   .     S
O46    Zn54    2.000   .     S
O47    Zn55    2.000   .     S
O48    Zn54    1.958   .     S
O49    Zn55    1.931   .     S
O50    Zn54    2.000   .     S
O51    Zn55    2.000   .     S
O52    Zn54    1.931   .     S
O53    Zn55    1.958   .     S
C56    O58     1.399   .     S
C56    C558    1.480   1_554 S
C56    O706    1.223   1_454 S
O57    C646    1.223   .     S
O58    H177    1.014   1_455 S
H59    O117    1.014   .     S
C60    O106    1.284   .     A
C60    O105    1.284   .     A
C60    C76     1.419   .     S
C61    C62     1.402   .     A
C61    C594    1.416   .     S
C61    C618    1.413   .     S
C62    C66     1.414   .     A
C62    C69     1.419   .     A
C63    C67     1.389   .     A
C63    C592    1.416   1_554 S
C63    C595    1.420   1_554 S
C64    C65     1.389   .     A
C64    C594    1.420   .     S
C64    C614    1.400   .     S
C65    C66     1.385   .     A
C65    H96     1.084   .     S
C66    H101    1.077   .     S
C67    H98     1.078   .     S
C67    C84     1.396   .     A
C68    C83     1.390   .     A
C68    H88     1.083   .     S
C68    C84     1.399   .     A
C69    C71     1.477   .     S
C69    C85     1.403   .     A
C70    H102    1.084   .     S
C70    C76     1.397   .     A
C70    C249    1.370   .     S
C71    O107    1.306   .     A
C71    O108    1.286   .     A
C72    H89     1.084   .     S
C72    C73     1.397   .     A
C72    C424    1.370   1_545 S
C73    C81     1.420   .     S
C73    C74     1.397   .     A
C74    H90     1.084   .     S
C74    C429    1.370   1_545 S
C75    H91     1.084   .     S
C75    C76     1.397   .     A
C75    C251    1.370   .     S
C77    H92     1.081   .     S
C77    N104    1.367   .     A
C77    C137    1.416   .     S
C78    N103    1.367   .     A
C78    H93     1.081   .     S
C79    N103    1.366   .     A
C79    H94     1.081   .     S
C80    N104    1.367   .     A
C80    H95     1.080   .     S
C80    C138    1.415   .     S
C81    O109    1.284   .     A
C81    O110    1.284   .     A
C82    O111    1.291   .     A
C82    O112    1.293   .     A
C82    C84     1.452   .     S
C83    C595    1.400   1_554 S
C83    H628    1.083   1_554 S
C85    H99     1.084   .     S
C85    C86     1.404   .     A
C86    C618    1.402   .     S
C86    C646    1.480   .     S
C87    H100    1.080   .     S
C87    C592    1.413   1_554 S
C87    C617    1.402   1_554 S
H97    C614    1.083   .     S
N103   Zn113   2.011   .     S
N104   Zn114   2.011   .     S
O105   Zn113   2.000   .     S
O106   Zn114   2.000   .     S
O107   Zn113   1.958   .     S
O108   Zn114   1.931   .     S
O109   Zn113   2.000   .     S
O110   Zn114   2.000   .     S
O111   Zn113   1.931   .     S
O112   Zn114   1.958   .     S
C115   O117    1.399   .     S
C115   C617    1.480   1_554 S
C115   O588    1.223   1_554 S
O116   C705    1.223   .     S
H118   O176    1.014   .     S
C119   O165    1.284   .     A
C119   O164    1.284   .     A
C119   C135    1.419   .     S
C120   C121    1.402   .     A
C120   C653    1.416   .     S
C120   C677    1.413   .     S
C121   C125    1.414   .     A
C121   C128    1.419   .     A
C122   C126    1.389   .     A
C122   C651    1.416   1_554 S
C122   C654    1.420   1_554 S
C123   C124    1.389   .     A
C123   C653    1.420   .     S
C123   C673    1.400   .     S
C124   C125    1.385   .     A
C124   H155    1.084   .     S
C125   H160    1.077   .     S
C126   H157    1.078   .     S
C126   C143    1.396   .     A
C127   C142    1.390   .     A
C127   H147    1.083   .     S
C127   C143    1.399   .     A
C128   C130    1.477   .     S
C128   C144    1.403   .     A
C129   H161    1.084   .     S
C129   C135    1.397   .     A
C129   C308    1.370   .     S
C130   O166    1.306   .     A
C130   O167    1.286   .     A
C131   H148    1.084   .     S
C131   C132    1.397   .     A
C131   C483    1.370   1_545 S
C132   C140    1.420   .     S
C132   C133    1.397   .     A
C133   H149    1.084   .     S
C133   C488    1.370   1_545 S
C134   H150    1.084   .     S
C134   C135    1.397   .     A
C134   C310    1.370   .     S
C136   H151    1.081   .     S
C136   N163    1.367   .     A
C136   C19     1.416   1_655 S
C137   N162    1.367   .     A
C137   H152    1.081   .     S
C138   N162    1.366   .     A
C138   H153    1.081   .     S
C139   N163    1.367   .     A
C139   H154    1.080   .     S
C139   C20     1.415   1_655 S
C140   O168    1.284   .     A
C140   O169    1.284   .     A
C141   O170    1.291   .     A
C141   O171    1.293   .     A
C141   C143    1.452   .     S
C142   C654    1.400   1_554 S
C142   H687    1.083   1_554 S
C144   H158    1.084   .     S
C144   C145    1.404   .     A
C145   C677    1.402   .     S
C145   C705    1.480   .     S
C146   H159    1.080   .     S
C146   C651    1.413   1_554 S
C146   C676    1.402   1_554 S
H156   C673    1.083   .     S
N162   Zn172   2.011   .     S
N163   Zn173   2.011   .     S
O164   Zn172   2.000   .     S
O165   Zn173   2.000   .     S
O166   Zn172   1.958   .     S
O167   Zn173   1.931   .     S
O168   Zn172   2.000   .     S
O169   Zn173   2.000   .     S
O170   Zn172   1.931   .     S
O171   Zn173   1.958   .     S
C174   O176    1.399   .     S
C174   C676    1.480   1_554 S
C174   O647    1.223   1_554 S
O175   C587    1.223   1_655 S
H177   O58     1.014   1_655 S
C178   O224    1.284   .     A
C178   O223    1.284   .     A
C178   C194    1.419   .     S
C179   C180    1.402   .     A
C179   C712    1.416   .     S
C179   C736    1.413   .     S
C180   C184    1.414   .     A
C180   C187    1.419   .     A
C181   C185    1.389   .     A
C181   C710    1.416   1_554 S
C181   C713    1.420   1_554 S
C182   C183    1.389   .     A
C182   C712    1.420   .     S
C182   C732    1.400   .     S
C183   C184    1.385   .     A
C183   H214    1.084   .     S
C184   H219    1.077   .     S
C185   H216    1.078   .     S
C185   C202    1.396   .     A
C186   C201    1.390   .     A
C186   H206    1.083   .     S
C186   C202    1.399   .     A
C187   C189    1.477   .     S
C187   C203    1.403   .     A
C188   H220    1.084   .     S
C188   C194    1.397   .     A
C188   C367    1.370   .     S
C189   O225    1.306   .     A
C189   O226    1.286   .     A
C190   H207    1.084   .     S
C190   C191    1.397   .     A
C191   C199    1.420   .     S
C191   C192    1.397   .     A
C192   H208    1.084   .     S
C193   H209    1.084   .     S
C193   C194    1.397   .     A
C193   C369    1.370   .     S
C195   H210    1.081   .     S
C195   N222    1.367   .     A
C195   C255    1.416   .     S
C196   N221    1.367   .     A
C196   H211    1.081   .     S
C196   C313    1.416   1_455 S
C197   N221    1.366   .     A
C197   H212    1.081   .     S
C197   C316    1.415   1_455 S
C198   N222    1.367   .     A
C198   H213    1.080   .     S
C198   C256    1.415   .     S
C199   O227    1.284   .     A
C199   O228    1.284   .     A
C200   O229    1.291   .     A
C200   O230    1.293   .     A
C200   C202    1.452   .     S
C201   C713    1.400   1_554 S
C201   H746    1.083   1_554 S
C203   H217    1.084   .     S
C203   C204    1.404   .     A
C204   C736    1.402   .     S
C204   C764    1.480   .     S
C205   H218    1.080   .     S
C205   C710    1.413   1_554 S
C205   C735    1.402   1_554 S
H215   C732    1.083   .     S
N221   Zn231   2.011   .     S
N222   Zn232   2.011   .     S
O223   Zn231   2.000   .     S
O224   Zn232   2.000   .     S
O225   Zn231   1.958   .     S
O226   Zn232   1.931   .     S
O227   Zn231   2.000   .     S
O228   Zn232   2.000   .     S
O229   Zn231   1.931   .     S
O230   Zn232   1.958   .     S
C233   O235    1.399   .     S
C233   C735    1.480   1_554 S
C233   O883    1.223   1_454 S
O234   C823    1.223   .     S
O235   H354    1.014   1_455 S
H236   O294    1.014   .     S
C237   O283    1.284   .     A
C237   O282    1.284   .     A
C237   C253    1.419   .     S
C238   C239    1.402   .     A
C238   C771    1.416   .     S
C238   C795    1.413   .     S
C239   C243    1.414   .     A
C239   C246    1.419   .     A
C240   C244    1.389   .     A
C240   C769    1.416   1_554 S
C240   C772    1.420   1_554 S
C241   C242    1.389   .     A
C241   C771    1.420   .     S
C241   C791    1.400   .     S
C242   C243    1.385   .     A
C242   H273    1.084   .     S
C243   H278    1.077   .     S
C244   H275    1.078   .     S
C244   C261    1.396   .     A
C245   C260    1.390   .     A
C245   H265    1.083   .     S
C245   C261    1.399   .     A
C246   C248    1.477   .     S
C246   C262    1.403   .     A
C247   H279    1.084   .     S
C247   C253    1.397   .     A
C247   C426    1.370   .     S
C248   O284    1.306   .     A
C248   O285    1.286   .     A
C249   H266    1.084   .     S
C249   C250    1.397   .     A
C250   C258    1.420   .     S
C250   C251    1.397   .     A
C251   H267    1.084   .     S
C252   H268    1.084   .     S
C252   C253    1.397   .     A
C252   C428    1.370   .     S
C254   H269    1.081   .     S
C254   N281    1.367   .     A
C254   C314    1.416   .     S
C255   N280    1.367   .     A
C255   H270    1.081   .     S
C256   N280    1.366   .     A
C256   H271    1.081   .     S
C257   N281    1.367   .     A
C257   H272    1.080   .     S
C257   C315    1.415   .     S
C258   O286    1.284   .     A
C258   O287    1.284   .     A
C259   O288    1.291   .     A
C259   O289    1.293   .     A
C259   C261    1.452   .     S
C260   C772    1.400   1_554 S
C260   H805    1.083   1_554 S
C262   H276    1.084   .     S
C262   C263    1.404   .     A
C263   C795    1.402   .     S
C263   C823    1.480   .     S
C264   H277    1.080   .     S
C264   C769    1.413   1_554 S
C264   C794    1.402   1_554 S
H274   C791    1.083   .     S
N280   Zn290   2.011   .     S
N281   Zn291   2.011   .     S
O282   Zn290   2.000   .     S
O283   Zn291   2.000   .     S
O284   Zn290   1.958   .     S
O285   Zn291   1.931   .     S
O286   Zn290   2.000   .     S
O287   Zn291   2.000   .     S
O288   Zn290   1.931   .     S
O289   Zn291   1.958   .     S
C292   O294    1.399   .     S
C292   C794    1.480   1_554 S
C292   O765    1.223   1_554 S
O293   C882    1.223   .     S
H295   O353    1.014   .     S
C296   O342    1.284   .     A
C296   O341    1.284   .     A
C296   C312    1.419   .     S
C297   C298    1.402   .     A
C297   C830    1.416   .     S
C297   C854    1.413   .     S
C298   C302    1.414   .     A
C298   C305    1.419   .     A
C299   C303    1.389   .     A
C299   C828    1.416   1_554 S
C299   C831    1.420   1_554 S
C300   C301    1.389   .     A
C300   C830    1.420   .     S
C300   C850    1.400   .     S
C301   C302    1.385   .     A
C301   H332    1.084   .     S
C302   H337    1.077   .     S
C303   H334    1.078   .     S
C303   C320    1.396   .     A
C304   C319    1.390   .     A
C304   H324    1.083   .     S
C304   C320    1.399   .     A
C305   C307    1.477   .     S
C305   C321    1.403   .     A
C306   H338    1.084   .     S
C306   C312    1.397   .     A
C306   C485    1.370   .     S
C307   O343    1.306   .     A
C307   O344    1.286   .     A
C308   H325    1.084   .     S
C308   C309    1.397   .     A
C309   C317    1.420   .     S
C309   C310    1.397   .     A
C310   H326    1.084   .     S
C311   H327    1.084   .     S
C311   C312    1.397   .     A
C311   C487    1.370   .     S
C313   H328    1.081   .     S
C313   N340    1.367   .     A
C313   C196    1.416   1_655 S
C314   N339    1.367   .     A
C314   H329    1.081   .     S
C315   N339    1.366   .     A
C315   H330    1.081   .     S
C316   N340    1.367   .     A
C316   H331    1.080   .     S
C316   C197    1.415   1_655 S
C317   O345    1.284   .     A
C317   O346    1.284   .     A
C318   O347    1.291   .     A
C318   O348    1.293   .     A
C318   C320    1.452   .     S
C319   C831    1.400   1_554 S
C319   H864    1.083   1_554 S
C321   H335    1.084   .     S
C321   C322    1.404   .     A
C322   C854    1.402   .     S
C322   C882    1.480   .     S
C323   H336    1.080   .     S
C323   C828    1.413   1_554 S
C323   C853    1.402   1_554 S
H333   C850    1.083   .     S
N339   Zn349   2.011   .     S
N340   Zn350   2.011   .     S
O341   Zn349   2.000   .     S
O342   Zn350   2.000   .     S
O343   Zn349   1.958   .     S
O344   Zn350   1.931   .     S
O345   Zn349   2.000   .     S
O346   Zn350   2.000   .     S
O347   Zn349   1.931   .     S
O348   Zn350   1.958   .     S
C351   O353    1.399   .     S
C351   C853    1.480   1_554 S
C351   O824    1.223   1_554 S
O352   C764    1.223   1_655 S
H354   O235    1.014   1_655 S
C355   O401    1.284   .     A
C355   O400    1.284   .     A
C355   C371    1.419   .     S
C356   C357    1.402   .     A
C356   C889    1.416   .     S
C356   C913    1.413   .     S
C357   C361    1.414   .     A
C357   C364    1.419   .     A
C358   C362    1.389   .     A
C358   C887    1.416   1_554 S
C358   C890    1.420   1_554 S
C359   C360    1.389   .     A
C359   C889    1.420   .     S
C359   C909    1.400   .     S
C360   C361    1.385   .     A
C360   H391    1.084   .     S
C361   H396    1.077   .     S
C362   H393    1.078   .     S
C362   C379    1.396   .     A
C363   C378    1.390   .     A
C363   H383    1.083   .     S
C363   C379    1.399   .     A
C364   C366    1.477   .     S
C364   C380    1.403   .     A
C365   H397    1.084   .     S
C365   C371    1.397   .     A
C365   C13     1.370   1_565 S
C366   O402    1.306   .     A
C366   O403    1.286   .     A
C367   H384    1.084   .     S
C367   C368    1.397   .     A
C368   C376    1.420   .     S
C368   C369    1.397   .     A
C369   H385    1.084   .     S
C370   H386    1.084   .     S
C370   C371    1.397   .     A
C370   C15     1.370   1_565 S
C372   H387    1.081   .     S
C372   N399    1.367   .     A
C372   C432    1.416   .     S
C373   N398    1.367   .     A
C373   H388    1.081   .     S
C373   C490    1.416   1_455 S
C374   N398    1.366   .     A
C374   H389    1.081   .     S
C374   C493    1.415   1_455 S
C375   N399    1.367   .     A
C375   H390    1.080   .     S
C375   C433    1.415   .     S
C376   O404    1.284   .     A
C376   O405    1.284   .     A
C377   O406    1.291   .     A
C377   O407    1.293   .     A
C377   C379    1.452   .     S
C378   C890    1.400   1_554 S
C378   H923    1.083   1_554 S
C380   H394    1.084   .     S
C380   C381    1.404   .     A
C381   C913    1.402   .     S
C381   C941    1.480   .     S
C382   H395    1.080   .     S
C382   C887    1.413   1_554 S
C382   C912    1.402   1_554 S
H392   C909    1.083   .     S
N398   Zn408   2.011   .     S
N399   Zn409   2.011   .     S
O400   Zn408   2.000   .     S
O401   Zn409   2.000   .     S
O402   Zn408   1.958   .     S
O403   Zn409   1.931   .     S
O404   Zn408   2.000   .     S
O405   Zn409   2.000   .     S
O406   Zn408   1.931   .     S
O407   Zn409   1.958   .     S
C410   O412    1.399   .     S
C410   C912    1.480   1_554 S
C410   O1060   1.223   1_454 S
O411   C1000   1.223   .     S
O412   H531    1.014   1_455 S
H413   O471    1.014   .     S
C414   O460    1.284   .     A
C414   O459    1.284   .     A
C414   C430    1.419   .     S
C415   C416    1.402   .     A
C415   C948    1.416   .     S
C415   C972    1.413   .     S
C416   C420    1.414   .     A
C416   C423    1.419   .     A
C417   C421    1.389   .     A
C417   C946    1.416   1_554 S
C417   C949    1.420   1_554 S
C418   C419    1.389   .     A
C418   C948    1.420   .     S
C418   C968    1.400   .     S
C419   C420    1.385   .     A
C419   H450    1.084   .     S
C420   H455    1.077   .     S
C421   H452    1.078   .     S
C421   C438    1.396   .     A
C422   C437    1.390   .     A
C422   H442    1.083   .     S
C422   C438    1.399   .     A
C423   C425    1.477   .     S
C423   C439    1.403   .     A
C424   H456    1.084   .     S
C424   C430    1.397   .     A
C424   C72     1.370   1_565 S
C425   O461    1.306   .     A
C425   O462    1.286   .     A
C426   H443    1.084   .     S
C426   C427    1.397   .     A
C427   C435    1.420   .     S
C427   C428    1.397   .     A
C428   H444    1.084   .     S
C429   H445    1.084   .     S
C429   C430    1.397   .     A
C429   C74     1.370   1_565 S
C431   H446    1.081   .     S
C431   N458    1.367   .     A
C431   C491    1.416   .     S
C432   N457    1.367   .     A
C432   H447    1.081   .     S
C433   N457    1.366   .     A
C433   H448    1.081   .     S
C434   N458    1.367   .     A
C434   H449    1.080   .     S
C434   C492    1.415   .     S
C435   O463    1.284   .     A
C435   O464    1.284   .     A
C436   O465    1.291   .     A
C436   O466    1.293   .     A
C436   C438    1.452   .     S
C437   C949    1.400   1_554 S
C437   H982    1.083   1_554 S
C439   H453    1.084   .     S
C439   C440    1.404   .     A
C440   C972    1.402   .     S
C440   C1000   1.480   .     S
C441   H454    1.080   .     S
C441   C946    1.413   1_554 S
C441   C971    1.402   1_554 S
H451   C968    1.083   .     S
N457   Zn467   2.011   .     S
N458   Zn468   2.011   .     S
O459   Zn467   2.000   .     S
O460   Zn468   2.000   .     S
O461   Zn467   1.958   .     S
O462   Zn468   1.931   .     S
O463   Zn467   2.000   .     S
O464   Zn468   2.000   .     S
O465   Zn467   1.931   .     S
O466   Zn468   1.958   .     S
C469   O471    1.399   .     S
C469   C971    1.480   1_554 S
C469   O942    1.223   1_554 S
O470   C1059   1.223   .     S
H472   O530    1.014   .     S
C473   O519    1.284   .     A
C473   O518    1.284   .     A
C473   C489    1.419   .     S
C474   C475    1.402   .     A
C474   C1007   1.416   .     S
C474   C1031   1.413   .     S
C475   C479    1.414   .     A
C475   C482    1.419   .     A
C476   C480    1.389   .     A
C476   C1005   1.416   1_554 S
C476   C1008   1.420   1_554 S
C477   C478    1.389   .     A
C477   C1007   1.420   .     S
C477   C1027   1.400   .     S
C478   C479    1.385   .     A
C478   H509    1.084   .     S
C479   H514    1.077   .     S
C480   H511    1.078   .     S
C480   C497    1.396   .     A
C481   C496    1.390   .     A
C481   H501    1.083   .     S
C481   C497    1.399   .     A
C482   C484    1.477   .     S
C482   C498    1.403   .     A
C483   H515    1.084   .     S
C483   C489    1.397   .     A
C483   C131    1.370   1_565 S
C484   O520    1.306   .     A
C484   O521    1.286   .     A
C485   H502    1.084   .     S
C485   C486    1.397   .     A
C486   C494    1.420   .     S
C486   C487    1.397   .     A
C487   H503    1.084   .     S
C488   H504    1.084   .     S
C488   C489    1.397   .     A
C488   C133    1.370   1_565 S
C490   H505    1.081   .     S
C490   N517    1.367   .     A
C490   C373    1.416   1_655 S
C491   N516    1.367   .     A
C491   H506    1.081   .     S
C492   N516    1.366   .     A
C492   H507    1.081   .     S
C493   N517    1.367   .     A
C493   H508    1.080   .     S
C493   C374    1.415   1_655 S
C494   O522    1.284   .     A
C494   O523    1.284   .     A
C495   O524    1.291   .     A
C495   O525    1.293   .     A
C495   C497    1.452   .     S
C496   C1008   1.400   1_554 S
C496   H1041   1.083   1_554 S
C498   H512    1.084   .     S
C498   C499    1.404   .     A
C499   C1031   1.402   .     S
C499   C1059   1.480   .     S
C500   H513    1.080   .     S
C500   C1005   1.413   1_554 S
C500   C1030   1.402   1_554 S
H510   C1027   1.083   .     S
N516   Zn526   2.011   .     S
N517   Zn527   2.011   .     S
O518   Zn526   2.000   .     S
O519   Zn527   2.000   .     S
O520   Zn526   1.958   .     S
O521   Zn527   1.931   .     S
O522   Zn526   2.000   .     S
O523   Zn527   2.000   .     S
O524   Zn526   1.931   .     S
O525   Zn527   1.958   .     S
C528   O530    1.399   .     S
C528   C1030   1.480   1_554 S
C528   O1001   1.223   1_554 S
O529   C941    1.223   1_655 S
H531   O412    1.014   1_655 S
C532   O578    1.284   .     A
C532   O577    1.284   .     A
C532   C548    1.419   .     S
C533   C534    1.402   .     A
C533   C4      1.416   1_556 S
C533   C28     1.413   1_556 S
C534   C538    1.414   .     A
C534   C541    1.419   .     A
C535   C539    1.389   .     A
C536   C537    1.389   .     A
C536   C4      1.420   1_556 S
C536   C24     1.400   1_556 S
C537   C538    1.385   .     A
C537   H568    1.084   .     S
C538   H573    1.077   .     S
C539   H570    1.078   .     S
C539   C556    1.396   .     A
C540   C555    1.390   .     A
C540   H560    1.083   .     S
C540   C556    1.399   .     A
C541   C543    1.477   .     S
C541   C557    1.403   .     A
C542   H574    1.084   .     S
C542   C548    1.397   .     A
C542   C721    1.370   .     S
C543   O579    1.306   .     A
C543   O580    1.286   .     A
C544   H561    1.084   .     S
C544   C545    1.397   .     A
C544   C896    1.370   1_545 S
C545   C553    1.420   .     S
C545   C546    1.397   .     A
C546   H562    1.084   .     S
C546   C901    1.370   1_545 S
C547   H563    1.084   .     S
C547   C548    1.397   .     A
C547   C723    1.370   .     S
C549   H564    1.081   .     S
C549   N576    1.367   .     A
C549   C609    1.416   .     S
C550   N575    1.367   .     A
C550   H565    1.081   .     S
C550   C667    1.416   1_455 S
C551   N575    1.366   .     A
C551   H566    1.081   .     S
C551   C670    1.415   1_455 S
C552   N576    1.367   .     A
C552   H567    1.080   .     S
C552   C610    1.415   .     S
C553   O581    1.284   .     A
C553   O582    1.284   .     A
C554   O583    1.291   .     A
C554   O584    1.293   .     A
C554   C556    1.452   .     S
C557   H571    1.084   .     S
C557   C558    1.404   .     A
C558   C28     1.402   1_556 S
C558   C56     1.480   1_556 S
C559   H572    1.080   .     S
H569   C24     1.083   1_556 S
N575   Zn585   2.011   .     S
N576   Zn586   2.011   .     S
O577   Zn585   2.000   .     S
O578   Zn586   2.000   .     S
O579   Zn585   1.958   .     S
O580   Zn586   1.931   .     S
O581   Zn585   2.000   .     S
O582   Zn586   2.000   .     S
O583   Zn585   1.931   .     S
O584   Zn586   1.958   .     S
C587   O589    1.399   .     S
C587   O175    1.223   1_455 S
O588   C115    1.223   1_556 S
O589   H708    1.014   1_455 S
H590   O648    1.014   .     S
C591   O637    1.284   .     A
C591   O636    1.284   .     A
C591   C607    1.419   .     S
C592   C593    1.402   .     A
C592   C63     1.416   1_556 S
C592   C87     1.413   1_556 S
C593   C597    1.414   .     A
C593   C600    1.419   .     A
C594   C598    1.389   .     A
C595   C596    1.389   .     A
C595   C63     1.420   1_556 S
C595   C83     1.400   1_556 S
C596   C597    1.385   .     A
C596   H627    1.084   .     S
C597   H632    1.077   .     S
C598   H629    1.078   .     S
C598   C615    1.396   .     A
C599   C614    1.390   .     A
C599   H619    1.083   .     S
C599   C615    1.399   .     A
C600   C602    1.477   .     S
C600   C616    1.403   .     A
C601   H633    1.084   .     S
C601   C607    1.397   .     A
C601   C780    1.370   .     S
C602   O638    1.306   .     A
C602   O639    1.286   .     A
C603   H620    1.084   .     S
C603   C604    1.397   .     A
C603   C955    1.370   1_545 S
C604   C612    1.420   .     S
C604   C605    1.397   .     A
C605   H621    1.084   .     S
C605   C960    1.370   1_545 S
C606   H622    1.084   .     S
C606   C607    1.397   .     A
C606   C782    1.370   .     S
C608   H623    1.081   .     S
C608   N635    1.367   .     A
C608   C668    1.416   .     S
C609   N634    1.367   .     A
C609   H624    1.081   .     S
C610   N634    1.366   .     A
C610   H625    1.081   .     S
C611   N635    1.367   .     A
C611   H626    1.080   .     S
C611   C669    1.415   .     S
C612   O640    1.284   .     A
C612   O641    1.284   .     A
C613   O642    1.291   .     A
C613   O643    1.293   .     A
C613   C615    1.452   .     S
C616   H630    1.084   .     S
C616   C617    1.404   .     A
C617   C87     1.402   1_556 S
C617   C115    1.480   1_556 S
C618   H631    1.080   .     S
H628   C83     1.083   1_556 S
N634   Zn644   2.011   .     S
N635   Zn645   2.011   .     S
O636   Zn644   2.000   .     S
O637   Zn645   2.000   .     S
O638   Zn644   1.958   .     S
O639   Zn645   1.931   .     S
O640   Zn644   2.000   .     S
O641   Zn645   2.000   .     S
O642   Zn644   1.931   .     S
O643   Zn645   1.958   .     S
C646   O648    1.399   .     S
O647   C174    1.223   1_556 S
H649   O707    1.014   .     S
C650   O696    1.284   .     A
C650   O695    1.284   .     A
C650   C666    1.419   .     S
C651   C652    1.402   .     A
C651   C122    1.416   1_556 S
C651   C146    1.413   1_556 S
C652   C656    1.414   .     A
C652   C659    1.419   .     A
C653   C657    1.389   .     A
C654   C655    1.389   .     A
C654   C122    1.420   1_556 S
C654   C142    1.400   1_556 S
C655   C656    1.385   .     A
C655   H686    1.084   .     S
C656   H691    1.077   .     S
C657   H688    1.078   .     S
C657   C674    1.396   .     A
C658   C673    1.390   .     A
C658   H678    1.083   .     S
C658   C674    1.399   .     A
C659   C661    1.477   .     S
C659   C675    1.403   .     A
C660   H692    1.084   .     S
C660   C666    1.397   .     A
C660   C839    1.370   .     S
C661   O697    1.306   .     A
C661   O698    1.286   .     A
C662   H679    1.084   .     S
C662   C663    1.397   .     A
C662   C1014   1.370   1_545 S
C663   C671    1.420   .     S
C663   C664    1.397   .     A
C664   H680    1.084   .     S
C664   C1019   1.370   1_545 S
C665   H681    1.084   .     S
C665   C666    1.397   .     A
C665   C841    1.370   .     S
C667   H682    1.081   .     S
C667   N694    1.367   .     A
C667   C550    1.416   1_655 S
C668   N693    1.367   .     A
C668   H683    1.081   .     S
C669   N693    1.366   .     A
C669   H684    1.081   .     S
C670   N694    1.367   .     A
C670   H685    1.080   .     S
C670   C551    1.415   1_655 S
C671   O699    1.284   .     A
C671   O700    1.284   .     A
C672   O701    1.291   .     A
C672   O702    1.293   .     A
C672   C674    1.452   .     S
C675   H689    1.084   .     S
C675   C676    1.404   .     A
C676   C146    1.402   1_556 S
C676   C174    1.480   1_556 S
C677   H690    1.080   .     S
H687   C142    1.083   1_556 S
N693   Zn703   2.011   .     S
N694   Zn704   2.011   .     S
O695   Zn703   2.000   .     S
O696   Zn704   2.000   .     S
O697   Zn703   1.958   .     S
O698   Zn704   1.931   .     S
O699   Zn703   2.000   .     S
O700   Zn704   2.000   .     S
O701   Zn703   1.931   .     S
O702   Zn704   1.958   .     S
C705   O707    1.399   .     S
O706   C56     1.223   1_656 S
H708   O589    1.014   1_655 S
C709   O755    1.284   .     A
C709   O754    1.284   .     A
C709   C725    1.419   .     S
C710   C711    1.402   .     A
C710   C181    1.416   1_556 S
C710   C205    1.413   1_556 S
C711   C715    1.414   .     A
C711   C718    1.419   .     A
C712   C716    1.389   .     A
C713   C714    1.389   .     A
C713   C181    1.420   1_556 S
C713   C201    1.400   1_556 S
C714   C715    1.385   .     A
C714   H745    1.084   .     S
C715   H750    1.077   .     S
C716   H747    1.078   .     S
C716   C733    1.396   .     A
C717   C732    1.390   .     A
C717   H737    1.083   .     S
C717   C733    1.399   .     A
C718   C720    1.477   .     S
C718   C734    1.403   .     A
C719   H751    1.084   .     S
C719   C725    1.397   .     A
C719   C898    1.370   .     S
C720   O756    1.306   .     A
C720   O757    1.286   .     A
C721   H738    1.084   .     S
C721   C722    1.397   .     A
C722   C730    1.420   .     S
C722   C723    1.397   .     A
C723   H739    1.084   .     S
C724   H740    1.084   .     S
C724   C725    1.397   .     A
C724   C900    1.370   .     S
C726   H741    1.081   .     S
C726   N753    1.367   .     A
C726   C786    1.416   .     S
C727   N752    1.367   .     A
C727   H742    1.081   .     S
C727   C844    1.416   1_455 S
C728   N752    1.366   .     A
C728   H743    1.081   .     S
C728   C847    1.415   1_455 S
C729   N753    1.367   .     A
C729   H744    1.080   .     S
C729   C787    1.415   .     S
C730   O758    1.284   .     A
C730   O759    1.284   .     A
C731   O760    1.291   .     A
C731   O761    1.293   .     A
C731   C733    1.452   .     S
C734   H748    1.084   .     S
C734   C735    1.404   .     A
C735   C205    1.402   1_556 S
C735   C233    1.480   1_556 S
C736   H749    1.080   .     S
H746   C201    1.083   1_556 S
N752   Zn762   2.011   .     S
N753   Zn763   2.011   .     S
O754   Zn762   2.000   .     S
O755   Zn763   2.000   .     S
O756   Zn762   1.958   .     S
O757   Zn763   1.931   .     S
O758   Zn762   2.000   .     S
O759   Zn763   2.000   .     S
O760   Zn762   1.931   .     S
O761   Zn763   1.958   .     S
C764   O766    1.399   .     S
C764   O352    1.223   1_455 S
O765   C292    1.223   1_556 S
O766   H885    1.014   1_455 S
H767   O825    1.014   .     S
C768   O814    1.284   .     A
C768   O813    1.284   .     A
C768   C784    1.419   .     S
C769   C770    1.402   .     A
C769   C240    1.416   1_556 S
C769   C264    1.413   1_556 S
C770   C774    1.414   .     A
C770   C777    1.419   .     A
C771   C775    1.389   .     A
C772   C773    1.389   .     A
C772   C240    1.420   1_556 S
C772   C260    1.400   1_556 S
C773   C774    1.385   .     A
C773   H804    1.084   .     S
C774   H809    1.077   .     S
C775   H806    1.078   .     S
C775   C792    1.396   .     A
C776   C791    1.390   .     A
C776   H796    1.083   .     S
C776   C792    1.399   .     A
C777   C779    1.477   .     S
C777   C793    1.403   .     A
C778   H810    1.084   .     S
C778   C784    1.397   .     A
C778   C957    1.370   .     S
C779   O815    1.306   .     A
C779   O816    1.286   .     A
C780   H797    1.084   .     S
C780   C781    1.397   .     A
C781   C789    1.420   .     S
C781   C782    1.397   .     A
C782   H798    1.084   .     S
C783   H799    1.084   .     S
C783   C784    1.397   .     A
C783   C959    1.370   .     S
C785   H800    1.081   .     S
C785   N812    1.367   .     A
C785   C845    1.416   .     S
C786   N811    1.367   .     A
C786   H801    1.081   .     S
C787   N811    1.366   .     A
C787   H802    1.081   .     S
C788   N812    1.367   .     A
C788   H803    1.080   .     S
C788   C846    1.415   .     S
C789   O817    1.284   .     A
C789   O818    1.284   .     A
C790   O819    1.291   .     A
C790   O820    1.293   .     A
C790   C792    1.452   .     S
C793   H807    1.084   .     S
C793   C794    1.404   .     A
C794   C264    1.402   1_556 S
C794   C292    1.480   1_556 S
C795   H808    1.080   .     S
H805   C260    1.083   1_556 S
N811   Zn821   2.011   .     S
N812   Zn822   2.011   .     S
O813   Zn821   2.000   .     S
O814   Zn822   2.000   .     S
O815   Zn821   1.958   .     S
O816   Zn822   1.931   .     S
O817   Zn821   2.000   .     S
O818   Zn822   2.000   .     S
O819   Zn821   1.931   .     S
O820   Zn822   1.958   .     S
C823   O825    1.399   .     S
O824   C351    1.223   1_556 S
H826   O884    1.014   .     S
C827   O873    1.284   .     A
C827   O872    1.284   .     A
C827   C843    1.419   .     S
C828   C829    1.402   .     A
C828   C299    1.416   1_556 S
C828   C323    1.413   1_556 S
C829   C833    1.414   .     A
C829   C836    1.419   .     A
C830   C834    1.389   .     A
C831   C832    1.389   .     A
C831   C299    1.420   1_556 S
C831   C319    1.400   1_556 S
C832   C833    1.385   .     A
C832   H863    1.084   .     S
C833   H868    1.077   .     S
C834   H865    1.078   .     S
C834   C851    1.396   .     A
C835   C850    1.390   .     A
C835   H855    1.083   .     S
C835   C851    1.399   .     A
C836   C838    1.477   .     S
C836   C852    1.403   .     A
C837   H869    1.084   .     S
C837   C843    1.397   .     A
C837   C1016   1.370   .     S
C838   O874    1.306   .     A
C838   O875    1.286   .     A
C839   H856    1.084   .     S
C839   C840    1.397   .     A
C840   C848    1.420   .     S
C840   C841    1.397   .     A
C841   H857    1.084   .     S
C842   H858    1.084   .     S
C842   C843    1.397   .     A
C842   C1018   1.370   .     S
C844   H859    1.081   .     S
C844   N871    1.367   .     A
C844   C727    1.416   1_655 S
C845   N870    1.367   .     A
C845   H860    1.081   .     S
C846   N870    1.366   .     A
C846   H861    1.081   .     S
C847   N871    1.367   .     A
C847   H862    1.080   .     S
C847   C728    1.415   1_655 S
C848   O876    1.284   .     A
C848   O877    1.284   .     A
C849   O878    1.291   .     A
C849   O879    1.293   .     A
C849   C851    1.452   .     S
C852   H866    1.084   .     S
C852   C853    1.404   .     A
C853   C323    1.402   1_556 S
C853   C351    1.480   1_556 S
C854   H867    1.080   .     S
H864   C319    1.083   1_556 S
N870   Zn880   2.011   .     S
N871   Zn881   2.011   .     S
O872   Zn880   2.000   .     S
O873   Zn881   2.000   .     S
O874   Zn880   1.958   .     S
O875   Zn881   1.931   .     S
O876   Zn880   2.000   .     S
O877   Zn881   2.000   .     S
O878   Zn880   1.931   .     S
O879   Zn881   1.958   .     S
C882   O884    1.399   .     S
O883   C233    1.223   1_656 S
H885   O766    1.014   1_655 S
C886   O932    1.284   .     A
C886   O931    1.284   .     A
C886   C902    1.419   .     S
C887   C888    1.402   .     A
C887   C358    1.416   1_556 S
C887   C382    1.413   1_556 S
C888   C892    1.414   .     A
C888   C895    1.419   .     A
C889   C893    1.389   .     A
C890   C891    1.389   .     A
C890   C358    1.420   1_556 S
C890   C378    1.400   1_556 S
C891   C892    1.385   .     A
C891   H922    1.084   .     S
C892   H927    1.077   .     S
C893   H924    1.078   .     S
C893   C910    1.396   .     A
C894   C909    1.390   .     A
C894   H914    1.083   .     S
C894   C910    1.399   .     A
C895   C897    1.477   .     S
C895   C911    1.403   .     A
C896   H928    1.084   .     S
C896   C902    1.397   .     A
C896   C544    1.370   1_565 S
C897   O933    1.306   .     A
C897   O934    1.286   .     A
C898   H915    1.084   .     S
C898   C899    1.397   .     A
C899   C907    1.420   .     S
C899   C900    1.397   .     A
C900   H916    1.084   .     S
C901   H917    1.084   .     S
C901   C902    1.397   .     A
C901   C546    1.370   1_565 S
C903   H918    1.081   .     S
C903   N930    1.367   .     A
C903   C963    1.416   .     S
C904   N929    1.367   .     A
C904   H919    1.081   .     S
C904   C1021   1.416   1_455 S
C905   N929    1.366   .     A
C905   H920    1.081   .     S
C905   C1024   1.415   1_455 S
C906   N930    1.367   .     A
C906   H921    1.080   .     S
C906   C964    1.415   .     S
C907   O935    1.284   .     A
C907   O936    1.284   .     A
C908   O937    1.291   .     A
C908   O938    1.293   .     A
C908   C910    1.452   .     S
C911   H925    1.084   .     S
C911   C912    1.404   .     A
C912   C382    1.402   1_556 S
C912   C410    1.480   1_556 S
C913   H926    1.080   .     S
H923   C378    1.083   1_556 S
N929   Zn939   2.011   .     S
N930   Zn940   2.011   .     S
O931   Zn939   2.000   .     S
O932   Zn940   2.000   .     S
O933   Zn939   1.958   .     S
O934   Zn940   1.931   .     S
O935   Zn939   2.000   .     S
O936   Zn940   2.000   .     S
O937   Zn939   1.931   .     S
O938   Zn940   1.958   .     S
C941   O943    1.399   .     S
C941   O529    1.223   1_455 S
O942   C469    1.223   1_556 S
O943   H1062   1.014   1_455 S
H944   O1002   1.014   .     S
C945   O991    1.284   .     A
C945   O990    1.284   .     A
C945   C961    1.419   .     S
C946   C947    1.402   .     A
C946   C417    1.416   1_556 S
C946   C441    1.413   1_556 S
C947   C951    1.414   .     A
C947   C954    1.419   .     A
C948   C952    1.389   .     A
C949   C950    1.389   .     A
C949   C417    1.420   1_556 S
C949   C437    1.400   1_556 S
C950   C951    1.385   .     A
C950   H981    1.084   .     S
C951   H986    1.077   .     S
C952   H983    1.078   .     S
C952   C969    1.396   .     A
C953   C968    1.390   .     A
C953   H973    1.083   .     S
C953   C969    1.399   .     A
C954   C956    1.477   .     S
C954   C970    1.403   .     A
C955   H987    1.084   .     S
C955   C961    1.397   .     A
C955   C603    1.370   1_565 S
C956   O992    1.306   .     A
C956   O993    1.286   .     A
C957   H974    1.084   .     S
C957   C958    1.397   .     A
C958   C966    1.420   .     S
C958   C959    1.397   .     A
C959   H975    1.084   .     S
C960   H976    1.084   .     S
C960   C961    1.397   .     A
C960   C605    1.370   1_565 S
C962   H977    1.081   .     S
C962   N989    1.367   .     A
C962   C1022   1.416   .     S
C963   N988    1.367   .     A
C963   H978    1.081   .     S
C964   N988    1.366   .     A
C964   H979    1.081   .     S
C965   N989    1.367   .     A
C965   H980    1.080   .     S
C965   C1023   1.415   .     S
C966   O994    1.284   .     A
C966   O995    1.284   .     A
C967   O996    1.291   .     A
C967   O997    1.293   .     A
C967   C969    1.452   .     S
C970   H984    1.084   .     S
C970   C971    1.404   .     A
C971   C441    1.402   1_556 S
C971   C469    1.480   1_556 S
C972   H985    1.080   .     S
H982   C437    1.083   1_556 S
N988   Zn998   2.011   .     S
N989   Zn999   2.011   .     S
O990   Zn998   2.000   .     S
O991   Zn999   2.000   .     S
O992   Zn998   1.958   .     S
O993   Zn999   1.931   .     S
O994   Zn998   2.000   .     S
O995   Zn999   2.000   .     S
O996   Zn998   1.931   .     S
O997   Zn999   1.958   .     S
C1000  O1002   1.399   .     S
O1001  C528    1.223   1_556 S
H1003  O1061   1.014   .     S
C1004  O1050   1.284   .     A
C1004  O1049   1.284   .     A
C1004  C1020   1.419   .     S
C1005  C1006   1.402   .     A
C1005  C476    1.416   1_556 S
C1005  C500    1.413   1_556 S
C1006  C1010   1.414   .     A
C1006  C1013   1.419   .     A
C1007  C1011   1.389   .     A
C1008  C1009   1.389   .     A
C1008  C476    1.420   1_556 S
C1008  C496    1.400   1_556 S
C1009  C1010   1.385   .     A
C1009  H1040   1.084   .     S
C1010  H1045   1.077   .     S
C1011  H1042   1.078   .     S
C1011  C1028   1.396   .     A
C1012  C1027   1.390   .     A
C1012  H1032   1.083   .     S
C1012  C1028   1.399   .     A
C1013  C1015   1.477   .     S
C1013  C1029   1.403   .     A
C1014  H1046   1.084   .     S
C1014  C1020   1.397   .     A
C1014  C662    1.370   1_565 S
C1015  O1051   1.306   .     A
C1015  O1052   1.286   .     A
C1016  H1033   1.084   .     S
C1016  C1017   1.397   .     A
C1017  C1025   1.420   .     S
C1017  C1018   1.397   .     A
C1018  H1034   1.084   .     S
C1019  H1035   1.084   .     S
C1019  C1020   1.397   .     A
C1019  C664    1.370   1_565 S
C1021  H1036   1.081   .     S
C1021  N1048   1.367   .     A
C1021  C904    1.416   1_655 S
C1022  N1047   1.367   .     A
C1022  H1037   1.081   .     S
C1023  N1047   1.366   .     A
C1023  H1038   1.081   .     S
C1024  N1048   1.367   .     A
C1024  H1039   1.080   .     S
C1024  C905    1.415   1_655 S
C1025  O1053   1.284   .     A
C1025  O1054   1.284   .     A
C1026  O1055   1.291   .     A
C1026  O1056   1.293   .     A
C1026  C1028   1.452   .     S
C1029  H1043   1.084   .     S
C1029  C1030   1.404   .     A
C1030  C500    1.402   1_556 S
C1030  C528    1.480   1_556 S
C1031  H1044   1.080   .     S
H1041  C496    1.083   1_556 S
N1047  Zn1057  2.011   .     S
N1048  Zn1058  2.011   .     S
O1049  Zn1057  2.000   .     S
O1050  Zn1058  2.000   .     S
O1051  Zn1057  1.958   .     S
O1052  Zn1058  1.931   .     S
O1053  Zn1057  2.000   .     S
O1054  Zn1058  2.000   .     S
O1055  Zn1057  1.931   .     S
O1056  Zn1058  1.958   .     S
C1059  O1061   1.399   .     S
O1060  C410    1.223   1_656 S
H1062  O943    1.014   1_655 S
