data_str_m3_o1_o16_pcu_sym.40
_audit_creation_date              2020-01-03
_audit_creation_method            'Materials Studio'
_symmetry_space_group_name_H-M    'P1'
_symmetry_Int_Tables_number       1
_symmetry_cell_setting            triclinic
loop_
_symmetry_equiv_pos_as_xyz
  x,y,z
_cell_length_a                    29.7121
_cell_length_b                    32.2289
_cell_length_c                    26.3747
_cell_angle_alpha                 90.4362
_cell_angle_beta                  70.1420
_cell_angle_gamma                 89.7284
loop_
_atom_site_label
_atom_site_type_symbol
_atom_site_fract_x
_atom_site_fract_y
_atom_site_fract_z
_atom_site_U_iso_or_equiv
_atom_site_adp_type
_atom_site_occupancy
C1     C     0.16721   0.24649   0.24756   0.00000  Uiso   1.00
C2     C     0.12289   0.16294   0.41095   0.00000  Uiso   1.00
C3     C     0.19643   0.31122   0.26790   0.00000  Uiso   1.00
C4     C     0.14007   0.16489   0.35200   0.00000  Uiso   1.00
C5     C     0.19853   0.02009   0.26751   0.00000  Uiso   1.00
C6     C     0.17001   0.04237   0.24373   0.00000  Uiso   1.00
C7     C     0.14468   0.02157   0.21454   0.00000  Uiso   1.00
C8     C     0.14358   0.31182   0.21476   0.00000  Uiso   1.00
C9     C     0.16824   0.29051   0.24364   0.00000  Uiso   1.00
C10    C     0.32034   0.14195   0.21494   0.00000  Uiso   1.00
C11    C     0.03469   0.14216   0.21494   0.00000  Uiso   1.00
C12    C     0.14416   0.16175   0.49215   0.00000  Uiso   1.00
C13    C     0.01373   0.19152   0.28498   0.00000  Uiso   1.00
C14    C     0.29906   0.19151   0.28545   0.00000  Uiso   1.00
C15    C     0.16746   0.08664   0.24837   0.00000  Uiso   1.00
C16    C     0.19322   0.16693   0.14810   0.00000  Uiso   1.00
C17    C     0.25940   0.12861   0.00864   0.00000  Uiso   1.00
C18    C     0.20927   0.16273   0.08994   0.00000  Uiso   1.00
C19    C     0.07777   0.17949   0.44043   0.00000  Uiso   1.00
C20    C     0.06499   0.18574   0.49570   0.00000  Uiso   1.00
C21    C     0.09813   0.17813   0.02134   0.00000  Uiso   1.00
C22    C     0.15391   0.14968   0.43805   0.00000  Uiso   1.00
C23    C     0.18080   0.15655   0.01471   0.00000  Uiso   1.00
C24    C     0.22355   0.13458   0.48583   0.00000  Uiso   1.00
C25    C     0.22929   0.11788   0.43532   0.00000  Uiso   1.00
C26    C     0.19461   0.12493   0.41213   0.00000  Uiso   1.00
C27    C     0.17626   0.17280   0.06516   0.00000  Uiso   1.00
C28    C     0.25191   0.14207   0.06114   0.00000  Uiso   1.00
Cl29   Cl    0.11786   0.04846   0.17365   0.00000  Uiso   1.00
Cl30   Cl    0.11398   0.28525   0.17617   0.00000  Uiso   1.00
Cl31   Cl    0.30650   0.10897   0.16933   0.00000  Uiso   1.00
Cl32   Cl    0.03067   0.22406   0.32919   0.00000  Uiso   1.00
H33    H     0.27803   0.13448   0.07991   0.00000  Uiso   1.00
H34    H     0.21698   0.29447   0.28785   0.00000  Uiso   1.00
H35    H     0.06144   0.12276   0.18658   0.00000  Uiso   1.00
H36    H     0.26073   0.09959   0.41352   0.00000  Uiso   1.00
H37    H     0.29210   0.11190   0.48685   0.00000  Uiso   1.00
H38    H     0.14602   0.19195   0.08736   0.00000  Uiso   1.00
H39    H     0.05290   0.18873   0.42062   0.00000  Uiso   1.00
H40    H     0.08624   0.18428   0.06412   0.00000  Uiso   1.00
H41    H     0.02993   0.19814   0.01844   0.00000  Uiso   1.00
H42    H     0.19962   0.11046   0.37376   0.00000  Uiso   1.00
I43    I     0.24748   0.04394   0.30364   0.00000  Uiso   1.00
I44    I     0.24988   0.23116   0.34367   0.00000  Uiso   1.00
N45    N     0.04760   0.16668   0.25002   0.00000  Uiso   1.00
N46    N     0.28573   0.16665   0.25000   0.00000  Uiso   1.00
O47    O     0.12846   0.22775   0.25000   0.00000  Uiso   1.00
O48    O     0.20490   0.22774   0.25000   0.00000  Uiso   1.00
O49    O     0.10947   0.16666   0.32681   0.00000  Uiso   1.00
O50    O     0.18591   0.16665   0.32681   0.00000  Uiso   1.00
O51    O     0.12843   0.10559   0.24999   0.00000  Uiso   1.00
O52    O     0.20488   0.10558   0.24999   0.00000  Uiso   1.00
O53    O     0.14742   0.16668   0.17319   0.00000  Uiso   1.00
O54    O     0.22387   0.16667   0.17319   0.00000  Uiso   1.00
Zn55   Zn    0.11562   0.16667   0.25000   0.00000  Uiso   1.00
Zn56   Zn    0.21771   0.16666   0.25000   0.00000  Uiso   1.00
C57    C     0.50054   0.24649   0.24756   0.00000  Uiso   1.00
C58    C     0.45622   0.16294   0.41095   0.00000  Uiso   1.00
C59    C     0.52977   0.31122   0.26790   0.00000  Uiso   1.00
C60    C     0.47340   0.16489   0.35200   0.00000  Uiso   1.00
C61    C     0.53186   0.02009   0.26751   0.00000  Uiso   1.00
C62    C     0.50335   0.04237   0.24373   0.00000  Uiso   1.00
C63    C     0.47802   0.02157   0.21454   0.00000  Uiso   1.00
C64    C     0.47692   0.31182   0.21476   0.00000  Uiso   1.00
C65    C     0.50158   0.29051   0.24364   0.00000  Uiso   1.00
C66    C     0.65367   0.14195   0.21494   0.00000  Uiso   1.00
C67    C     0.36802   0.14216   0.21494   0.00000  Uiso   1.00
C68    C     0.47749   0.16175   0.49215   0.00000  Uiso   1.00
C69    C     0.34706   0.19152   0.28498   0.00000  Uiso   1.00
C70    C     0.63239   0.19151   0.28545   0.00000  Uiso   1.00
C71    C     0.50080   0.08664   0.24837   0.00000  Uiso   1.00
C72    C     0.52656   0.16693   0.14810   0.00000  Uiso   1.00
C73    C     0.59274   0.12861   0.00864   0.00000  Uiso   1.00
C74    C     0.54261   0.16273   0.08994   0.00000  Uiso   1.00
C75    C     0.41110   0.17949   0.44043   0.00000  Uiso   1.00
C76    C     0.39832   0.18574   0.49570   0.00000  Uiso   1.00
C77    C     0.43146   0.17813   0.02134   0.00000  Uiso   1.00
C78    C     0.48725   0.14968   0.43805   0.00000  Uiso   1.00
C79    C     0.51413   0.15655   0.01471   0.00000  Uiso   1.00
C80    C     0.55689   0.13458   0.48583   0.00000  Uiso   1.00
C81    C     0.56263   0.11788   0.43532   0.00000  Uiso   1.00
C82    C     0.52795   0.12493   0.41213   0.00000  Uiso   1.00
C83    C     0.50959   0.17280   0.06516   0.00000  Uiso   1.00
C84    C     0.58524   0.14207   0.06114   0.00000  Uiso   1.00
Cl85   Cl    0.45119   0.04846   0.17365   0.00000  Uiso   1.00
Cl86   Cl    0.44731   0.28525   0.17617   0.00000  Uiso   1.00
Cl87   Cl    0.63983   0.10897   0.16933   0.00000  Uiso   1.00
Cl88   Cl    0.36401   0.22406   0.32919   0.00000  Uiso   1.00
H89    H     0.61137   0.13448   0.07991   0.00000  Uiso   1.00
H90    H     0.55031   0.29447   0.28785   0.00000  Uiso   1.00
H91    H     0.39477   0.12276   0.18658   0.00000  Uiso   1.00
H92    H     0.59406   0.09959   0.41352   0.00000  Uiso   1.00
H93    H     0.62543   0.11190   0.48685   0.00000  Uiso   1.00
H94    H     0.47935   0.19195   0.08736   0.00000  Uiso   1.00
H95    H     0.38623   0.18873   0.42062   0.00000  Uiso   1.00
H96    H     0.41957   0.18428   0.06412   0.00000  Uiso   1.00
H97    H     0.36326   0.19814   0.01844   0.00000  Uiso   1.00
H98    H     0.53296   0.11046   0.37376   0.00000  Uiso   1.00
I99    I     0.58081   0.04394   0.30364   0.00000  Uiso   1.00
I100   I     0.58321   0.23116   0.34367   0.00000  Uiso   1.00
N101   N     0.38093   0.16668   0.25002   0.00000  Uiso   1.00
N102   N     0.61906   0.16665   0.25000   0.00000  Uiso   1.00
O103   O     0.46179   0.22775   0.25000   0.00000  Uiso   1.00
O104   O     0.53823   0.22774   0.25000   0.00000  Uiso   1.00
O105   O     0.44280   0.16666   0.32681   0.00000  Uiso   1.00
O106   O     0.51924   0.16665   0.32681   0.00000  Uiso   1.00
O107   O     0.46177   0.10559   0.24999   0.00000  Uiso   1.00
O108   O     0.53821   0.10558   0.24999   0.00000  Uiso   1.00
O109   O     0.48076   0.16668   0.17319   0.00000  Uiso   1.00
O110   O     0.55720   0.16667   0.17319   0.00000  Uiso   1.00
Zn111  Zn    0.44896   0.16667   0.25000   0.00000  Uiso   1.00
Zn112  Zn    0.55104   0.16666   0.25000   0.00000  Uiso   1.00
C113   C     0.83387   0.24649   0.24756   0.00000  Uiso   1.00
C114   C     0.78956   0.16294   0.41095   0.00000  Uiso   1.00
C115   C     0.86310   0.31122   0.26790   0.00000  Uiso   1.00
C116   C     0.80673   0.16489   0.35200   0.00000  Uiso   1.00
C117   C     0.86519   0.02009   0.26751   0.00000  Uiso   1.00
C118   C     0.83668   0.04237   0.24373   0.00000  Uiso   1.00
C119   C     0.81135   0.02157   0.21454   0.00000  Uiso   1.00
C120   C     0.81025   0.31182   0.21476   0.00000  Uiso   1.00
C121   C     0.83491   0.29051   0.24364   0.00000  Uiso   1.00
C122   C     0.98701   0.14195   0.21494   0.00000  Uiso   1.00
C123   C     0.70136   0.14216   0.21494   0.00000  Uiso   1.00
C124   C     0.81083   0.16175   0.49215   0.00000  Uiso   1.00
C125   C     0.68039   0.19152   0.28498   0.00000  Uiso   1.00
C126   C     0.96573   0.19151   0.28545   0.00000  Uiso   1.00
C127   C     0.83413   0.08664   0.24837   0.00000  Uiso   1.00
C128   C     0.85989   0.16693   0.14810   0.00000  Uiso   1.00
C129   C     0.92607   0.12861   0.00864   0.00000  Uiso   1.00
C130   C     0.87594   0.16273   0.08994   0.00000  Uiso   1.00
C131   C     0.74443   0.17949   0.44043   0.00000  Uiso   1.00
C132   C     0.73165   0.18574   0.49570   0.00000  Uiso   1.00
C133   C     0.76479   0.17813   0.02134   0.00000  Uiso   1.00
C134   C     0.82058   0.14968   0.43805   0.00000  Uiso   1.00
C135   C     0.84747   0.15655   0.01471   0.00000  Uiso   1.00
C136   C     0.89022   0.13458   0.48583   0.00000  Uiso   1.00
C137   C     0.89596   0.11788   0.43532   0.00000  Uiso   1.00
C138   C     0.86128   0.12493   0.41213   0.00000  Uiso   1.00
C139   C     0.84293   0.17280   0.06516   0.00000  Uiso   1.00
C140   C     0.91857   0.14207   0.06114   0.00000  Uiso   1.00
Cl141  Cl    0.78452   0.04846   0.17365   0.00000  Uiso   1.00
Cl142  Cl    0.78064   0.28525   0.17617   0.00000  Uiso   1.00
Cl143  Cl    0.97316   0.10897   0.16933   0.00000  Uiso   1.00
Cl144  Cl    0.69734   0.22406   0.32919   0.00000  Uiso   1.00
H145   H     0.94470   0.13448   0.07991   0.00000  Uiso   1.00
H146   H     0.88364   0.29447   0.28785   0.00000  Uiso   1.00
H147   H     0.72810   0.12276   0.18658   0.00000  Uiso   1.00
H148   H     0.92740   0.09959   0.41352   0.00000  Uiso   1.00
H149   H     0.95877   0.11190   0.48685   0.00000  Uiso   1.00
H150   H     0.81268   0.19195   0.08736   0.00000  Uiso   1.00
H151   H     0.71956   0.18873   0.42062   0.00000  Uiso   1.00
H152   H     0.75291   0.18428   0.06412   0.00000  Uiso   1.00
H153   H     0.69659   0.19814   0.01844   0.00000  Uiso   1.00
H154   H     0.86629   0.11046   0.37376   0.00000  Uiso   1.00
I155   I     0.91414   0.04394   0.30364   0.00000  Uiso   1.00
I156   I     0.91654   0.23116   0.34367   0.00000  Uiso   1.00
N157   N     0.71426   0.16668   0.25002   0.00000  Uiso   1.00
N158   N     0.95239   0.16665   0.25000   0.00000  Uiso   1.00
O159   O     0.79512   0.22775   0.25000   0.00000  Uiso   1.00
O160   O     0.87157   0.22774   0.25000   0.00000  Uiso   1.00
O161   O     0.77613   0.16666   0.32681   0.00000  Uiso   1.00
O162   O     0.85258   0.16665   0.32681   0.00000  Uiso   1.00
O163   O     0.79510   0.10559   0.24999   0.00000  Uiso   1.00
O164   O     0.87154   0.10558   0.24999   0.00000  Uiso   1.00
O165   O     0.81409   0.16668   0.17319   0.00000  Uiso   1.00
O166   O     0.89053   0.16667   0.17319   0.00000  Uiso   1.00
Zn167  Zn    0.78229   0.16667   0.25000   0.00000  Uiso   1.00
Zn168  Zn    0.88438   0.16666   0.25000   0.00000  Uiso   1.00
C169   C     0.16721   0.57982   0.24756   0.00000  Uiso   1.00
C170   C     0.12289   0.49627   0.41095   0.00000  Uiso   1.00
C171   C     0.19643   0.64455   0.26790   0.00000  Uiso   1.00
C172   C     0.14007   0.49822   0.35200   0.00000  Uiso   1.00
C173   C     0.19853   0.35343   0.26751   0.00000  Uiso   1.00
C174   C     0.17001   0.37570   0.24373   0.00000  Uiso   1.00
C175   C     0.14468   0.35491   0.21454   0.00000  Uiso   1.00
C176   C     0.14358   0.64515   0.21476   0.00000  Uiso   1.00
C177   C     0.16824   0.62384   0.24364   0.00000  Uiso   1.00
C178   C     0.32034   0.47528   0.21494   0.00000  Uiso   1.00
C179   C     0.03469   0.47550   0.21494   0.00000  Uiso   1.00
C180   C     0.14416   0.49509   0.49215   0.00000  Uiso   1.00
C181   C     0.01373   0.52485   0.28498   0.00000  Uiso   1.00
C182   C     0.29906   0.52484   0.28545   0.00000  Uiso   1.00
C183   C     0.16746   0.41997   0.24837   0.00000  Uiso   1.00
C184   C     0.19322   0.50027   0.14810   0.00000  Uiso   1.00
C185   C     0.25940   0.46194   0.00864   0.00000  Uiso   1.00
C186   C     0.20927   0.49606   0.08994   0.00000  Uiso   1.00
C187   C     0.07777   0.51282   0.44043   0.00000  Uiso   1.00
C188   C     0.06499   0.51907   0.49570   0.00000  Uiso   1.00
C189   C     0.09813   0.51146   0.02134   0.00000  Uiso   1.00
C190   C     0.15391   0.48301   0.43805   0.00000  Uiso   1.00
C191   C     0.18080   0.48988   0.01471   0.00000  Uiso   1.00
C192   C     0.22355   0.46791   0.48583   0.00000  Uiso   1.00
C193   C     0.22929   0.45121   0.43532   0.00000  Uiso   1.00
C194   C     0.19461   0.45826   0.41213   0.00000  Uiso   1.00
C195   C     0.17626   0.50613   0.06516   0.00000  Uiso   1.00
C196   C     0.25191   0.47541   0.06114   0.00000  Uiso   1.00
Cl197  Cl    0.11786   0.38179   0.17365   0.00000  Uiso   1.00
Cl198  Cl    0.11398   0.61858   0.17617   0.00000  Uiso   1.00
Cl199  Cl    0.30650   0.44230   0.16933   0.00000  Uiso   1.00
Cl200  Cl    0.03067   0.55739   0.32919   0.00000  Uiso   1.00
H201   H     0.27803   0.46781   0.07991   0.00000  Uiso   1.00
H202   H     0.21698   0.62781   0.28785   0.00000  Uiso   1.00
H203   H     0.06144   0.45609   0.18658   0.00000  Uiso   1.00
H204   H     0.26073   0.43292   0.41352   0.00000  Uiso   1.00
H205   H     0.29210   0.44523   0.48685   0.00000  Uiso   1.00
H206   H     0.14602   0.52529   0.08736   0.00000  Uiso   1.00
H207   H     0.05290   0.52206   0.42062   0.00000  Uiso   1.00
H208   H     0.08624   0.51762   0.06412   0.00000  Uiso   1.00
H209   H     0.02993   0.53147   0.01844   0.00000  Uiso   1.00
H210   H     0.19962   0.44379   0.37376   0.00000  Uiso   1.00
I211   I     0.24748   0.37727   0.30364   0.00000  Uiso   1.00
I212   I     0.24988   0.56449   0.34367   0.00000  Uiso   1.00
N213   N     0.04760   0.50001   0.25002   0.00000  Uiso   1.00
N214   N     0.28573   0.49998   0.25000   0.00000  Uiso   1.00
O215   O     0.12846   0.56108   0.25000   0.00000  Uiso   1.00
O216   O     0.20490   0.56107   0.25000   0.00000  Uiso   1.00
O217   O     0.10947   0.50000   0.32681   0.00000  Uiso   1.00
O218   O     0.18591   0.49999   0.32681   0.00000  Uiso   1.00
O219   O     0.12843   0.43893   0.24999   0.00000  Uiso   1.00
O220   O     0.20488   0.43892   0.24999   0.00000  Uiso   1.00
O221   O     0.14742   0.50001   0.17319   0.00000  Uiso   1.00
O222   O     0.22387   0.50000   0.17319   0.00000  Uiso   1.00
Zn223  Zn    0.11562   0.50001   0.25000   0.00000  Uiso   1.00
Zn224  Zn    0.21771   0.49999   0.25000   0.00000  Uiso   1.00
C225   C     0.50054   0.57982   0.24756   0.00000  Uiso   1.00
C226   C     0.45622   0.49627   0.41095   0.00000  Uiso   1.00
C227   C     0.52977   0.64455   0.26790   0.00000  Uiso   1.00
C228   C     0.47340   0.49822   0.35200   0.00000  Uiso   1.00
C229   C     0.53186   0.35343   0.26751   0.00000  Uiso   1.00
C230   C     0.50335   0.37570   0.24373   0.00000  Uiso   1.00
C231   C     0.47802   0.35491   0.21454   0.00000  Uiso   1.00
C232   C     0.47692   0.64515   0.21476   0.00000  Uiso   1.00
C233   C     0.50158   0.62384   0.24364   0.00000  Uiso   1.00
C234   C     0.65367   0.47528   0.21494   0.00000  Uiso   1.00
C235   C     0.36802   0.47550   0.21494   0.00000  Uiso   1.00
C236   C     0.47749   0.49509   0.49215   0.00000  Uiso   1.00
C237   C     0.34706   0.52485   0.28498   0.00000  Uiso   1.00
C238   C     0.63239   0.52484   0.28545   0.00000  Uiso   1.00
C239   C     0.50080   0.41997   0.24837   0.00000  Uiso   1.00
C240   C     0.52656   0.50027   0.14810   0.00000  Uiso   1.00
C241   C     0.59274   0.46194   0.00864   0.00000  Uiso   1.00
C242   C     0.54261   0.49606   0.08994   0.00000  Uiso   1.00
C243   C     0.41110   0.51282   0.44043   0.00000  Uiso   1.00
C244   C     0.39832   0.51907   0.49570   0.00000  Uiso   1.00
C245   C     0.43146   0.51146   0.02134   0.00000  Uiso   1.00
C246   C     0.48725   0.48301   0.43805   0.00000  Uiso   1.00
C247   C     0.51413   0.48988   0.01471   0.00000  Uiso   1.00
C248   C     0.55689   0.46791   0.48583   0.00000  Uiso   1.00
C249   C     0.56263   0.45121   0.43532   0.00000  Uiso   1.00
C250   C     0.52795   0.45826   0.41213   0.00000  Uiso   1.00
C251   C     0.50959   0.50613   0.06516   0.00000  Uiso   1.00
C252   C     0.58524   0.47541   0.06114   0.00000  Uiso   1.00
Cl253  Cl    0.45119   0.38179   0.17365   0.00000  Uiso   1.00
Cl254  Cl    0.44731   0.61858   0.17617   0.00000  Uiso   1.00
Cl255  Cl    0.63983   0.44230   0.16933   0.00000  Uiso   1.00
Cl256  Cl    0.36401   0.55739   0.32919   0.00000  Uiso   1.00
H257   H     0.61137   0.46781   0.07991   0.00000  Uiso   1.00
H258   H     0.55031   0.62781   0.28785   0.00000  Uiso   1.00
H259   H     0.39477   0.45609   0.18658   0.00000  Uiso   1.00
H260   H     0.59406   0.43292   0.41352   0.00000  Uiso   1.00
H261   H     0.62543   0.44523   0.48685   0.00000  Uiso   1.00
H262   H     0.47935   0.52529   0.08736   0.00000  Uiso   1.00
H263   H     0.38623   0.52206   0.42062   0.00000  Uiso   1.00
H264   H     0.41957   0.51762   0.06412   0.00000  Uiso   1.00
H265   H     0.36326   0.53147   0.01844   0.00000  Uiso   1.00
H266   H     0.53296   0.44379   0.37376   0.00000  Uiso   1.00
I267   I     0.58081   0.37727   0.30364   0.00000  Uiso   1.00
I268   I     0.58321   0.56449   0.34367   0.00000  Uiso   1.00
N269   N     0.38093   0.50001   0.25002   0.00000  Uiso   1.00
N270   N     0.61906   0.49998   0.25000   0.00000  Uiso   1.00
O271   O     0.46179   0.56108   0.25000   0.00000  Uiso   1.00
O272   O     0.53823   0.56107   0.25000   0.00000  Uiso   1.00
O273   O     0.44280   0.50000   0.32681   0.00000  Uiso   1.00
O274   O     0.51924   0.49999   0.32681   0.00000  Uiso   1.00
O275   O     0.46177   0.43893   0.24999   0.00000  Uiso   1.00
O276   O     0.53821   0.43892   0.24999   0.00000  Uiso   1.00
O277   O     0.48076   0.50001   0.17319   0.00000  Uiso   1.00
O278   O     0.55720   0.50000   0.17319   0.00000  Uiso   1.00
Zn279  Zn    0.44896   0.50001   0.25000   0.00000  Uiso   1.00
Zn280  Zn    0.55104   0.49999   0.25000   0.00000  Uiso   1.00
C281   C     0.83387   0.57982   0.24756   0.00000  Uiso   1.00
C282   C     0.78956   0.49627   0.41095   0.00000  Uiso   1.00
C283   C     0.86310   0.64455   0.26790   0.00000  Uiso   1.00
C284   C     0.80673   0.49822   0.35200   0.00000  Uiso   1.00
C285   C     0.86519   0.35343   0.26751   0.00000  Uiso   1.00
C286   C     0.83668   0.37570   0.24373   0.00000  Uiso   1.00
C287   C     0.81135   0.35491   0.21454   0.00000  Uiso   1.00
C288   C     0.81025   0.64515   0.21476   0.00000  Uiso   1.00
C289   C     0.83491   0.62384   0.24364   0.00000  Uiso   1.00
C290   C     0.98701   0.47528   0.21494   0.00000  Uiso   1.00
C291   C     0.70136   0.47550   0.21494   0.00000  Uiso   1.00
C292   C     0.81083   0.49509   0.49215   0.00000  Uiso   1.00
C293   C     0.68039   0.52485   0.28498   0.00000  Uiso   1.00
C294   C     0.96573   0.52484   0.28545   0.00000  Uiso   1.00
C295   C     0.83413   0.41997   0.24837   0.00000  Uiso   1.00
C296   C     0.85989   0.50027   0.14810   0.00000  Uiso   1.00
C297   C     0.92607   0.46194   0.00864   0.00000  Uiso   1.00
C298   C     0.87594   0.49606   0.08994   0.00000  Uiso   1.00
C299   C     0.74443   0.51282   0.44043   0.00000  Uiso   1.00
C300   C     0.73165   0.51907   0.49570   0.00000  Uiso   1.00
C301   C     0.76479   0.51146   0.02134   0.00000  Uiso   1.00
C302   C     0.82058   0.48301   0.43805   0.00000  Uiso   1.00
C303   C     0.84747   0.48988   0.01471   0.00000  Uiso   1.00
C304   C     0.89022   0.46791   0.48583   0.00000  Uiso   1.00
C305   C     0.89596   0.45121   0.43532   0.00000  Uiso   1.00
C306   C     0.86128   0.45826   0.41213   0.00000  Uiso   1.00
C307   C     0.84293   0.50613   0.06516   0.00000  Uiso   1.00
C308   C     0.91857   0.47541   0.06114   0.00000  Uiso   1.00
Cl309  Cl    0.78452   0.38179   0.17365   0.00000  Uiso   1.00
Cl310  Cl    0.78064   0.61858   0.17617   0.00000  Uiso   1.00
Cl311  Cl    0.97316   0.44230   0.16933   0.00000  Uiso   1.00
Cl312  Cl    0.69734   0.55739   0.32919   0.00000  Uiso   1.00
H313   H     0.94470   0.46781   0.07991   0.00000  Uiso   1.00
H314   H     0.88364   0.62781   0.28785   0.00000  Uiso   1.00
H315   H     0.72810   0.45609   0.18658   0.00000  Uiso   1.00
H316   H     0.92740   0.43292   0.41352   0.00000  Uiso   1.00
H317   H     0.95877   0.44523   0.48685   0.00000  Uiso   1.00
H318   H     0.81268   0.52529   0.08736   0.00000  Uiso   1.00
H319   H     0.71956   0.52206   0.42062   0.00000  Uiso   1.00
H320   H     0.75291   0.51762   0.06412   0.00000  Uiso   1.00
H321   H     0.69659   0.53147   0.01844   0.00000  Uiso   1.00
H322   H     0.86629   0.44379   0.37376   0.00000  Uiso   1.00
I323   I     0.91414   0.37727   0.30364   0.00000  Uiso   1.00
I324   I     0.91654   0.56449   0.34367   0.00000  Uiso   1.00
N325   N     0.71426   0.50001   0.25002   0.00000  Uiso   1.00
N326   N     0.95239   0.49998   0.25000   0.00000  Uiso   1.00
O327   O     0.79512   0.56108   0.25000   0.00000  Uiso   1.00
O328   O     0.87157   0.56107   0.25000   0.00000  Uiso   1.00
O329   O     0.77613   0.50000   0.32681   0.00000  Uiso   1.00
O330   O     0.85258   0.49999   0.32681   0.00000  Uiso   1.00
O331   O     0.79510   0.43893   0.24999   0.00000  Uiso   1.00
O332   O     0.87154   0.43892   0.24999   0.00000  Uiso   1.00
O333   O     0.81409   0.50001   0.17319   0.00000  Uiso   1.00
O334   O     0.89053   0.50000   0.17319   0.00000  Uiso   1.00
Zn335  Zn    0.78229   0.50001   0.25000   0.00000  Uiso   1.00
Zn336  Zn    0.88438   0.49999   0.25000   0.00000  Uiso   1.00
C337   C     0.16721   0.91315   0.24756   0.00000  Uiso   1.00
C338   C     0.12289   0.82960   0.41095   0.00000  Uiso   1.00
C339   C     0.19643   0.97788   0.26790   0.00000  Uiso   1.00
C340   C     0.14007   0.83156   0.35200   0.00000  Uiso   1.00
C341   C     0.19853   0.68676   0.26751   0.00000  Uiso   1.00
C342   C     0.17001   0.70904   0.24373   0.00000  Uiso   1.00
C343   C     0.14468   0.68824   0.21454   0.00000  Uiso   1.00
C344   C     0.14358   0.97849   0.21476   0.00000  Uiso   1.00
C345   C     0.16824   0.95718   0.24364   0.00000  Uiso   1.00
C346   C     0.32034   0.80862   0.21494   0.00000  Uiso   1.00
C347   C     0.03469   0.80883   0.21494   0.00000  Uiso   1.00
C348   C     0.14416   0.82842   0.49215   0.00000  Uiso   1.00
C349   C     0.01373   0.85818   0.28498   0.00000  Uiso   1.00
C350   C     0.29906   0.85818   0.28545   0.00000  Uiso   1.00
C351   C     0.16746   0.75331   0.24837   0.00000  Uiso   1.00
C352   C     0.19322   0.83360   0.14810   0.00000  Uiso   1.00
C353   C     0.25940   0.79528   0.00864   0.00000  Uiso   1.00
C354   C     0.20927   0.82940   0.08994   0.00000  Uiso   1.00
C355   C     0.07777   0.84615   0.44043   0.00000  Uiso   1.00
C356   C     0.06499   0.85240   0.49570   0.00000  Uiso   1.00
C357   C     0.09813   0.84479   0.02134   0.00000  Uiso   1.00
C358   C     0.15391   0.81634   0.43805   0.00000  Uiso   1.00
C359   C     0.18080   0.82321   0.01471   0.00000  Uiso   1.00
C360   C     0.22355   0.80125   0.48583   0.00000  Uiso   1.00
C361   C     0.22929   0.78455   0.43532   0.00000  Uiso   1.00
C362   C     0.19461   0.79159   0.41213   0.00000  Uiso   1.00
C363   C     0.17626   0.83946   0.06516   0.00000  Uiso   1.00
C364   C     0.25191   0.80874   0.06114   0.00000  Uiso   1.00
Cl365  Cl    0.11786   0.71512   0.17365   0.00000  Uiso   1.00
Cl366  Cl    0.11398   0.95191   0.17617   0.00000  Uiso   1.00
Cl367  Cl    0.30650   0.77563   0.16933   0.00000  Uiso   1.00
Cl368  Cl    0.03067   0.89073   0.32919   0.00000  Uiso   1.00
H369   H     0.27803   0.80114   0.07991   0.00000  Uiso   1.00
H370   H     0.21698   0.96114   0.28785   0.00000  Uiso   1.00
H371   H     0.06144   0.78942   0.18658   0.00000  Uiso   1.00
H372   H     0.26073   0.76626   0.41352   0.00000  Uiso   1.00
H373   H     0.29210   0.77856   0.48685   0.00000  Uiso   1.00
H374   H     0.14602   0.85862   0.08736   0.00000  Uiso   1.00
H375   H     0.05290   0.85539   0.42062   0.00000  Uiso   1.00
H376   H     0.08624   0.85095   0.06412   0.00000  Uiso   1.00
H377   H     0.02993   0.86481   0.01844   0.00000  Uiso   1.00
H378   H     0.19962   0.77713   0.37376   0.00000  Uiso   1.00
I379   I     0.24748   0.71060   0.30364   0.00000  Uiso   1.00
I380   I     0.24988   0.89783   0.34367   0.00000  Uiso   1.00
N381   N     0.04760   0.83334   0.25002   0.00000  Uiso   1.00
N382   N     0.28573   0.83331   0.25000   0.00000  Uiso   1.00
O383   O     0.12846   0.89442   0.25000   0.00000  Uiso   1.00
O384   O     0.20490   0.89441   0.25000   0.00000  Uiso   1.00
O385   O     0.10947   0.83333   0.32681   0.00000  Uiso   1.00
O386   O     0.18591   0.83332   0.32681   0.00000  Uiso   1.00
O387   O     0.12843   0.77226   0.24999   0.00000  Uiso   1.00
O388   O     0.20488   0.77225   0.24999   0.00000  Uiso   1.00
O389   O     0.14742   0.83335   0.17319   0.00000  Uiso   1.00
O390   O     0.22387   0.83334   0.17319   0.00000  Uiso   1.00
Zn391  Zn    0.11562   0.83334   0.25000   0.00000  Uiso   1.00
Zn392  Zn    0.21771   0.83333   0.25000   0.00000  Uiso   1.00
C393   C     0.50054   0.91315   0.24756   0.00000  Uiso   1.00
C394   C     0.45622   0.82960   0.41095   0.00000  Uiso   1.00
C395   C     0.52977   0.97788   0.26790   0.00000  Uiso   1.00
C396   C     0.47340   0.83156   0.35200   0.00000  Uiso   1.00
C397   C     0.53186   0.68676   0.26751   0.00000  Uiso   1.00
C398   C     0.50335   0.70904   0.24373   0.00000  Uiso   1.00
C399   C     0.47802   0.68824   0.21454   0.00000  Uiso   1.00
C400   C     0.47692   0.97849   0.21476   0.00000  Uiso   1.00
C401   C     0.50158   0.95718   0.24364   0.00000  Uiso   1.00
C402   C     0.65367   0.80862   0.21494   0.00000  Uiso   1.00
C403   C     0.36802   0.80883   0.21494   0.00000  Uiso   1.00
C404   C     0.47749   0.82842   0.49215   0.00000  Uiso   1.00
C405   C     0.34706   0.85818   0.28498   0.00000  Uiso   1.00
C406   C     0.63239   0.85818   0.28545   0.00000  Uiso   1.00
C407   C     0.50080   0.75331   0.24837   0.00000  Uiso   1.00
C408   C     0.52656   0.83360   0.14810   0.00000  Uiso   1.00
C409   C     0.59274   0.79528   0.00864   0.00000  Uiso   1.00
C410   C     0.54261   0.82940   0.08994   0.00000  Uiso   1.00
C411   C     0.41110   0.84615   0.44043   0.00000  Uiso   1.00
C412   C     0.39832   0.85240   0.49570   0.00000  Uiso   1.00
C413   C     0.43146   0.84479   0.02134   0.00000  Uiso   1.00
C414   C     0.48725   0.81634   0.43805   0.00000  Uiso   1.00
C415   C     0.51413   0.82321   0.01471   0.00000  Uiso   1.00
C416   C     0.55689   0.80125   0.48583   0.00000  Uiso   1.00
C417   C     0.56263   0.78455   0.43532   0.00000  Uiso   1.00
C418   C     0.52795   0.79159   0.41213   0.00000  Uiso   1.00
C419   C     0.50959   0.83946   0.06516   0.00000  Uiso   1.00
C420   C     0.58524   0.80874   0.06114   0.00000  Uiso   1.00
Cl421  Cl    0.45119   0.71512   0.17365   0.00000  Uiso   1.00
Cl422  Cl    0.44731   0.95191   0.17617   0.00000  Uiso   1.00
Cl423  Cl    0.63983   0.77563   0.16933   0.00000  Uiso   1.00
Cl424  Cl    0.36401   0.89073   0.32919   0.00000  Uiso   1.00
H425   H     0.61137   0.80114   0.07991   0.00000  Uiso   1.00
H426   H     0.55031   0.96114   0.28785   0.00000  Uiso   1.00
H427   H     0.39477   0.78942   0.18658   0.00000  Uiso   1.00
H428   H     0.59406   0.76626   0.41352   0.00000  Uiso   1.00
H429   H     0.62543   0.77856   0.48685   0.00000  Uiso   1.00
H430   H     0.47935   0.85862   0.08736   0.00000  Uiso   1.00
H431   H     0.38623   0.85539   0.42062   0.00000  Uiso   1.00
H432   H     0.41957   0.85095   0.06412   0.00000  Uiso   1.00
H433   H     0.36326   0.86481   0.01844   0.00000  Uiso   1.00
H434   H     0.53296   0.77713   0.37376   0.00000  Uiso   1.00
I435   I     0.58081   0.71060   0.30364   0.00000  Uiso   1.00
I436   I     0.58321   0.89783   0.34367   0.00000  Uiso   1.00
N437   N     0.38093   0.83334   0.25002   0.00000  Uiso   1.00
N438   N     0.61906   0.83331   0.25000   0.00000  Uiso   1.00
O439   O     0.46179   0.89442   0.25000   0.00000  Uiso   1.00
O440   O     0.53823   0.89441   0.25000   0.00000  Uiso   1.00
O441   O     0.44280   0.83333   0.32681   0.00000  Uiso   1.00
O442   O     0.51924   0.83332   0.32681   0.00000  Uiso   1.00
O443   O     0.46177   0.77226   0.24999   0.00000  Uiso   1.00
O444   O     0.53821   0.77225   0.24999   0.00000  Uiso   1.00
O445   O     0.48076   0.83335   0.17319   0.00000  Uiso   1.00
O446   O     0.55720   0.83334   0.17319   0.00000  Uiso   1.00
Zn447  Zn    0.44896   0.83334   0.25000   0.00000  Uiso   1.00
Zn448  Zn    0.55104   0.83333   0.25000   0.00000  Uiso   1.00
C449   C     0.83387   0.91315   0.24756   0.00000  Uiso   1.00
C450   C     0.78956   0.82960   0.41095   0.00000  Uiso   1.00
C451   C     0.86310   0.97788   0.26790   0.00000  Uiso   1.00
C452   C     0.80673   0.83156   0.35200   0.00000  Uiso   1.00
C453   C     0.86519   0.68676   0.26751   0.00000  Uiso   1.00
C454   C     0.83668   0.70904   0.24373   0.00000  Uiso   1.00
C455   C     0.81135   0.68824   0.21454   0.00000  Uiso   1.00
C456   C     0.81025   0.97849   0.21476   0.00000  Uiso   1.00
C457   C     0.83491   0.95718   0.24364   0.00000  Uiso   1.00
C458   C     0.98701   0.80862   0.21494   0.00000  Uiso   1.00
C459   C     0.70136   0.80883   0.21494   0.00000  Uiso   1.00
C460   C     0.81083   0.82842   0.49215   0.00000  Uiso   1.00
C461   C     0.68039   0.85818   0.28498   0.00000  Uiso   1.00
C462   C     0.96573   0.85818   0.28545   0.00000  Uiso   1.00
C463   C     0.83413   0.75331   0.24837   0.00000  Uiso   1.00
C464   C     0.85989   0.83360   0.14810   0.00000  Uiso   1.00
C465   C     0.92607   0.79528   0.00864   0.00000  Uiso   1.00
C466   C     0.87594   0.82940   0.08994   0.00000  Uiso   1.00
C467   C     0.74443   0.84615   0.44043   0.00000  Uiso   1.00
C468   C     0.73165   0.85240   0.49570   0.00000  Uiso   1.00
C469   C     0.76479   0.84479   0.02134   0.00000  Uiso   1.00
C470   C     0.82058   0.81634   0.43805   0.00000  Uiso   1.00
C471   C     0.84747   0.82321   0.01471   0.00000  Uiso   1.00
C472   C     0.89022   0.80125   0.48583   0.00000  Uiso   1.00
C473   C     0.89596   0.78455   0.43532   0.00000  Uiso   1.00
C474   C     0.86128   0.79159   0.41213   0.00000  Uiso   1.00
C475   C     0.84293   0.83946   0.06516   0.00000  Uiso   1.00
C476   C     0.91857   0.80874   0.06114   0.00000  Uiso   1.00
Cl477  Cl    0.78452   0.71512   0.17365   0.00000  Uiso   1.00
Cl478  Cl    0.78064   0.95191   0.17617   0.00000  Uiso   1.00
Cl479  Cl    0.97316   0.77563   0.16933   0.00000  Uiso   1.00
Cl480  Cl    0.69734   0.89073   0.32919   0.00000  Uiso   1.00
H481   H     0.94470   0.80114   0.07991   0.00000  Uiso   1.00
H482   H     0.88364   0.96114   0.28785   0.00000  Uiso   1.00
H483   H     0.72810   0.78942   0.18658   0.00000  Uiso   1.00
H484   H     0.92740   0.76626   0.41352   0.00000  Uiso   1.00
H485   H     0.95877   0.77856   0.48685   0.00000  Uiso   1.00
H486   H     0.81268   0.85862   0.08736   0.00000  Uiso   1.00
H487   H     0.71956   0.85539   0.42062   0.00000  Uiso   1.00
H488   H     0.75291   0.85095   0.06412   0.00000  Uiso   1.00
H489   H     0.69659   0.86481   0.01844   0.00000  Uiso   1.00
H490   H     0.86629   0.77713   0.37376   0.00000  Uiso   1.00
I491   I     0.91414   0.71060   0.30364   0.00000  Uiso   1.00
I492   I     0.91654   0.89783   0.34367   0.00000  Uiso   1.00
N493   N     0.71426   0.83334   0.25002   0.00000  Uiso   1.00
N494   N     0.95239   0.83331   0.25000   0.00000  Uiso   1.00
O495   O     0.79512   0.89442   0.25000   0.00000  Uiso   1.00
O496   O     0.87157   0.89441   0.25000   0.00000  Uiso   1.00
O497   O     0.77613   0.83333   0.32681   0.00000  Uiso   1.00
O498   O     0.85258   0.83332   0.32681   0.00000  Uiso   1.00
O499   O     0.79510   0.77226   0.24999   0.00000  Uiso   1.00
O500   O     0.87154   0.77225   0.24999   0.00000  Uiso   1.00
O501   O     0.81409   0.83335   0.17319   0.00000  Uiso   1.00
O502   O     0.89053   0.83334   0.17319   0.00000  Uiso   1.00
Zn503  Zn    0.78229   0.83334   0.25000   0.00000  Uiso   1.00
Zn504  Zn    0.88438   0.83333   0.25000   0.00000  Uiso   1.00
C505   C     0.16721   0.24649   0.74756   0.00000  Uiso   1.00
C506   C     0.12289   0.16294   0.91095   0.00000  Uiso   1.00
C507   C     0.19643   0.31122   0.76790   0.00000  Uiso   1.00
C508   C     0.14007   0.16489   0.85200   0.00000  Uiso   1.00
C509   C     0.19853   0.02009   0.76751   0.00000  Uiso   1.00
C510   C     0.17001   0.04237   0.74373   0.00000  Uiso   1.00
C511   C     0.14468   0.02157   0.71454   0.00000  Uiso   1.00
C512   C     0.14358   0.31182   0.71476   0.00000  Uiso   1.00
C513   C     0.16824   0.29051   0.74364   0.00000  Uiso   1.00
C514   C     0.32034   0.14195   0.71494   0.00000  Uiso   1.00
C515   C     0.03469   0.14216   0.71494   0.00000  Uiso   1.00
C516   C     0.14416   0.16175   0.99215   0.00000  Uiso   1.00
C517   C     0.01373   0.19152   0.78498   0.00000  Uiso   1.00
C518   C     0.29906   0.19151   0.78545   0.00000  Uiso   1.00
C519   C     0.16746   0.08664   0.74837   0.00000  Uiso   1.00
C520   C     0.19322   0.16693   0.64810   0.00000  Uiso   1.00
C521   C     0.25940   0.12861   0.50864   0.00000  Uiso   1.00
C522   C     0.20927   0.16273   0.58994   0.00000  Uiso   1.00
C523   C     0.07777   0.17949   0.94043   0.00000  Uiso   1.00
C524   C     0.06499   0.18574   0.99570   0.00000  Uiso   1.00
C525   C     0.09813   0.17813   0.52134   0.00000  Uiso   1.00
C526   C     0.15391   0.14968   0.93805   0.00000  Uiso   1.00
C527   C     0.18080   0.15655   0.51471   0.00000  Uiso   1.00
C528   C     0.22355   0.13458   0.98583   0.00000  Uiso   1.00
C529   C     0.22929   0.11788   0.93532   0.00000  Uiso   1.00
C530   C     0.19461   0.12493   0.91213   0.00000  Uiso   1.00
C531   C     0.17626   0.17280   0.56516   0.00000  Uiso   1.00
C532   C     0.25191   0.14207   0.56114   0.00000  Uiso   1.00
Cl533  Cl    0.11786   0.04846   0.67365   0.00000  Uiso   1.00
Cl534  Cl    0.11398   0.28525   0.67617   0.00000  Uiso   1.00
Cl535  Cl    0.30650   0.10897   0.66933   0.00000  Uiso   1.00
Cl536  Cl    0.03067   0.22406   0.82919   0.00000  Uiso   1.00
H537   H     0.27803   0.13448   0.57991   0.00000  Uiso   1.00
H538   H     0.21698   0.29447   0.78785   0.00000  Uiso   1.00
H539   H     0.06144   0.12276   0.68658   0.00000  Uiso   1.00
H540   H     0.26073   0.09959   0.91352   0.00000  Uiso   1.00
H541   H     0.29210   0.11190   0.98685   0.00000  Uiso   1.00
H542   H     0.14602   0.19195   0.58736   0.00000  Uiso   1.00
H543   H     0.05290   0.18873   0.92062   0.00000  Uiso   1.00
H544   H     0.08624   0.18428   0.56412   0.00000  Uiso   1.00
H545   H     0.02993   0.19814   0.51844   0.00000  Uiso   1.00
H546   H     0.19962   0.11046   0.87376   0.00000  Uiso   1.00
I547   I     0.24748   0.04394   0.80364   0.00000  Uiso   1.00
I548   I     0.24988   0.23116   0.84367   0.00000  Uiso   1.00
N549   N     0.04760   0.16668   0.75002   0.00000  Uiso   1.00
N550   N     0.28573   0.16665   0.75000   0.00000  Uiso   1.00
O551   O     0.12846   0.22775   0.75000   0.00000  Uiso   1.00
O552   O     0.20490   0.22774   0.75000   0.00000  Uiso   1.00
O553   O     0.10947   0.16666   0.82681   0.00000  Uiso   1.00
O554   O     0.18591   0.16665   0.82681   0.00000  Uiso   1.00
O555   O     0.12843   0.10559   0.74999   0.00000  Uiso   1.00
O556   O     0.20488   0.10558   0.74999   0.00000  Uiso   1.00
O557   O     0.14742   0.16668   0.67319   0.00000  Uiso   1.00
O558   O     0.22387   0.16667   0.67319   0.00000  Uiso   1.00
Zn559  Zn    0.11562   0.16667   0.75000   0.00000  Uiso   1.00
Zn560  Zn    0.21771   0.16666   0.75000   0.00000  Uiso   1.00
C561   C     0.50054   0.24649   0.74756   0.00000  Uiso   1.00
C562   C     0.45622   0.16294   0.91095   0.00000  Uiso   1.00
C563   C     0.52977   0.31122   0.76790   0.00000  Uiso   1.00
C564   C     0.47340   0.16489   0.85200   0.00000  Uiso   1.00
C565   C     0.53186   0.02009   0.76751   0.00000  Uiso   1.00
C566   C     0.50335   0.04237   0.74373   0.00000  Uiso   1.00
C567   C     0.47802   0.02157   0.71454   0.00000  Uiso   1.00
C568   C     0.47692   0.31182   0.71476   0.00000  Uiso   1.00
C569   C     0.50158   0.29051   0.74364   0.00000  Uiso   1.00
C570   C     0.65367   0.14195   0.71494   0.00000  Uiso   1.00
C571   C     0.36802   0.14216   0.71494   0.00000  Uiso   1.00
C572   C     0.47749   0.16175   0.99215   0.00000  Uiso   1.00
C573   C     0.34706   0.19152   0.78498   0.00000  Uiso   1.00
C574   C     0.63239   0.19151   0.78545   0.00000  Uiso   1.00
C575   C     0.50080   0.08664   0.74837   0.00000  Uiso   1.00
C576   C     0.52656   0.16693   0.64810   0.00000  Uiso   1.00
C577   C     0.59274   0.12861   0.50864   0.00000  Uiso   1.00
C578   C     0.54261   0.16273   0.58994   0.00000  Uiso   1.00
C579   C     0.41110   0.17949   0.94043   0.00000  Uiso   1.00
C580   C     0.39832   0.18574   0.99570   0.00000  Uiso   1.00
C581   C     0.43146   0.17813   0.52134   0.00000  Uiso   1.00
C582   C     0.48725   0.14968   0.93805   0.00000  Uiso   1.00
C583   C     0.51413   0.15655   0.51471   0.00000  Uiso   1.00
C584   C     0.55689   0.13458   0.98583   0.00000  Uiso   1.00
C585   C     0.56263   0.11788   0.93532   0.00000  Uiso   1.00
C586   C     0.52795   0.12493   0.91213   0.00000  Uiso   1.00
C587   C     0.50959   0.17280   0.56516   0.00000  Uiso   1.00
C588   C     0.58524   0.14207   0.56114   0.00000  Uiso   1.00
Cl589  Cl    0.45119   0.04846   0.67365   0.00000  Uiso   1.00
Cl590  Cl    0.44731   0.28525   0.67617   0.00000  Uiso   1.00
Cl591  Cl    0.63983   0.10897   0.66933   0.00000  Uiso   1.00
Cl592  Cl    0.36401   0.22406   0.82919   0.00000  Uiso   1.00
H593   H     0.61137   0.13448   0.57991   0.00000  Uiso   1.00
H594   H     0.55031   0.29447   0.78785   0.00000  Uiso   1.00
H595   H     0.39477   0.12276   0.68658   0.00000  Uiso   1.00
H596   H     0.59406   0.09959   0.91352   0.00000  Uiso   1.00
H597   H     0.62543   0.11190   0.98685   0.00000  Uiso   1.00
H598   H     0.47935   0.19195   0.58736   0.00000  Uiso   1.00
H599   H     0.38623   0.18873   0.92062   0.00000  Uiso   1.00
H600   H     0.41957   0.18428   0.56412   0.00000  Uiso   1.00
H601   H     0.36326   0.19814   0.51844   0.00000  Uiso   1.00
H602   H     0.53296   0.11046   0.87376   0.00000  Uiso   1.00
I603   I     0.58081   0.04394   0.80364   0.00000  Uiso   1.00
I604   I     0.58321   0.23116   0.84367   0.00000  Uiso   1.00
N605   N     0.38093   0.16668   0.75002   0.00000  Uiso   1.00
N606   N     0.61906   0.16665   0.75000   0.00000  Uiso   1.00
O607   O     0.46179   0.22775   0.75000   0.00000  Uiso   1.00
O608   O     0.53823   0.22774   0.75000   0.00000  Uiso   1.00
O609   O     0.44280   0.16666   0.82681   0.00000  Uiso   1.00
O610   O     0.51924   0.16665   0.82681   0.00000  Uiso   1.00
O611   O     0.46177   0.10559   0.74999   0.00000  Uiso   1.00
O612   O     0.53821   0.10558   0.74999   0.00000  Uiso   1.00
O613   O     0.48076   0.16668   0.67319   0.00000  Uiso   1.00
O614   O     0.55720   0.16667   0.67319   0.00000  Uiso   1.00
Zn615  Zn    0.44896   0.16667   0.75000   0.00000  Uiso   1.00
Zn616  Zn    0.55104   0.16666   0.75000   0.00000  Uiso   1.00
C617   C     0.83387   0.24649   0.74756   0.00000  Uiso   1.00
C618   C     0.78956   0.16294   0.91095   0.00000  Uiso   1.00
C619   C     0.86310   0.31122   0.76790   0.00000  Uiso   1.00
C620   C     0.80673   0.16489   0.85200   0.00000  Uiso   1.00
C621   C     0.86519   0.02009   0.76751   0.00000  Uiso   1.00
C622   C     0.83668   0.04237   0.74373   0.00000  Uiso   1.00
C623   C     0.81135   0.02157   0.71454   0.00000  Uiso   1.00
C624   C     0.81025   0.31182   0.71476   0.00000  Uiso   1.00
C625   C     0.83491   0.29051   0.74364   0.00000  Uiso   1.00
C626   C     0.98701   0.14195   0.71494   0.00000  Uiso   1.00
C627   C     0.70136   0.14216   0.71494   0.00000  Uiso   1.00
C628   C     0.81083   0.16175   0.99215   0.00000  Uiso   1.00
C629   C     0.68039   0.19152   0.78498   0.00000  Uiso   1.00
C630   C     0.96573   0.19151   0.78545   0.00000  Uiso   1.00
C631   C     0.83413   0.08664   0.74837   0.00000  Uiso   1.00
C632   C     0.85989   0.16693   0.64810   0.00000  Uiso   1.00
C633   C     0.92607   0.12861   0.50864   0.00000  Uiso   1.00
C634   C     0.87594   0.16273   0.58994   0.00000  Uiso   1.00
C635   C     0.74443   0.17949   0.94043   0.00000  Uiso   1.00
C636   C     0.73165   0.18574   0.99570   0.00000  Uiso   1.00
C637   C     0.76479   0.17813   0.52134   0.00000  Uiso   1.00
C638   C     0.82058   0.14968   0.93805   0.00000  Uiso   1.00
C639   C     0.84747   0.15655   0.51471   0.00000  Uiso   1.00
C640   C     0.89022   0.13458   0.98583   0.00000  Uiso   1.00
C641   C     0.89596   0.11788   0.93532   0.00000  Uiso   1.00
C642   C     0.86128   0.12493   0.91213   0.00000  Uiso   1.00
C643   C     0.84293   0.17280   0.56516   0.00000  Uiso   1.00
C644   C     0.91857   0.14207   0.56114   0.00000  Uiso   1.00
Cl645  Cl    0.78452   0.04846   0.67365   0.00000  Uiso   1.00
Cl646  Cl    0.78064   0.28525   0.67617   0.00000  Uiso   1.00
Cl647  Cl    0.97316   0.10897   0.66933   0.00000  Uiso   1.00
Cl648  Cl    0.69734   0.22406   0.82919   0.00000  Uiso   1.00
H649   H     0.94470   0.13448   0.57991   0.00000  Uiso   1.00
H650   H     0.88364   0.29447   0.78785   0.00000  Uiso   1.00
H651   H     0.72810   0.12276   0.68658   0.00000  Uiso   1.00
H652   H     0.92740   0.09959   0.91352   0.00000  Uiso   1.00
H653   H     0.95877   0.11190   0.98685   0.00000  Uiso   1.00
H654   H     0.81268   0.19195   0.58736   0.00000  Uiso   1.00
H655   H     0.71956   0.18873   0.92062   0.00000  Uiso   1.00
H656   H     0.75291   0.18428   0.56412   0.00000  Uiso   1.00
H657   H     0.69659   0.19814   0.51844   0.00000  Uiso   1.00
H658   H     0.86629   0.11046   0.87376   0.00000  Uiso   1.00
I659   I     0.91414   0.04394   0.80364   0.00000  Uiso   1.00
I660   I     0.91654   0.23116   0.84367   0.00000  Uiso   1.00
N661   N     0.71426   0.16668   0.75002   0.00000  Uiso   1.00
N662   N     0.95239   0.16665   0.75000   0.00000  Uiso   1.00
O663   O     0.79512   0.22775   0.75000   0.00000  Uiso   1.00
O664   O     0.87157   0.22774   0.75000   0.00000  Uiso   1.00
O665   O     0.77613   0.16666   0.82681   0.00000  Uiso   1.00
O666   O     0.85258   0.16665   0.82681   0.00000  Uiso   1.00
O667   O     0.79510   0.10559   0.74999   0.00000  Uiso   1.00
O668   O     0.87154   0.10558   0.74999   0.00000  Uiso   1.00
O669   O     0.81409   0.16668   0.67319   0.00000  Uiso   1.00
O670   O     0.89053   0.16667   0.67319   0.00000  Uiso   1.00
Zn671  Zn    0.78229   0.16667   0.75000   0.00000  Uiso   1.00
Zn672  Zn    0.88438   0.16666   0.75000   0.00000  Uiso   1.00
C673   C     0.16721   0.57982   0.74756   0.00000  Uiso   1.00
C674   C     0.12289   0.49627   0.91095   0.00000  Uiso   1.00
C675   C     0.19643   0.64455   0.76790   0.00000  Uiso   1.00
C676   C     0.14007   0.49822   0.85200   0.00000  Uiso   1.00
C677   C     0.19853   0.35343   0.76751   0.00000  Uiso   1.00
C678   C     0.17001   0.37570   0.74373   0.00000  Uiso   1.00
C679   C     0.14468   0.35491   0.71454   0.00000  Uiso   1.00
C680   C     0.14358   0.64515   0.71476   0.00000  Uiso   1.00
C681   C     0.16824   0.62384   0.74364   0.00000  Uiso   1.00
C682   C     0.32034   0.47528   0.71494   0.00000  Uiso   1.00
C683   C     0.03469   0.47550   0.71494   0.00000  Uiso   1.00
C684   C     0.14416   0.49509   0.99215   0.00000  Uiso   1.00
C685   C     0.01373   0.52485   0.78498   0.00000  Uiso   1.00
C686   C     0.29906   0.52484   0.78545   0.00000  Uiso   1.00
C687   C     0.16746   0.41997   0.74837   0.00000  Uiso   1.00
C688   C     0.19322   0.50027   0.64810   0.00000  Uiso   1.00
C689   C     0.25940   0.46194   0.50864   0.00000  Uiso   1.00
C690   C     0.20927   0.49606   0.58994   0.00000  Uiso   1.00
C691   C     0.07777   0.51282   0.94043   0.00000  Uiso   1.00
C692   C     0.06499   0.51907   0.99570   0.00000  Uiso   1.00
C693   C     0.09813   0.51146   0.52134   0.00000  Uiso   1.00
C694   C     0.15391   0.48301   0.93805   0.00000  Uiso   1.00
C695   C     0.18080   0.48988   0.51471   0.00000  Uiso   1.00
C696   C     0.22355   0.46791   0.98583   0.00000  Uiso   1.00
C697   C     0.22929   0.45121   0.93532   0.00000  Uiso   1.00
C698   C     0.19461   0.45826   0.91213   0.00000  Uiso   1.00
C699   C     0.17626   0.50613   0.56516   0.00000  Uiso   1.00
C700   C     0.25191   0.47541   0.56114   0.00000  Uiso   1.00
Cl701  Cl    0.11786   0.38179   0.67365   0.00000  Uiso   1.00
Cl702  Cl    0.11398   0.61858   0.67617   0.00000  Uiso   1.00
Cl703  Cl    0.30650   0.44230   0.66933   0.00000  Uiso   1.00
Cl704  Cl    0.03067   0.55739   0.82919   0.00000  Uiso   1.00
H705   H     0.27803   0.46781   0.57991   0.00000  Uiso   1.00
H706   H     0.21698   0.62781   0.78785   0.00000  Uiso   1.00
H707   H     0.06144   0.45609   0.68658   0.00000  Uiso   1.00
H708   H     0.26073   0.43292   0.91352   0.00000  Uiso   1.00
H709   H     0.29210   0.44523   0.98685   0.00000  Uiso   1.00
H710   H     0.14602   0.52529   0.58736   0.00000  Uiso   1.00
H711   H     0.05290   0.52206   0.92062   0.00000  Uiso   1.00
H712   H     0.08624   0.51762   0.56412   0.00000  Uiso   1.00
H713   H     0.02993   0.53147   0.51844   0.00000  Uiso   1.00
H714   H     0.19962   0.44379   0.87376   0.00000  Uiso   1.00
I715   I     0.24748   0.37727   0.80364   0.00000  Uiso   1.00
I716   I     0.24988   0.56449   0.84367   0.00000  Uiso   1.00
N717   N     0.04760   0.50001   0.75002   0.00000  Uiso   1.00
N718   N     0.28573   0.49998   0.75000   0.00000  Uiso   1.00
O719   O     0.12846   0.56108   0.75000   0.00000  Uiso   1.00
O720   O     0.20490   0.56107   0.75000   0.00000  Uiso   1.00
O721   O     0.10947   0.50000   0.82681   0.00000  Uiso   1.00
O722   O     0.18591   0.49999   0.82681   0.00000  Uiso   1.00
O723   O     0.12843   0.43893   0.74999   0.00000  Uiso   1.00
O724   O     0.20488   0.43892   0.74999   0.00000  Uiso   1.00
O725   O     0.14742   0.50001   0.67319   0.00000  Uiso   1.00
O726   O     0.22387   0.50000   0.67319   0.00000  Uiso   1.00
Zn727  Zn    0.11562   0.50001   0.75000   0.00000  Uiso   1.00
Zn728  Zn    0.21771   0.49999   0.75000   0.00000  Uiso   1.00
C729   C     0.50054   0.57982   0.74756   0.00000  Uiso   1.00
C730   C     0.45622   0.49627   0.91095   0.00000  Uiso   1.00
C731   C     0.52977   0.64455   0.76790   0.00000  Uiso   1.00
C732   C     0.47340   0.49822   0.85200   0.00000  Uiso   1.00
C733   C     0.53186   0.35343   0.76751   0.00000  Uiso   1.00
C734   C     0.50335   0.37570   0.74373   0.00000  Uiso   1.00
C735   C     0.47802   0.35491   0.71454   0.00000  Uiso   1.00
C736   C     0.47692   0.64515   0.71476   0.00000  Uiso   1.00
C737   C     0.50158   0.62384   0.74364   0.00000  Uiso   1.00
C738   C     0.65367   0.47528   0.71494   0.00000  Uiso   1.00
C739   C     0.36802   0.47550   0.71494   0.00000  Uiso   1.00
C740   C     0.47749   0.49509   0.99215   0.00000  Uiso   1.00
C741   C     0.34706   0.52485   0.78498   0.00000  Uiso   1.00
C742   C     0.63239   0.52484   0.78545   0.00000  Uiso   1.00
C743   C     0.50080   0.41997   0.74837   0.00000  Uiso   1.00
C744   C     0.52656   0.50027   0.64810   0.00000  Uiso   1.00
C745   C     0.59274   0.46194   0.50864   0.00000  Uiso   1.00
C746   C     0.54261   0.49606   0.58994   0.00000  Uiso   1.00
C747   C     0.41110   0.51282   0.94043   0.00000  Uiso   1.00
C748   C     0.39832   0.51907   0.99570   0.00000  Uiso   1.00
C749   C     0.43146   0.51146   0.52134   0.00000  Uiso   1.00
C750   C     0.48725   0.48301   0.93805   0.00000  Uiso   1.00
C751   C     0.51413   0.48988   0.51471   0.00000  Uiso   1.00
C752   C     0.55689   0.46791   0.98583   0.00000  Uiso   1.00
C753   C     0.56263   0.45121   0.93532   0.00000  Uiso   1.00
C754   C     0.52795   0.45826   0.91213   0.00000  Uiso   1.00
C755   C     0.50959   0.50613   0.56516   0.00000  Uiso   1.00
C756   C     0.58524   0.47541   0.56114   0.00000  Uiso   1.00
Cl757  Cl    0.45119   0.38179   0.67365   0.00000  Uiso   1.00
Cl758  Cl    0.44731   0.61858   0.67617   0.00000  Uiso   1.00
Cl759  Cl    0.63983   0.44230   0.66933   0.00000  Uiso   1.00
Cl760  Cl    0.36401   0.55739   0.82919   0.00000  Uiso   1.00
H761   H     0.61137   0.46781   0.57991   0.00000  Uiso   1.00
H762   H     0.55031   0.62781   0.78785   0.00000  Uiso   1.00
H763   H     0.39477   0.45609   0.68658   0.00000  Uiso   1.00
H764   H     0.59406   0.43292   0.91352   0.00000  Uiso   1.00
H765   H     0.62543   0.44523   0.98685   0.00000  Uiso   1.00
H766   H     0.47935   0.52529   0.58736   0.00000  Uiso   1.00
H767   H     0.38623   0.52206   0.92062   0.00000  Uiso   1.00
H768   H     0.41957   0.51762   0.56412   0.00000  Uiso   1.00
H769   H     0.36326   0.53147   0.51844   0.00000  Uiso   1.00
H770   H     0.53296   0.44379   0.87376   0.00000  Uiso   1.00
I771   I     0.58081   0.37727   0.80364   0.00000  Uiso   1.00
I772   I     0.58321   0.56449   0.84367   0.00000  Uiso   1.00
N773   N     0.38093   0.50001   0.75002   0.00000  Uiso   1.00
N774   N     0.61906   0.49998   0.75000   0.00000  Uiso   1.00
O775   O     0.46179   0.56108   0.75000   0.00000  Uiso   1.00
O776   O     0.53823   0.56107   0.75000   0.00000  Uiso   1.00
O777   O     0.44280   0.50000   0.82681   0.00000  Uiso   1.00
O778   O     0.51924   0.49999   0.82681   0.00000  Uiso   1.00
O779   O     0.46177   0.43893   0.74999   0.00000  Uiso   1.00
O780   O     0.53821   0.43892   0.74999   0.00000  Uiso   1.00
O781   O     0.48076   0.50001   0.67319   0.00000  Uiso   1.00
O782   O     0.55720   0.50000   0.67319   0.00000  Uiso   1.00
Zn783  Zn    0.44896   0.50001   0.75000   0.00000  Uiso   1.00
Zn784  Zn    0.55104   0.49999   0.75000   0.00000  Uiso   1.00
C785   C     0.83387   0.57982   0.74756   0.00000  Uiso   1.00
C786   C     0.78956   0.49627   0.91095   0.00000  Uiso   1.00
C787   C     0.86310   0.64455   0.76790   0.00000  Uiso   1.00
C788   C     0.80673   0.49822   0.85200   0.00000  Uiso   1.00
C789   C     0.86519   0.35343   0.76751   0.00000  Uiso   1.00
C790   C     0.83668   0.37570   0.74373   0.00000  Uiso   1.00
C791   C     0.81135   0.35491   0.71454   0.00000  Uiso   1.00
C792   C     0.81025   0.64515   0.71476   0.00000  Uiso   1.00
C793   C     0.83491   0.62384   0.74364   0.00000  Uiso   1.00
C794   C     0.98701   0.47528   0.71494   0.00000  Uiso   1.00
C795   C     0.70136   0.47550   0.71494   0.00000  Uiso   1.00
C796   C     0.81083   0.49509   0.99215   0.00000  Uiso   1.00
C797   C     0.68039   0.52485   0.78498   0.00000  Uiso   1.00
C798   C     0.96573   0.52484   0.78545   0.00000  Uiso   1.00
C799   C     0.83413   0.41997   0.74837   0.00000  Uiso   1.00
C800   C     0.85989   0.50027   0.64810   0.00000  Uiso   1.00
C801   C     0.92607   0.46194   0.50864   0.00000  Uiso   1.00
C802   C     0.87594   0.49606   0.58994   0.00000  Uiso   1.00
C803   C     0.74443   0.51282   0.94043   0.00000  Uiso   1.00
C804   C     0.73165   0.51907   0.99570   0.00000  Uiso   1.00
C805   C     0.76479   0.51146   0.52134   0.00000  Uiso   1.00
C806   C     0.82058   0.48301   0.93805   0.00000  Uiso   1.00
C807   C     0.84747   0.48988   0.51471   0.00000  Uiso   1.00
C808   C     0.89022   0.46791   0.98583   0.00000  Uiso   1.00
C809   C     0.89596   0.45121   0.93532   0.00000  Uiso   1.00
C810   C     0.86128   0.45826   0.91213   0.00000  Uiso   1.00
C811   C     0.84293   0.50613   0.56516   0.00000  Uiso   1.00
C812   C     0.91857   0.47541   0.56114   0.00000  Uiso   1.00
Cl813  Cl    0.78452   0.38179   0.67365   0.00000  Uiso   1.00
Cl814  Cl    0.78064   0.61858   0.67617   0.00000  Uiso   1.00
Cl815  Cl    0.97316   0.44230   0.66933   0.00000  Uiso   1.00
Cl816  Cl    0.69734   0.55739   0.82919   0.00000  Uiso   1.00
H817   H     0.94470   0.46781   0.57991   0.00000  Uiso   1.00
H818   H     0.88364   0.62781   0.78785   0.00000  Uiso   1.00
H819   H     0.72810   0.45609   0.68658   0.00000  Uiso   1.00
H820   H     0.92740   0.43292   0.91352   0.00000  Uiso   1.00
H821   H     0.95877   0.44523   0.98685   0.00000  Uiso   1.00
H822   H     0.81268   0.52529   0.58736   0.00000  Uiso   1.00
H823   H     0.71956   0.52206   0.92062   0.00000  Uiso   1.00
H824   H     0.75291   0.51762   0.56412   0.00000  Uiso   1.00
H825   H     0.69659   0.53147   0.51844   0.00000  Uiso   1.00
H826   H     0.86629   0.44379   0.87376   0.00000  Uiso   1.00
I827   I     0.91414   0.37727   0.80364   0.00000  Uiso   1.00
I828   I     0.91654   0.56449   0.84367   0.00000  Uiso   1.00
N829   N     0.71426   0.50001   0.75002   0.00000  Uiso   1.00
N830   N     0.95239   0.49998   0.75000   0.00000  Uiso   1.00
O831   O     0.79512   0.56108   0.75000   0.00000  Uiso   1.00
O832   O     0.87157   0.56107   0.75000   0.00000  Uiso   1.00
O833   O     0.77613   0.50000   0.82681   0.00000  Uiso   1.00
O834   O     0.85258   0.49999   0.82681   0.00000  Uiso   1.00
O835   O     0.79510   0.43893   0.74999   0.00000  Uiso   1.00
O836   O     0.87154   0.43892   0.74999   0.00000  Uiso   1.00
O837   O     0.81409   0.50001   0.67319   0.00000  Uiso   1.00
O838   O     0.89053   0.50000   0.67319   0.00000  Uiso   1.00
Zn839  Zn    0.78229   0.50001   0.75000   0.00000  Uiso   1.00
Zn840  Zn    0.88438   0.49999   0.75000   0.00000  Uiso   1.00
C841   C     0.16721   0.91315   0.74756   0.00000  Uiso   1.00
C842   C     0.12289   0.82960   0.91095   0.00000  Uiso   1.00
C843   C     0.19643   0.97788   0.76790   0.00000  Uiso   1.00
C844   C     0.14007   0.83156   0.85200   0.00000  Uiso   1.00
C845   C     0.19853   0.68676   0.76751   0.00000  Uiso   1.00
C846   C     0.17001   0.70904   0.74373   0.00000  Uiso   1.00
C847   C     0.14468   0.68824   0.71454   0.00000  Uiso   1.00
C848   C     0.14358   0.97849   0.71476   0.00000  Uiso   1.00
C849   C     0.16824   0.95718   0.74364   0.00000  Uiso   1.00
C850   C     0.32034   0.80862   0.71494   0.00000  Uiso   1.00
C851   C     0.03469   0.80883   0.71494   0.00000  Uiso   1.00
C852   C     0.14416   0.82842   0.99215   0.00000  Uiso   1.00
C853   C     0.01373   0.85818   0.78498   0.00000  Uiso   1.00
C854   C     0.29906   0.85818   0.78545   0.00000  Uiso   1.00
C855   C     0.16746   0.75331   0.74837   0.00000  Uiso   1.00
C856   C     0.19322   0.83360   0.64810   0.00000  Uiso   1.00
C857   C     0.25940   0.79528   0.50864   0.00000  Uiso   1.00
C858   C     0.20927   0.82940   0.58994   0.00000  Uiso   1.00
C859   C     0.07777   0.84615   0.94043   0.00000  Uiso   1.00
C860   C     0.06499   0.85240   0.99570   0.00000  Uiso   1.00
C861   C     0.09813   0.84479   0.52134   0.00000  Uiso   1.00
C862   C     0.15391   0.81634   0.93805   0.00000  Uiso   1.00
C863   C     0.18080   0.82321   0.51471   0.00000  Uiso   1.00
C864   C     0.22355   0.80125   0.98583   0.00000  Uiso   1.00
C865   C     0.22929   0.78455   0.93532   0.00000  Uiso   1.00
C866   C     0.19461   0.79159   0.91213   0.00000  Uiso   1.00
C867   C     0.17626   0.83946   0.56516   0.00000  Uiso   1.00
C868   C     0.25191   0.80874   0.56114   0.00000  Uiso   1.00
Cl869  Cl    0.11786   0.71512   0.67365   0.00000  Uiso   1.00
Cl870  Cl    0.11398   0.95191   0.67617   0.00000  Uiso   1.00
Cl871  Cl    0.30650   0.77563   0.66933   0.00000  Uiso   1.00
Cl872  Cl    0.03067   0.89073   0.82919   0.00000  Uiso   1.00
H873   H     0.27803   0.80114   0.57991   0.00000  Uiso   1.00
H874   H     0.21698   0.96114   0.78785   0.00000  Uiso   1.00
H875   H     0.06144   0.78942   0.68658   0.00000  Uiso   1.00
H876   H     0.26073   0.76626   0.91352   0.00000  Uiso   1.00
H877   H     0.29210   0.77856   0.98685   0.00000  Uiso   1.00
H878   H     0.14602   0.85862   0.58736   0.00000  Uiso   1.00
H879   H     0.05290   0.85539   0.92062   0.00000  Uiso   1.00
H880   H     0.08624   0.85095   0.56412   0.00000  Uiso   1.00
H881   H     0.02993   0.86481   0.51844   0.00000  Uiso   1.00
H882   H     0.19962   0.77713   0.87376   0.00000  Uiso   1.00
I883   I     0.24748   0.71060   0.80364   0.00000  Uiso   1.00
I884   I     0.24988   0.89783   0.84367   0.00000  Uiso   1.00
N885   N     0.04760   0.83334   0.75002   0.00000  Uiso   1.00
N886   N     0.28573   0.83331   0.75000   0.00000  Uiso   1.00
O887   O     0.12846   0.89442   0.75000   0.00000  Uiso   1.00
O888   O     0.20490   0.89441   0.75000   0.00000  Uiso   1.00
O889   O     0.10947   0.83333   0.82681   0.00000  Uiso   1.00
O890   O     0.18591   0.83332   0.82681   0.00000  Uiso   1.00
O891   O     0.12843   0.77226   0.74999   0.00000  Uiso   1.00
O892   O     0.20488   0.77225   0.74999   0.00000  Uiso   1.00
O893   O     0.14742   0.83335   0.67319   0.00000  Uiso   1.00
O894   O     0.22387   0.83334   0.67319   0.00000  Uiso   1.00
Zn895  Zn    0.11562   0.83334   0.75000   0.00000  Uiso   1.00
Zn896  Zn    0.21771   0.83333   0.75000   0.00000  Uiso   1.00
C897   C     0.50054   0.91315   0.74756   0.00000  Uiso   1.00
C898   C     0.45622   0.82960   0.91095   0.00000  Uiso   1.00
C899   C     0.52977   0.97788   0.76790   0.00000  Uiso   1.00
C900   C     0.47340   0.83156   0.85200   0.00000  Uiso   1.00
C901   C     0.53186   0.68676   0.76751   0.00000  Uiso   1.00
C902   C     0.50335   0.70904   0.74373   0.00000  Uiso   1.00
C903   C     0.47802   0.68824   0.71454   0.00000  Uiso   1.00
C904   C     0.47692   0.97849   0.71476   0.00000  Uiso   1.00
C905   C     0.50158   0.95718   0.74364   0.00000  Uiso   1.00
C906   C     0.65367   0.80862   0.71494   0.00000  Uiso   1.00
C907   C     0.36802   0.80883   0.71494   0.00000  Uiso   1.00
C908   C     0.47749   0.82842   0.99215   0.00000  Uiso   1.00
C909   C     0.34706   0.85818   0.78498   0.00000  Uiso   1.00
C910   C     0.63239   0.85818   0.78545   0.00000  Uiso   1.00
C911   C     0.50080   0.75331   0.74837   0.00000  Uiso   1.00
C912   C     0.52656   0.83360   0.64810   0.00000  Uiso   1.00
C913   C     0.59274   0.79528   0.50864   0.00000  Uiso   1.00
C914   C     0.54261   0.82940   0.58994   0.00000  Uiso   1.00
C915   C     0.41110   0.84615   0.94043   0.00000  Uiso   1.00
C916   C     0.39832   0.85240   0.99570   0.00000  Uiso   1.00
C917   C     0.43146   0.84479   0.52134   0.00000  Uiso   1.00
C918   C     0.48725   0.81634   0.93805   0.00000  Uiso   1.00
C919   C     0.51413   0.82321   0.51471   0.00000  Uiso   1.00
C920   C     0.55689   0.80125   0.98583   0.00000  Uiso   1.00
C921   C     0.56263   0.78455   0.93532   0.00000  Uiso   1.00
C922   C     0.52795   0.79159   0.91213   0.00000  Uiso   1.00
C923   C     0.50959   0.83946   0.56516   0.00000  Uiso   1.00
C924   C     0.58524   0.80874   0.56114   0.00000  Uiso   1.00
Cl925  Cl    0.45119   0.71512   0.67365   0.00000  Uiso   1.00
Cl926  Cl    0.44731   0.95191   0.67617   0.00000  Uiso   1.00
Cl927  Cl    0.63983   0.77563   0.66933   0.00000  Uiso   1.00
Cl928  Cl    0.36401   0.89073   0.82919   0.00000  Uiso   1.00
H929   H     0.61137   0.80114   0.57991   0.00000  Uiso   1.00
H930   H     0.55031   0.96114   0.78785   0.00000  Uiso   1.00
H931   H     0.39477   0.78942   0.68658   0.00000  Uiso   1.00
H932   H     0.59406   0.76626   0.91352   0.00000  Uiso   1.00
H933   H     0.62543   0.77856   0.98685   0.00000  Uiso   1.00
H934   H     0.47935   0.85862   0.58736   0.00000  Uiso   1.00
H935   H     0.38623   0.85539   0.92062   0.00000  Uiso   1.00
H936   H     0.41957   0.85095   0.56412   0.00000  Uiso   1.00
H937   H     0.36326   0.86481   0.51844   0.00000  Uiso   1.00
H938   H     0.53296   0.77713   0.87376   0.00000  Uiso   1.00
I939   I     0.58081   0.71060   0.80364   0.00000  Uiso   1.00
I940   I     0.58321   0.89783   0.84367   0.00000  Uiso   1.00
N941   N     0.38093   0.83334   0.75002   0.00000  Uiso   1.00
N942   N     0.61906   0.83331   0.75000   0.00000  Uiso   1.00
O943   O     0.46179   0.89442   0.75000   0.00000  Uiso   1.00
O944   O     0.53823   0.89441   0.75000   0.00000  Uiso   1.00
O945   O     0.44280   0.83333   0.82681   0.00000  Uiso   1.00
O946   O     0.51924   0.83332   0.82681   0.00000  Uiso   1.00
O947   O     0.46177   0.77226   0.74999   0.00000  Uiso   1.00
O948   O     0.53821   0.77225   0.74999   0.00000  Uiso   1.00
O949   O     0.48076   0.83335   0.67319   0.00000  Uiso   1.00
O950   O     0.55720   0.83334   0.67319   0.00000  Uiso   1.00
Zn951  Zn    0.44896   0.83334   0.75000   0.00000  Uiso   1.00
Zn952  Zn    0.55104   0.83333   0.75000   0.00000  Uiso   1.00
C953   C     0.83387   0.91315   0.74756   0.00000  Uiso   1.00
C954   C     0.78956   0.82960   0.91095   0.00000  Uiso   1.00
C955   C     0.86310   0.97788   0.76790   0.00000  Uiso   1.00
C956   C     0.80673   0.83156   0.85200   0.00000  Uiso   1.00
C957   C     0.86519   0.68676   0.76751   0.00000  Uiso   1.00
C958   C     0.83668   0.70904   0.74373   0.00000  Uiso   1.00
C959   C     0.81135   0.68824   0.71454   0.00000  Uiso   1.00
C960   C     0.81025   0.97849   0.71476   0.00000  Uiso   1.00
C961   C     0.83491   0.95718   0.74364   0.00000  Uiso   1.00
C962   C     0.98701   0.80862   0.71494   0.00000  Uiso   1.00
C963   C     0.70136   0.80883   0.71494   0.00000  Uiso   1.00
C964   C     0.81083   0.82842   0.99215   0.00000  Uiso   1.00
C965   C     0.68039   0.85818   0.78498   0.00000  Uiso   1.00
C966   C     0.96573   0.85818   0.78545   0.00000  Uiso   1.00
C967   C     0.83413   0.75331   0.74837   0.00000  Uiso   1.00
C968   C     0.85989   0.83360   0.64810   0.00000  Uiso   1.00
C969   C     0.92607   0.79528   0.50864   0.00000  Uiso   1.00
C970   C     0.87594   0.82940   0.58994   0.00000  Uiso   1.00
C971   C     0.74443   0.84615   0.94043   0.00000  Uiso   1.00
C972   C     0.73165   0.85240   0.99570   0.00000  Uiso   1.00
C973   C     0.76479   0.84479   0.52134   0.00000  Uiso   1.00
C974   C     0.82058   0.81634   0.93805   0.00000  Uiso   1.00
C975   C     0.84747   0.82321   0.51471   0.00000  Uiso   1.00
C976   C     0.89022   0.80125   0.98583   0.00000  Uiso   1.00
C977   C     0.89596   0.78455   0.93532   0.00000  Uiso   1.00
C978   C     0.86128   0.79159   0.91213   0.00000  Uiso   1.00
C979   C     0.84293   0.83946   0.56516   0.00000  Uiso   1.00
C980   C     0.91857   0.80874   0.56114   0.00000  Uiso   1.00
Cl981  Cl    0.78452   0.71512   0.67365   0.00000  Uiso   1.00
Cl982  Cl    0.78064   0.95191   0.67617   0.00000  Uiso   1.00
Cl983  Cl    0.97316   0.77563   0.66933   0.00000  Uiso   1.00
Cl984  Cl    0.69734   0.89073   0.82919   0.00000  Uiso   1.00
H985   H     0.94470   0.80114   0.57991   0.00000  Uiso   1.00
H986   H     0.88364   0.96114   0.78785   0.00000  Uiso   1.00
H987   H     0.72810   0.78942   0.68658   0.00000  Uiso   1.00
H988   H     0.92740   0.76626   0.91352   0.00000  Uiso   1.00
H989   H     0.95877   0.77856   0.98685   0.00000  Uiso   1.00
H990   H     0.81268   0.85862   0.58736   0.00000  Uiso   1.00
H991   H     0.71956   0.85539   0.92062   0.00000  Uiso   1.00
H992   H     0.75291   0.85095   0.56412   0.00000  Uiso   1.00
H993   H     0.69659   0.86481   0.51844   0.00000  Uiso   1.00
H994   H     0.86629   0.77713   0.87376   0.00000  Uiso   1.00
I995   I     0.91414   0.71060   0.80364   0.00000  Uiso   1.00
I996   I     0.91654   0.89783   0.84367   0.00000  Uiso   1.00
N997   N     0.71426   0.83334   0.75002   0.00000  Uiso   1.00
N998   N     0.95239   0.83331   0.75000   0.00000  Uiso   1.00
O999   O     0.79512   0.89442   0.75000   0.00000  Uiso   1.00
O1000  O     0.87157   0.89441   0.75000   0.00000  Uiso   1.00
O1001  O     0.77613   0.83333   0.82681   0.00000  Uiso   1.00
O1002  O     0.85258   0.83332   0.82681   0.00000  Uiso   1.00
O1003  O     0.79510   0.77226   0.74999   0.00000  Uiso   1.00
O1004  O     0.87154   0.77225   0.74999   0.00000  Uiso   1.00
O1005  O     0.81409   0.83335   0.67319   0.00000  Uiso   1.00
O1006  O     0.89053   0.83334   0.67319   0.00000  Uiso   1.00
Zn1007 Zn    0.78229   0.83334   0.75000   0.00000  Uiso   1.00
Zn1008 Zn    0.88438   0.83333   0.75000   0.00000  Uiso   1.00
loop_
_geom_bond_atom_site_label_1
_geom_bond_atom_site_label_2
_geom_bond_distance
_geom_bond_site_symmetry_2
_ccdc_geom_bond_type
C1     O48     1.291   .     A
C1     C9      1.423   .     S
C1     O47     1.285   .     A
C2     C22     1.411   .     A
C2     C4      1.464   .     S
C2     C19     1.402   .     A
C3     C9      1.385   .     A
C3     H34     1.077   .     S
C3     C173    1.362   .     S
C4     O49     1.297   .     A
C4     O50     1.299   .     A
C5     I43     2.134   .     S
C5     C6      1.410   .     A
C5     C339    1.362   1_545 S
C6     C7      1.414   .     A
C6     C15     1.430   .     S
C7     Cl29    1.772   .     S
C7     C344    1.389   1_545 S
C8     Cl30    1.774   .     S
C8     C9      1.404   .     A
C8     C175    1.389   .     S
C10    N46     1.372   .     A
C10    Cl31    1.751   .     S
C10    C67     1.417   .     S
C11    H35     1.080   .     S
C11    N45     1.364   .     A
C11    C122    1.417   1_455 S
C12    C22     1.407   .     A
C12    C525    1.419   .     S
C12    C527    1.417   .     S
C13    Cl32    1.760   .     S
C13    N45     1.362   .     A
C13    C126    1.422   1_455 S
C14    N46     1.384   .     A
C14    I44     2.134   .     S
C14    C69     1.422   .     S
C15    O51     1.296   .     A
C15    O52     1.284   .     A
C16    O54     1.295   .     A
C16    C18     1.448   .     S
C16    O53     1.295   .     A
C17    C28     1.391   .     A
C17    C528    1.403   1_554 S
C17    H541    1.084   1_554 S
C18    C28     1.398   .     A
C18    C27     1.389   .     A
C19    C20     1.389   .     A
C19    H39     1.082   .     S
C20    C525    1.393   .     S
C20    H545    1.083   .     S
C21    H40     1.078   .     S
C21    C524    1.393   1_554 S
C21    C516    1.419   1_554 S
C22    C26     1.410   .     A
C23    C27     1.389   .     A
C23    C516    1.417   1_554 S
C23    C528    1.422   1_554 S
C24    C25     1.388   .     A
C24    C521    1.403   .     S
C24    C527    1.422   .     S
C25    C26     1.384   .     A
C25    H36     1.084   .     S
C26    H42     1.074   .     S
C27    H38     1.079   .     S
C28    H33     1.081   .     S
H37    C521    1.084   .     S
H41    C524    1.083   1_554 S
N45    Zn55    2.021   .     S
N46    Zn56    2.021   .     S
O47    Zn55    2.007   .     S
O48    Zn56    2.003   .     S
O49    Zn55    1.971   .     S
O50    Zn56    1.923   .     S
O51    Zn55    2.003   .     S
O52    Zn56    2.007   .     S
O53    Zn55    1.923   .     S
O54    Zn56    1.971   .     S
C57    O104    1.291   .     A
C57    C65     1.423   .     S
C57    O103    1.285   .     A
C58    C78     1.411   .     A
C58    C60     1.464   .     S
C58    C75     1.402   .     A
C59    C65     1.385   .     A
C59    H90     1.077   .     S
C59    C229    1.362   .     S
C60    O105    1.297   .     A
C60    O106    1.299   .     A
C61    I99     2.134   .     S
C61    C62     1.410   .     A
C61    C395    1.362   1_545 S
C62    C63     1.414   .     A
C62    C71     1.430   .     S
C63    Cl85    1.772   .     S
C63    C400    1.389   1_545 S
C64    Cl86    1.774   .     S
C64    C65     1.404   .     A
C64    C231    1.389   .     S
C66    N102    1.372   .     A
C66    Cl87    1.751   .     S
C66    C123    1.417   .     S
C67    H91     1.080   .     S
C67    N101    1.364   .     A
C68    C78     1.407   .     A
C68    C581    1.419   .     S
C68    C583    1.417   .     S
C69    Cl88    1.760   .     S
C69    N101    1.362   .     A
C70    N102    1.384   .     A
C70    I100    2.134   .     S
C70    C125    1.422   .     S
C71    O107    1.296   .     A
C71    O108    1.284   .     A
C72    O110    1.295   .     A
C72    C74     1.448   .     S
C72    O109    1.295   .     A
C73    C84     1.391   .     A
C73    C584    1.403   1_554 S
C73    H597    1.084   1_554 S
C74    C84     1.398   .     A
C74    C83     1.389   .     A
C75    C76     1.389   .     A
C75    H95     1.082   .     S
C76    C581    1.393   .     S
C76    H601    1.083   .     S
C77    H96     1.078   .     S
C77    C580    1.393   1_554 S
C77    C572    1.419   1_554 S
C78    C82     1.410   .     A
C79    C83     1.389   .     A
C79    C572    1.417   1_554 S
C79    C584    1.422   1_554 S
C80    C81     1.388   .     A
C80    C577    1.403   .     S
C80    C583    1.422   .     S
C81    C82     1.384   .     A
C81    H92     1.084   .     S
C82    H98     1.074   .     S
C83    H94     1.079   .     S
C84    H89     1.081   .     S
H93    C577    1.084   .     S
H97    C580    1.083   1_554 S
N101   Zn111   2.021   .     S
N102   Zn112   2.021   .     S
O103   Zn111   2.007   .     S
O104   Zn112   2.003   .     S
O105   Zn111   1.971   .     S
O106   Zn112   1.923   .     S
O107   Zn111   2.003   .     S
O108   Zn112   2.007   .     S
O109   Zn111   1.923   .     S
O110   Zn112   1.971   .     S
C113   O160    1.291   .     A
C113   C121    1.423   .     S
C113   O159    1.285   .     A
C114   C134    1.411   .     A
C114   C116    1.464   .     S
C114   C131    1.402   .     A
C115   C121    1.385   .     A
C115   H146    1.077   .     S
C115   C285    1.362   .     S
C116   O161    1.297   .     A
C116   O162    1.299   .     A
C117   I155    2.134   .     S
C117   C118    1.410   .     A
C117   C451    1.362   1_545 S
C118   C119    1.414   .     A
C118   C127    1.430   .     S
C119   Cl141   1.772   .     S
C119   C456    1.389   1_545 S
C120   Cl142   1.774   .     S
C120   C121    1.404   .     A
C120   C287    1.389   .     S
C122   N158    1.372   .     A
C122   Cl143   1.751   .     S
C122   C11     1.417   1_655 S
C123   H147    1.080   .     S
C123   N157    1.364   .     A
C124   C134    1.407   .     A
C124   C637    1.419   .     S
C124   C639    1.417   .     S
C125   Cl144   1.760   .     S
C125   N157    1.362   .     A
C126   N158    1.384   .     A
C126   I156    2.134   .     S
C126   C13     1.422   1_655 S
C127   O163    1.296   .     A
C127   O164    1.284   .     A
C128   O166    1.295   .     A
C128   C130    1.448   .     S
C128   O165    1.295   .     A
C129   C140    1.391   .     A
C129   C640    1.403   1_554 S
C129   H653    1.084   1_554 S
C130   C140    1.398   .     A
C130   C139    1.389   .     A
C131   C132    1.389   .     A
C131   H151    1.082   .     S
C132   C637    1.393   .     S
C132   H657    1.083   .     S
C133   H152    1.078   .     S
C133   C636    1.393   1_554 S
C133   C628    1.419   1_554 S
C134   C138    1.410   .     A
C135   C139    1.389   .     A
C135   C628    1.417   1_554 S
C135   C640    1.422   1_554 S
C136   C137    1.388   .     A
C136   C633    1.403   .     S
C136   C639    1.422   .     S
C137   C138    1.384   .     A
C137   H148    1.084   .     S
C138   H154    1.074   .     S
C139   H150    1.079   .     S
C140   H145    1.081   .     S
H149   C633    1.084   .     S
H153   C636    1.083   1_554 S
N157   Zn167   2.021   .     S
N158   Zn168   2.021   .     S
O159   Zn167   2.007   .     S
O160   Zn168   2.003   .     S
O161   Zn167   1.971   .     S
O162   Zn168   1.923   .     S
O163   Zn167   2.003   .     S
O164   Zn168   2.007   .     S
O165   Zn167   1.923   .     S
O166   Zn168   1.971   .     S
C169   O216    1.291   .     A
C169   C177    1.423   .     S
C169   O215    1.285   .     A
C170   C190    1.411   .     A
C170   C172    1.464   .     S
C170   C187    1.402   .     A
C171   C177    1.385   .     A
C171   H202    1.077   .     S
C171   C341    1.362   .     S
C172   O217    1.297   .     A
C172   O218    1.299   .     A
C173   I211    2.134   .     S
C173   C174    1.410   .     A
C174   C175    1.414   .     A
C174   C183    1.430   .     S
C175   Cl197   1.772   .     S
C176   Cl198   1.774   .     S
C176   C177    1.404   .     A
C176   C343    1.389   .     S
C178   N214    1.372   .     A
C178   Cl199   1.751   .     S
C178   C235    1.417   .     S
C179   H203    1.080   .     S
C179   N213    1.364   .     A
C179   C290    1.417   1_455 S
C180   C190    1.407   .     A
C180   C693    1.419   .     S
C180   C695    1.417   .     S
C181   Cl200   1.760   .     S
C181   N213    1.362   .     A
C181   C294    1.422   1_455 S
C182   N214    1.384   .     A
C182   I212    2.134   .     S
C182   C237    1.422   .     S
C183   O219    1.296   .     A
C183   O220    1.284   .     A
C184   O222    1.295   .     A
C184   C186    1.448   .     S
C184   O221    1.295   .     A
C185   C196    1.391   .     A
C185   C696    1.403   1_554 S
C185   H709    1.084   1_554 S
C186   C196    1.398   .     A
C186   C195    1.389   .     A
C187   C188    1.389   .     A
C187   H207    1.082   .     S
C188   C693    1.393   .     S
C188   H713    1.083   .     S
C189   H208    1.078   .     S
C189   C692    1.393   1_554 S
C189   C684    1.419   1_554 S
C190   C194    1.410   .     A
C191   C195    1.389   .     A
C191   C684    1.417   1_554 S
C191   C696    1.422   1_554 S
C192   C193    1.388   .     A
C192   C689    1.403   .     S
C192   C695    1.422   .     S
C193   C194    1.384   .     A
C193   H204    1.084   .     S
C194   H210    1.074   .     S
C195   H206    1.079   .     S
C196   H201    1.081   .     S
H205   C689    1.084   .     S
H209   C692    1.083   1_554 S
N213   Zn223   2.021   .     S
N214   Zn224   2.021   .     S
O215   Zn223   2.007   .     S
O216   Zn224   2.003   .     S
O217   Zn223   1.971   .     S
O218   Zn224   1.923   .     S
O219   Zn223   2.003   .     S
O220   Zn224   2.007   .     S
O221   Zn223   1.923   .     S
O222   Zn224   1.971   .     S
C225   O272    1.291   .     A
C225   C233    1.423   .     S
C225   O271    1.285   .     A
C226   C246    1.411   .     A
C226   C228    1.464   .     S
C226   C243    1.402   .     A
C227   C233    1.385   .     A
C227   H258    1.077   .     S
C227   C397    1.362   .     S
C228   O273    1.297   .     A
C228   O274    1.299   .     A
C229   I267    2.134   .     S
C229   C230    1.410   .     A
C230   C231    1.414   .     A
C230   C239    1.430   .     S
C231   Cl253   1.772   .     S
C232   Cl254   1.774   .     S
C232   C233    1.404   .     A
C232   C399    1.389   .     S
C234   N270    1.372   .     A
C234   Cl255   1.751   .     S
C234   C291    1.417   .     S
C235   H259    1.080   .     S
C235   N269    1.364   .     A
C236   C246    1.407   .     A
C236   C749    1.419   .     S
C236   C751    1.417   .     S
C237   Cl256   1.760   .     S
C237   N269    1.362   .     A
C238   N270    1.384   .     A
C238   I268    2.134   .     S
C238   C293    1.422   .     S
C239   O275    1.296   .     A
C239   O276    1.284   .     A
C240   O278    1.295   .     A
C240   C242    1.448   .     S
C240   O277    1.295   .     A
C241   C252    1.391   .     A
C241   C752    1.403   1_554 S
C241   H765    1.084   1_554 S
C242   C252    1.398   .     A
C242   C251    1.389   .     A
C243   C244    1.389   .     A
C243   H263    1.082   .     S
C244   C749    1.393   .     S
C244   H769    1.083   .     S
C245   H264    1.078   .     S
C245   C748    1.393   1_554 S
C245   C740    1.419   1_554 S
C246   C250    1.410   .     A
C247   C251    1.389   .     A
C247   C740    1.417   1_554 S
C247   C752    1.422   1_554 S
C248   C249    1.388   .     A
C248   C745    1.403   .     S
C248   C751    1.422   .     S
C249   C250    1.384   .     A
C249   H260    1.084   .     S
C250   H266    1.074   .     S
C251   H262    1.079   .     S
C252   H257    1.081   .     S
H261   C745    1.084   .     S
H265   C748    1.083   1_554 S
N269   Zn279   2.021   .     S
N270   Zn280   2.021   .     S
O271   Zn279   2.007   .     S
O272   Zn280   2.003   .     S
O273   Zn279   1.971   .     S
O274   Zn280   1.923   .     S
O275   Zn279   2.003   .     S
O276   Zn280   2.007   .     S
O277   Zn279   1.923   .     S
O278   Zn280   1.971   .     S
C281   O328    1.291   .     A
C281   C289    1.423   .     S
C281   O327    1.285   .     A
C282   C302    1.411   .     A
C282   C284    1.464   .     S
C282   C299    1.402   .     A
C283   C289    1.385   .     A
C283   H314    1.077   .     S
C283   C453    1.362   .     S
C284   O329    1.297   .     A
C284   O330    1.299   .     A
C285   I323    2.134   .     S
C285   C286    1.410   .     A
C286   C287    1.414   .     A
C286   C295    1.430   .     S
C287   Cl309   1.772   .     S
C288   Cl310   1.774   .     S
C288   C289    1.404   .     A
C288   C455    1.389   .     S
C290   N326    1.372   .     A
C290   Cl311   1.751   .     S
C290   C179    1.417   1_655 S
C291   H315    1.080   .     S
C291   N325    1.364   .     A
C292   C302    1.407   .     A
C292   C805    1.419   .     S
C292   C807    1.417   .     S
C293   Cl312   1.760   .     S
C293   N325    1.362   .     A
C294   N326    1.384   .     A
C294   I324    2.134   .     S
C294   C181    1.422   1_655 S
C295   O331    1.296   .     A
C295   O332    1.284   .     A
C296   O334    1.295   .     A
C296   C298    1.448   .     S
C296   O333    1.295   .     A
C297   C308    1.391   .     A
C297   C808    1.403   1_554 S
C297   H821    1.084   1_554 S
C298   C308    1.398   .     A
C298   C307    1.389   .     A
C299   C300    1.389   .     A
C299   H319    1.082   .     S
C300   C805    1.393   .     S
C300   H825    1.083   .     S
C301   H320    1.078   .     S
C301   C804    1.393   1_554 S
C301   C796    1.419   1_554 S
C302   C306    1.410   .     A
C303   C307    1.389   .     A
C303   C796    1.417   1_554 S
C303   C808    1.422   1_554 S
C304   C305    1.388   .     A
C304   C801    1.403   .     S
C304   C807    1.422   .     S
C305   C306    1.384   .     A
C305   H316    1.084   .     S
C306   H322    1.074   .     S
C307   H318    1.079   .     S
C308   H313    1.081   .     S
H317   C801    1.084   .     S
H321   C804    1.083   1_554 S
N325   Zn335   2.021   .     S
N326   Zn336   2.021   .     S
O327   Zn335   2.007   .     S
O328   Zn336   2.003   .     S
O329   Zn335   1.971   .     S
O330   Zn336   1.923   .     S
O331   Zn335   2.003   .     S
O332   Zn336   2.007   .     S
O333   Zn335   1.923   .     S
O334   Zn336   1.971   .     S
C337   O384    1.291   .     A
C337   C345    1.423   .     S
C337   O383    1.285   .     A
C338   C358    1.411   .     A
C338   C340    1.464   .     S
C338   C355    1.402   .     A
C339   C345    1.385   .     A
C339   H370    1.077   .     S
C339   C5      1.362   1_565 S
C340   O385    1.297   .     A
C340   O386    1.299   .     A
C341   I379    2.134   .     S
C341   C342    1.410   .     A
C342   C343    1.414   .     A
C342   C351    1.430   .     S
C343   Cl365   1.772   .     S
C344   Cl366   1.774   .     S
C344   C345    1.404   .     A
C344   C7      1.389   1_565 S
C346   N382    1.372   .     A
C346   Cl367   1.751   .     S
C346   C403    1.417   .     S
C347   H371    1.080   .     S
C347   N381    1.364   .     A
C347   C458    1.417   1_455 S
C348   C358    1.407   .     A
C348   C861    1.419   .     S
C348   C863    1.417   .     S
C349   Cl368   1.760   .     S
C349   N381    1.362   .     A
C349   C462    1.422   1_455 S
C350   N382    1.384   .     A
C350   I380    2.134   .     S
C350   C405    1.422   .     S
C351   O387    1.296   .     A
C351   O388    1.284   .     A
C352   O390    1.295   .     A
C352   C354    1.448   .     S
C352   O389    1.295   .     A
C353   C364    1.391   .     A
C353   C864    1.403   1_554 S
C353   H877    1.084   1_554 S
C354   C364    1.398   .     A
C354   C363    1.389   .     A
C355   C356    1.389   .     A
C355   H375    1.082   .     S
C356   C861    1.393   .     S
C356   H881    1.083   .     S
C357   H376    1.078   .     S
C357   C860    1.393   1_554 S
C357   C852    1.419   1_554 S
C358   C362    1.410   .     A
C359   C363    1.389   .     A
C359   C852    1.417   1_554 S
C359   C864    1.422   1_554 S
C360   C361    1.388   .     A
C360   C857    1.403   .     S
C360   C863    1.422   .     S
C361   C362    1.384   .     A
C361   H372    1.084   .     S
C362   H378    1.074   .     S
C363   H374    1.079   .     S
C364   H369    1.081   .     S
H373   C857    1.084   .     S
H377   C860    1.083   1_554 S
N381   Zn391   2.021   .     S
N382   Zn392   2.021   .     S
O383   Zn391   2.007   .     S
O384   Zn392   2.003   .     S
O385   Zn391   1.971   .     S
O386   Zn392   1.923   .     S
O387   Zn391   2.003   .     S
O388   Zn392   2.007   .     S
O389   Zn391   1.923   .     S
O390   Zn392   1.971   .     S
C393   O440    1.291   .     A
C393   C401    1.423   .     S
C393   O439    1.285   .     A
C394   C414    1.411   .     A
C394   C396    1.464   .     S
C394   C411    1.402   .     A
C395   C401    1.385   .     A
C395   H426    1.077   .     S
C395   C61     1.362   1_565 S
C396   O441    1.297   .     A
C396   O442    1.299   .     A
C397   I435    2.134   .     S
C397   C398    1.410   .     A
C398   C399    1.414   .     A
C398   C407    1.430   .     S
C399   Cl421   1.772   .     S
C400   Cl422   1.774   .     S
C400   C401    1.404   .     A
C400   C63     1.389   1_565 S
C402   N438    1.372   .     A
C402   Cl423   1.751   .     S
C402   C459    1.417   .     S
C403   H427    1.080   .     S
C403   N437    1.364   .     A
C404   C414    1.407   .     A
C404   C917    1.419   .     S
C404   C919    1.417   .     S
C405   Cl424   1.760   .     S
C405   N437    1.362   .     A
C406   N438    1.384   .     A
C406   I436    2.134   .     S
C406   C461    1.422   .     S
C407   O443    1.296   .     A
C407   O444    1.284   .     A
C408   O446    1.295   .     A
C408   C410    1.448   .     S
C408   O445    1.295   .     A
C409   C420    1.391   .     A
C409   C920    1.403   1_554 S
C409   H933    1.084   1_554 S
C410   C420    1.398   .     A
C410   C419    1.389   .     A
C411   C412    1.389   .     A
C411   H431    1.082   .     S
C412   C917    1.393   .     S
C412   H937    1.083   .     S
C413   H432    1.078   .     S
C413   C916    1.393   1_554 S
C413   C908    1.419   1_554 S
C414   C418    1.410   .     A
C415   C419    1.389   .     A
C415   C908    1.417   1_554 S
C415   C920    1.422   1_554 S
C416   C417    1.388   .     A
C416   C913    1.403   .     S
C416   C919    1.422   .     S
C417   C418    1.384   .     A
C417   H428    1.084   .     S
C418   H434    1.074   .     S
C419   H430    1.079   .     S
C420   H425    1.081   .     S
H429   C913    1.084   .     S
H433   C916    1.083   1_554 S
N437   Zn447   2.021   .     S
N438   Zn448   2.021   .     S
O439   Zn447   2.007   .     S
O440   Zn448   2.003   .     S
O441   Zn447   1.971   .     S
O442   Zn448   1.923   .     S
O443   Zn447   2.003   .     S
O444   Zn448   2.007   .     S
O445   Zn447   1.923   .     S
O446   Zn448   1.971   .     S
C449   O496    1.291   .     A
C449   C457    1.423   .     S
C449   O495    1.285   .     A
C450   C470    1.411   .     A
C450   C452    1.464   .     S
C450   C467    1.402   .     A
C451   C457    1.385   .     A
C451   H482    1.077   .     S
C451   C117    1.362   1_565 S
C452   O497    1.297   .     A
C452   O498    1.299   .     A
C453   I491    2.134   .     S
C453   C454    1.410   .     A
C454   C455    1.414   .     A
C454   C463    1.430   .     S
C455   Cl477   1.772   .     S
C456   Cl478   1.774   .     S
C456   C457    1.404   .     A
C456   C119    1.389   1_565 S
C458   N494    1.372   .     A
C458   Cl479   1.751   .     S
C458   C347    1.417   1_655 S
C459   H483    1.080   .     S
C459   N493    1.364   .     A
C460   C470    1.407   .     A
C460   C973    1.419   .     S
C460   C975    1.417   .     S
C461   Cl480   1.760   .     S
C461   N493    1.362   .     A
C462   N494    1.384   .     A
C462   I492    2.134   .     S
C462   C349    1.422   1_655 S
C463   O499    1.296   .     A
C463   O500    1.284   .     A
C464   O502    1.295   .     A
C464   C466    1.448   .     S
C464   O501    1.295   .     A
C465   C476    1.391   .     A
C465   C976    1.403   1_554 S
C465   H989    1.084   1_554 S
C466   C476    1.398   .     A
C466   C475    1.389   .     A
C467   C468    1.389   .     A
C467   H487    1.082   .     S
C468   C973    1.393   .     S
C468   H993    1.083   .     S
C469   H488    1.078   .     S
C469   C972    1.393   1_554 S
C469   C964    1.419   1_554 S
C470   C474    1.410   .     A
C471   C475    1.389   .     A
C471   C964    1.417   1_554 S
C471   C976    1.422   1_554 S
C472   C473    1.388   .     A
C472   C969    1.403   .     S
C472   C975    1.422   .     S
C473   C474    1.384   .     A
C473   H484    1.084   .     S
C474   H490    1.074   .     S
C475   H486    1.079   .     S
C476   H481    1.081   .     S
H485   C969    1.084   .     S
H489   C972    1.083   1_554 S
N493   Zn503   2.021   .     S
N494   Zn504   2.021   .     S
O495   Zn503   2.007   .     S
O496   Zn504   2.003   .     S
O497   Zn503   1.971   .     S
O498   Zn504   1.923   .     S
O499   Zn503   2.003   .     S
O500   Zn504   2.007   .     S
O501   Zn503   1.923   .     S
O502   Zn504   1.971   .     S
C505   O552    1.291   .     A
C505   C513    1.423   .     S
C505   O551    1.285   .     A
C506   C526    1.411   .     A
C506   C508    1.464   .     S
C506   C523    1.402   .     A
C507   C513    1.385   .     A
C507   H538    1.077   .     S
C507   C677    1.362   .     S
C508   O553    1.297   .     A
C508   O554    1.299   .     A
C509   I547    2.134   .     S
C509   C510    1.410   .     A
C509   C843    1.362   1_545 S
C510   C511    1.414   .     A
C510   C519    1.430   .     S
C511   Cl533   1.772   .     S
C511   C848    1.389   1_545 S
C512   Cl534   1.774   .     S
C512   C513    1.404   .     A
C512   C679    1.389   .     S
C514   N550    1.372   .     A
C514   Cl535   1.751   .     S
C514   C571    1.417   .     S
C515   H539    1.080   .     S
C515   N549    1.364   .     A
C515   C626    1.417   1_455 S
C516   C526    1.407   .     A
C516   C21     1.419   1_556 S
C516   C23     1.417   1_556 S
C517   Cl536   1.760   .     S
C517   N549    1.362   .     A
C517   C630    1.422   1_455 S
C518   N550    1.384   .     A
C518   I548    2.134   .     S
C518   C573    1.422   .     S
C519   O555    1.296   .     A
C519   O556    1.284   .     A
C520   O558    1.295   .     A
C520   C522    1.448   .     S
C520   O557    1.295   .     A
C521   C532    1.391   .     A
C522   C532    1.398   .     A
C522   C531    1.389   .     A
C523   C524    1.389   .     A
C523   H543    1.082   .     S
C524   C21     1.393   1_556 S
C524   H41     1.083   1_556 S
C525   H544    1.078   .     S
C526   C530    1.410   .     A
C527   C531    1.389   .     A
C528   C529    1.388   .     A
C528   C17     1.403   1_556 S
C528   C23     1.422   1_556 S
C529   C530    1.384   .     A
C529   H540    1.084   .     S
C530   H546    1.074   .     S
C531   H542    1.079   .     S
C532   H537    1.081   .     S
H541   C17     1.084   1_556 S
N549   Zn559   2.021   .     S
N550   Zn560   2.021   .     S
O551   Zn559   2.007   .     S
O552   Zn560   2.003   .     S
O553   Zn559   1.971   .     S
O554   Zn560   1.923   .     S
O555   Zn559   2.003   .     S
O556   Zn560   2.007   .     S
O557   Zn559   1.923   .     S
O558   Zn560   1.971   .     S
C561   O608    1.291   .     A
C561   C569    1.423   .     S
C561   O607    1.285   .     A
C562   C582    1.411   .     A
C562   C564    1.464   .     S
C562   C579    1.402   .     A
C563   C569    1.385   .     A
C563   H594    1.077   .     S
C563   C733    1.362   .     S
C564   O609    1.297   .     A
C564   O610    1.299   .     A
C565   I603    2.134   .     S
C565   C566    1.410   .     A
C565   C899    1.362   1_545 S
C566   C567    1.414   .     A
C566   C575    1.430   .     S
C567   Cl589   1.772   .     S
C567   C904    1.389   1_545 S
C568   Cl590   1.774   .     S
C568   C569    1.404   .     A
C568   C735    1.389   .     S
C570   N606    1.372   .     A
C570   Cl591   1.751   .     S
C570   C627    1.417   .     S
C571   H595    1.080   .     S
C571   N605    1.364   .     A
C572   C582    1.407   .     A
C572   C77     1.419   1_556 S
C572   C79     1.417   1_556 S
C573   Cl592   1.760   .     S
C573   N605    1.362   .     A
C574   N606    1.384   .     A
C574   I604    2.134   .     S
C574   C629    1.422   .     S
C575   O611    1.296   .     A
C575   O612    1.284   .     A
C576   O614    1.295   .     A
C576   C578    1.448   .     S
C576   O613    1.295   .     A
C577   C588    1.391   .     A
C578   C588    1.398   .     A
C578   C587    1.389   .     A
C579   C580    1.389   .     A
C579   H599    1.082   .     S
C580   C77     1.393   1_556 S
C580   H97     1.083   1_556 S
C581   H600    1.078   .     S
C582   C586    1.410   .     A
C583   C587    1.389   .     A
C584   C585    1.388   .     A
C584   C73     1.403   1_556 S
C584   C79     1.422   1_556 S
C585   C586    1.384   .     A
C585   H596    1.084   .     S
C586   H602    1.074   .     S
C587   H598    1.079   .     S
C588   H593    1.081   .     S
H597   C73     1.084   1_556 S
N605   Zn615   2.021   .     S
N606   Zn616   2.021   .     S
O607   Zn615   2.007   .     S
O608   Zn616   2.003   .     S
O609   Zn615   1.971   .     S
O610   Zn616   1.923   .     S
O611   Zn615   2.003   .     S
O612   Zn616   2.007   .     S
O613   Zn615   1.923   .     S
O614   Zn616   1.971   .     S
C617   O664    1.291   .     A
C617   C625    1.423   .     S
C617   O663    1.285   .     A
C618   C638    1.411   .     A
C618   C620    1.464   .     S
C618   C635    1.402   .     A
C619   C625    1.385   .     A
C619   H650    1.077   .     S
C619   C789    1.362   .     S
C620   O665    1.297   .     A
C620   O666    1.299   .     A
C621   I659    2.134   .     S
C621   C622    1.410   .     A
C621   C955    1.362   1_545 S
C622   C623    1.414   .     A
C622   C631    1.430   .     S
C623   Cl645   1.772   .     S
C623   C960    1.389   1_545 S
C624   Cl646   1.774   .     S
C624   C625    1.404   .     A
C624   C791    1.389   .     S
C626   N662    1.372   .     A
C626   Cl647   1.751   .     S
C626   C515    1.417   1_655 S
C627   H651    1.080   .     S
C627   N661    1.364   .     A
C628   C638    1.407   .     A
C628   C133    1.419   1_556 S
C628   C135    1.417   1_556 S
C629   Cl648   1.760   .     S
C629   N661    1.362   .     A
C630   N662    1.384   .     A
C630   I660    2.134   .     S
C630   C517    1.422   1_655 S
C631   O667    1.296   .     A
C631   O668    1.284   .     A
C632   O670    1.295   .     A
C632   C634    1.448   .     S
C632   O669    1.295   .     A
C633   C644    1.391   .     A
C634   C644    1.398   .     A
C634   C643    1.389   .     A
C635   C636    1.389   .     A
C635   H655    1.082   .     S
C636   C133    1.393   1_556 S
C636   H153    1.083   1_556 S
C637   H656    1.078   .     S
C638   C642    1.410   .     A
C639   C643    1.389   .     A
C640   C641    1.388   .     A
C640   C129    1.403   1_556 S
C640   C135    1.422   1_556 S
C641   C642    1.384   .     A
C641   H652    1.084   .     S
C642   H658    1.074   .     S
C643   H654    1.079   .     S
C644   H649    1.081   .     S
H653   C129    1.084   1_556 S
N661   Zn671   2.021   .     S
N662   Zn672   2.021   .     S
O663   Zn671   2.007   .     S
O664   Zn672   2.003   .     S
O665   Zn671   1.971   .     S
O666   Zn672   1.923   .     S
O667   Zn671   2.003   .     S
O668   Zn672   2.007   .     S
O669   Zn671   1.923   .     S
O670   Zn672   1.971   .     S
C673   O720    1.291   .     A
C673   C681    1.423   .     S
C673   O719    1.285   .     A
C674   C694    1.411   .     A
C674   C676    1.464   .     S
C674   C691    1.402   .     A
C675   C681    1.385   .     A
C675   H706    1.077   .     S
C675   C845    1.362   .     S
C676   O721    1.297   .     A
C676   O722    1.299   .     A
C677   I715    2.134   .     S
C677   C678    1.410   .     A
C678   C679    1.414   .     A
C678   C687    1.430   .     S
C679   Cl701   1.772   .     S
C680   Cl702   1.774   .     S
C680   C681    1.404   .     A
C680   C847    1.389   .     S
C682   N718    1.372   .     A
C682   Cl703   1.751   .     S
C682   C739    1.417   .     S
C683   H707    1.080   .     S
C683   N717    1.364   .     A
C683   C794    1.417   1_455 S
C684   C694    1.407   .     A
C684   C189    1.419   1_556 S
C684   C191    1.417   1_556 S
C685   Cl704   1.760   .     S
C685   N717    1.362   .     A
C685   C798    1.422   1_455 S
C686   N718    1.384   .     A
C686   I716    2.134   .     S
C686   C741    1.422   .     S
C687   O723    1.296   .     A
C687   O724    1.284   .     A
C688   O726    1.295   .     A
C688   C690    1.448   .     S
C688   O725    1.295   .     A
C689   C700    1.391   .     A
C690   C700    1.398   .     A
C690   C699    1.389   .     A
C691   C692    1.389   .     A
C691   H711    1.082   .     S
C692   C189    1.393   1_556 S
C692   H209    1.083   1_556 S
C693   H712    1.078   .     S
C694   C698    1.410   .     A
C695   C699    1.389   .     A
C696   C697    1.388   .     A
C696   C185    1.403   1_556 S
C696   C191    1.422   1_556 S
C697   C698    1.384   .     A
C697   H708    1.084   .     S
C698   H714    1.074   .     S
C699   H710    1.079   .     S
C700   H705    1.081   .     S
H709   C185    1.084   1_556 S
N717   Zn727   2.021   .     S
N718   Zn728   2.021   .     S
O719   Zn727   2.007   .     S
O720   Zn728   2.003   .     S
O721   Zn727   1.971   .     S
O722   Zn728   1.923   .     S
O723   Zn727   2.003   .     S
O724   Zn728   2.007   .     S
O725   Zn727   1.923   .     S
O726   Zn728   1.971   .     S
C729   O776    1.291   .     A
C729   C737    1.423   .     S
C729   O775    1.285   .     A
C730   C750    1.411   .     A
C730   C732    1.464   .     S
C730   C747    1.402   .     A
C731   C737    1.385   .     A
C731   H762    1.077   .     S
C731   C901    1.362   .     S
C732   O777    1.297   .     A
C732   O778    1.299   .     A
C733   I771    2.134   .     S
C733   C734    1.410   .     A
C734   C735    1.414   .     A
C734   C743    1.430   .     S
C735   Cl757   1.772   .     S
C736   Cl758   1.774   .     S
C736   C737    1.404   .     A
C736   C903    1.389   .     S
C738   N774    1.372   .     A
C738   Cl759   1.751   .     S
C738   C795    1.417   .     S
C739   H763    1.080   .     S
C739   N773    1.364   .     A
C740   C750    1.407   .     A
C740   C245    1.419   1_556 S
C740   C247    1.417   1_556 S
C741   Cl760   1.760   .     S
C741   N773    1.362   .     A
C742   N774    1.384   .     A
C742   I772    2.134   .     S
C742   C797    1.422   .     S
C743   O779    1.296   .     A
C743   O780    1.284   .     A
C744   O782    1.295   .     A
C744   C746    1.448   .     S
C744   O781    1.295   .     A
C745   C756    1.391   .     A
C746   C756    1.398   .     A
C746   C755    1.389   .     A
C747   C748    1.389   .     A
C747   H767    1.082   .     S
C748   C245    1.393   1_556 S
C748   H265    1.083   1_556 S
C749   H768    1.078   .     S
C750   C754    1.410   .     A
C751   C755    1.389   .     A
C752   C753    1.388   .     A
C752   C241    1.403   1_556 S
C752   C247    1.422   1_556 S
C753   C754    1.384   .     A
C753   H764    1.084   .     S
C754   H770    1.074   .     S
C755   H766    1.079   .     S
C756   H761    1.081   .     S
H765   C241    1.084   1_556 S
N773   Zn783   2.021   .     S
N774   Zn784   2.021   .     S
O775   Zn783   2.007   .     S
O776   Zn784   2.003   .     S
O777   Zn783   1.971   .     S
O778   Zn784   1.923   .     S
O779   Zn783   2.003   .     S
O780   Zn784   2.007   .     S
O781   Zn783   1.923   .     S
O782   Zn784   1.971   .     S
C785   O832    1.291   .     A
C785   C793    1.423   .     S
C785   O831    1.285   .     A
C786   C806    1.411   .     A
C786   C788    1.464   .     S
C786   C803    1.402   .     A
C787   C793    1.385   .     A
C787   H818    1.077   .     S
C787   C957    1.362   .     S
C788   O833    1.297   .     A
C788   O834    1.299   .     A
C789   I827    2.134   .     S
C789   C790    1.410   .     A
C790   C791    1.414   .     A
C790   C799    1.430   .     S
C791   Cl813   1.772   .     S
C792   Cl814   1.774   .     S
C792   C793    1.404   .     A
C792   C959    1.389   .     S
C794   N830    1.372   .     A
C794   Cl815   1.751   .     S
C794   C683    1.417   1_655 S
C795   H819    1.080   .     S
C795   N829    1.364   .     A
C796   C806    1.407   .     A
C796   C301    1.419   1_556 S
C796   C303    1.417   1_556 S
C797   Cl816   1.760   .     S
C797   N829    1.362   .     A
C798   N830    1.384   .     A
C798   I828    2.134   .     S
C798   C685    1.422   1_655 S
C799   O835    1.296   .     A
C799   O836    1.284   .     A
C800   O838    1.295   .     A
C800   C802    1.448   .     S
C800   O837    1.295   .     A
C801   C812    1.391   .     A
C802   C812    1.398   .     A
C802   C811    1.389   .     A
C803   C804    1.389   .     A
C803   H823    1.082   .     S
C804   C301    1.393   1_556 S
C804   H321    1.083   1_556 S
C805   H824    1.078   .     S
C806   C810    1.410   .     A
C807   C811    1.389   .     A
C808   C809    1.388   .     A
C808   C297    1.403   1_556 S
C808   C303    1.422   1_556 S
C809   C810    1.384   .     A
C809   H820    1.084   .     S
C810   H826    1.074   .     S
C811   H822    1.079   .     S
C812   H817    1.081   .     S
H821   C297    1.084   1_556 S
N829   Zn839   2.021   .     S
N830   Zn840   2.021   .     S
O831   Zn839   2.007   .     S
O832   Zn840   2.003   .     S
O833   Zn839   1.971   .     S
O834   Zn840   1.923   .     S
O835   Zn839   2.003   .     S
O836   Zn840   2.007   .     S
O837   Zn839   1.923   .     S
O838   Zn840   1.971   .     S
C841   O888    1.291   .     A
C841   C849    1.423   .     S
C841   O887    1.285   .     A
C842   C862    1.411   .     A
C842   C844    1.464   .     S
C842   C859    1.402   .     A
C843   C849    1.385   .     A
C843   H874    1.077   .     S
C843   C509    1.362   1_565 S
C844   O889    1.297   .     A
C844   O890    1.299   .     A
C845   I883    2.134   .     S
C845   C846    1.410   .     A
C846   C847    1.414   .     A
C846   C855    1.430   .     S
C847   Cl869   1.772   .     S
C848   Cl870   1.774   .     S
C848   C849    1.404   .     A
C848   C511    1.389   1_565 S
C850   N886    1.372   .     A
C850   Cl871   1.751   .     S
C850   C907    1.417   .     S
C851   H875    1.080   .     S
C851   N885    1.364   .     A
C851   C962    1.417   1_455 S
C852   C862    1.407   .     A
C852   C357    1.419   1_556 S
C852   C359    1.417   1_556 S
C853   Cl872   1.760   .     S
C853   N885    1.362   .     A
C853   C966    1.422   1_455 S
C854   N886    1.384   .     A
C854   I884    2.134   .     S
C854   C909    1.422   .     S
C855   O891    1.296   .     A
C855   O892    1.284   .     A
C856   O894    1.295   .     A
C856   C858    1.448   .     S
C856   O893    1.295   .     A
C857   C868    1.391   .     A
C858   C868    1.398   .     A
C858   C867    1.389   .     A
C859   C860    1.389   .     A
C859   H879    1.082   .     S
C860   C357    1.393   1_556 S
C860   H377    1.083   1_556 S
C861   H880    1.078   .     S
C862   C866    1.410   .     A
C863   C867    1.389   .     A
C864   C865    1.388   .     A
C864   C353    1.403   1_556 S
C864   C359    1.422   1_556 S
C865   C866    1.384   .     A
C865   H876    1.084   .     S
C866   H882    1.074   .     S
C867   H878    1.079   .     S
C868   H873    1.081   .     S
H877   C353    1.084   1_556 S
N885   Zn895   2.021   .     S
N886   Zn896   2.021   .     S
O887   Zn895   2.007   .     S
O888   Zn896   2.003   .     S
O889   Zn895   1.971   .     S
O890   Zn896   1.923   .     S
O891   Zn895   2.003   .     S
O892   Zn896   2.007   .     S
O893   Zn895   1.923   .     S
O894   Zn896   1.971   .     S
C897   O944    1.291   .     A
C897   C905    1.423   .     S
C897   O943    1.285   .     A
C898   C918    1.411   .     A
C898   C900    1.464   .     S
C898   C915    1.402   .     A
C899   C905    1.385   .     A
C899   H930    1.077   .     S
C899   C565    1.362   1_565 S
C900   O945    1.297   .     A
C900   O946    1.299   .     A
C901   I939    2.134   .     S
C901   C902    1.410   .     A
C902   C903    1.414   .     A
C902   C911    1.430   .     S
C903   Cl925   1.772   .     S
C904   Cl926   1.774   .     S
C904   C905    1.404   .     A
C904   C567    1.389   1_565 S
C906   N942    1.372   .     A
C906   Cl927   1.751   .     S
C906   C963    1.417   .     S
C907   H931    1.080   .     S
C907   N941    1.364   .     A
C908   C918    1.407   .     A
C908   C413    1.419   1_556 S
C908   C415    1.417   1_556 S
C909   Cl928   1.760   .     S
C909   N941    1.362   .     A
C910   N942    1.384   .     A
C910   I940    2.134   .     S
C910   C965    1.422   .     S
C911   O947    1.296   .     A
C911   O948    1.284   .     A
C912   O950    1.295   .     A
C912   C914    1.448   .     S
C912   O949    1.295   .     A
C913   C924    1.391   .     A
C914   C924    1.398   .     A
C914   C923    1.389   .     A
C915   C916    1.389   .     A
C915   H935    1.082   .     S
C916   C413    1.393   1_556 S
C916   H433    1.083   1_556 S
C917   H936    1.078   .     S
C918   C922    1.410   .     A
C919   C923    1.389   .     A
C920   C921    1.388   .     A
C920   C409    1.403   1_556 S
C920   C415    1.422   1_556 S
C921   C922    1.384   .     A
C921   H932    1.084   .     S
C922   H938    1.074   .     S
C923   H934    1.079   .     S
C924   H929    1.081   .     S
H933   C409    1.084   1_556 S
N941   Zn951   2.021   .     S
N942   Zn952   2.021   .     S
O943   Zn951   2.007   .     S
O944   Zn952   2.003   .     S
O945   Zn951   1.971   .     S
O946   Zn952   1.923   .     S
O947   Zn951   2.003   .     S
O948   Zn952   2.007   .     S
O949   Zn951   1.923   .     S
O950   Zn952   1.971   .     S
C953   O1000   1.291   .     A
C953   C961    1.423   .     S
C953   O999    1.285   .     A
C954   C974    1.411   .     A
C954   C956    1.464   .     S
C954   C971    1.402   .     A
C955   C961    1.385   .     A
C955   H986    1.077   .     S
C955   C621    1.362   1_565 S
C956   O1001   1.297   .     A
C956   O1002   1.299   .     A
C957   I995    2.134   .     S
C957   C958    1.410   .     A
C958   C959    1.414   .     A
C958   C967    1.430   .     S
C959   Cl981   1.772   .     S
C960   Cl982   1.774   .     S
C960   C961    1.404   .     A
C960   C623    1.389   1_565 S
C962   N998    1.372   .     A
C962   Cl983   1.751   .     S
C962   C851    1.417   1_655 S
C963   H987    1.080   .     S
C963   N997    1.364   .     A
C964   C974    1.407   .     A
C964   C469    1.419   1_556 S
C964   C471    1.417   1_556 S
C965   Cl984   1.760   .     S
C965   N997    1.362   .     A
C966   N998    1.384   .     A
C966   I996    2.134   .     S
C966   C853    1.422   1_655 S
C967   O1003   1.296   .     A
C967   O1004   1.284   .     A
C968   O1006   1.295   .     A
C968   C970    1.448   .     S
C968   O1005   1.295   .     A
C969   C980    1.391   .     A
C970   C980    1.398   .     A
C970   C979    1.389   .     A
C971   C972    1.389   .     A
C971   H991    1.082   .     S
C972   C469    1.393   1_556 S
C972   H489    1.083   1_556 S
C973   H992    1.078   .     S
C974   C978    1.410   .     A
C975   C979    1.389   .     A
C976   C977    1.388   .     A
C976   C465    1.403   1_556 S
C976   C471    1.422   1_556 S
C977   C978    1.384   .     A
C977   H988    1.084   .     S
C978   H994    1.074   .     S
C979   H990    1.079   .     S
C980   H985    1.081   .     S
H989   C465    1.084   1_556 S
N997   Zn1007  2.021   .     S
N998   Zn1008  2.021   .     S
O999   Zn1007  2.007   .     S
O1000  Zn1008  2.003   .     S
O1001  Zn1007  1.971   .     S
O1002  Zn1008  1.923   .     S
O1003  Zn1007  2.003   .     S
O1004  Zn1008  2.007   .     S
O1005  Zn1007  1.923   .     S
O1006  Zn1008  1.971   .     S
