data_str_m2_o1_o5_pcu_sym.86
_audit_creation_date              2020-01-03
_audit_creation_method            'Materials Studio'
_symmetry_space_group_name_H-M    'P1'
_symmetry_Int_Tables_number       1
_symmetry_cell_setting            triclinic
loop_
_symmetry_equiv_pos_as_xyz
  x,y,z
_cell_length_a                    32.7009
_cell_length_b                    29.6817
_cell_length_c                    26.8302
_cell_angle_alpha                 89.9843
_cell_angle_beta                  94.2440
_cell_angle_gamma                 89.6094
loop_
_atom_site_label
_atom_site_type_symbol
_atom_site_fract_x
_atom_site_fract_y
_atom_site_fract_z
_atom_site_U_iso_or_equiv
_atom_site_adp_type
_atom_site_occupancy
C1     C     0.08819   0.16669   0.17102   0.00000  Uiso   1.00
C2     C     0.02110   0.20677   0.17396   0.00000  Uiso   1.00
C3     C     0.29093   0.16509   0.16760   0.00000  Uiso   1.00
C4     C     0.04379   0.16637   0.17783   0.00000  Uiso   1.00
C5     C     0.15874   0.02363   0.12316   0.00000  Uiso   1.00
C6     C     0.18184   0.30873   0.20804   0.00000  Uiso   1.00
C7     C     0.17471   0.02352   0.21015   0.00000  Uiso   1.00
C8     C     0.15173   0.30888   0.12510   0.00000  Uiso   1.00
C9     C     0.04497   0.08441   0.20020   0.00000  Uiso   1.00
C10    C     0.29384   0.24441   0.13537   0.00000  Uiso   1.00
C11    C     0.29348   0.08186   0.18824   0.00000  Uiso   1.00
C12    C     0.24568   0.16629   0.16600   0.00000  Uiso   1.00
C13    C     0.03846   0.24904   0.19202   0.00000  Uiso   1.00
C14    C     0.16337   0.04277   0.07119   0.00000  Uiso   1.00
C15    C     0.12331   0.06473   0.04730   0.00000  Uiso   1.00
C16    C     0.20441   0.28644   0.25454   0.00000  Uiso   1.00
C17    C     0.24549   0.26386   0.24673   0.00000  Uiso   1.00
C18    C     0.16971   0.04242   0.26227   0.00000  Uiso   1.00
C19    C     0.20931   0.06406   0.28702   0.00000  Uiso   1.00
C20    C     0.13055   0.28665   0.07773   0.00000  Uiso   1.00
C21    C     0.08984   0.26312   0.08361   0.00000  Uiso   1.00
C22    C     0.16677   0.16680   0.07404   0.00000  Uiso   1.00
C23    C     0.16664   0.16680   0.25931   0.00000  Uiso   1.00
C24    C     0.16680   0.16739   0.02205   0.00000  Uiso   1.00
C25    C     0.16661   0.16738   0.31129   0.00000  Uiso   1.00
C26    C     0.02294   0.12547   0.18482   0.00000  Uiso   1.00
C27    C     0.31264   0.20534   0.16057   0.00000  Uiso   1.00
C28    C     0.31331   0.12484   0.18063   0.00000  Uiso   1.00
Cu29   Cu    0.16667   0.21355   0.16667   0.00000  Uiso   1.00
Cu30   Cu    0.16667   0.11978   0.16667   0.00000  Uiso   1.00
H31    H     0.10138   0.04098   0.02856   0.00000  Uiso   1.00
H32    H     0.18393   0.26760   0.27756   0.00000  Uiso   1.00
H33    H     0.23140   0.04021   0.30584   0.00000  Uiso   1.00
H34    H     0.22629   0.08281   0.25950   0.00000  Uiso   1.00
H35    H     0.20113   0.08715   0.31701   0.00000  Uiso   1.00
H36    H     0.14175   0.06351   0.26187   0.00000  Uiso   1.00
H37    H     0.15941   0.01608   0.28781   0.00000  Uiso   1.00
H38    H     0.06709   0.27138   0.05193   0.00000  Uiso   1.00
H39    H     0.09325   0.22611   0.08234   0.00000  Uiso   1.00
H40    H     0.07657   0.27511   0.11770   0.00000  Uiso   1.00
H41    H     0.12058   0.31121   0.04956   0.00000  Uiso   1.00
H42    H     0.10634   0.08294   0.07554   0.00000  Uiso   1.00
H43    H     0.15223   0.26857   0.05524   0.00000  Uiso   1.00
H44    H     0.13081   0.08824   0.01746   0.00000  Uiso   1.00
H45    H     0.19135   0.06342   0.07155   0.00000  Uiso   1.00
H46    H     0.17384   0.01676   0.04524   0.00000  Uiso   1.00
H47    H     0.24324   0.22687   0.25060   0.00000  Uiso   1.00
H48    H     0.25648   0.27434   0.21065   0.00000  Uiso   1.00
H49    H     0.26945   0.27423   0.27605   0.00000  Uiso   1.00
H50    H     0.21405   0.31083   0.28284   0.00000  Uiso   1.00
N51    N     0.16667   0.28402   0.16667   0.00000  Uiso   1.00
N52    N     0.16667   0.04931   0.16667   0.00000  Uiso   1.00
N53    N     0.06240   0.05174   0.21255   0.00000  Uiso   1.00
N54    N     0.27904   0.27553   0.11499   0.00000  Uiso   1.00
N55    N     0.27815   0.04740   0.19410   0.00000  Uiso   1.00
N56    N     0.05208   0.28266   0.20718   0.00000  Uiso   1.00
O57    O     0.10655   0.20625   0.16666   0.00000  Uiso   1.00
O58    O     0.22679   0.12709   0.16667   0.00000  Uiso   1.00
O59    O     0.22679   0.20625   0.16667   0.00000  Uiso   1.00
O60    O     0.10655   0.12709   0.16666   0.00000  Uiso   1.00
O61    O     0.16667   0.20625   0.09613   0.00000  Uiso   1.00
O62    O     0.16667   0.12708   0.23720   0.00000  Uiso   1.00
O63    O     0.16667   0.20625   0.23720   0.00000  Uiso   1.00
O64    O     0.16667   0.12708   0.09613   0.00000  Uiso   1.00
C65    C     0.42152   0.16669   0.17102   0.00000  Uiso   1.00
C66    C     0.35443   0.20677   0.17396   0.00000  Uiso   1.00
C67    C     0.62426   0.16509   0.16760   0.00000  Uiso   1.00
C68    C     0.37713   0.16637   0.17783   0.00000  Uiso   1.00
C69    C     0.49207   0.02363   0.12316   0.00000  Uiso   1.00
C70    C     0.51517   0.30873   0.20804   0.00000  Uiso   1.00
C71    C     0.50804   0.02352   0.21015   0.00000  Uiso   1.00
C72    C     0.48506   0.30888   0.12510   0.00000  Uiso   1.00
C73    C     0.37831   0.08441   0.20020   0.00000  Uiso   1.00
C74    C     0.62717   0.24441   0.13537   0.00000  Uiso   1.00
C75    C     0.62682   0.08186   0.18824   0.00000  Uiso   1.00
C76    C     0.57901   0.16629   0.16600   0.00000  Uiso   1.00
C77    C     0.37179   0.24904   0.19202   0.00000  Uiso   1.00
C78    C     0.49671   0.04277   0.07119   0.00000  Uiso   1.00
C79    C     0.45664   0.06473   0.04730   0.00000  Uiso   1.00
C80    C     0.53775   0.28644   0.25454   0.00000  Uiso   1.00
C81    C     0.57882   0.26386   0.24673   0.00000  Uiso   1.00
C82    C     0.50304   0.04242   0.26227   0.00000  Uiso   1.00
C83    C     0.54264   0.06406   0.28702   0.00000  Uiso   1.00
C84    C     0.46388   0.28665   0.07773   0.00000  Uiso   1.00
C85    C     0.42318   0.26312   0.08361   0.00000  Uiso   1.00
C86    C     0.50011   0.16680   0.07404   0.00000  Uiso   1.00
C87    C     0.49997   0.16680   0.25931   0.00000  Uiso   1.00
C88    C     0.50013   0.16739   0.02205   0.00000  Uiso   1.00
C89    C     0.49995   0.16738   0.31129   0.00000  Uiso   1.00
C90    C     0.35627   0.12547   0.18482   0.00000  Uiso   1.00
C91    C     0.64597   0.20534   0.16057   0.00000  Uiso   1.00
C92    C     0.64665   0.12484   0.18063   0.00000  Uiso   1.00
Cu93   Cu    0.50000   0.21355   0.16667   0.00000  Uiso   1.00
Cu94   Cu    0.50000   0.11978   0.16667   0.00000  Uiso   1.00
H95    H     0.43472   0.04098   0.02856   0.00000  Uiso   1.00
H96    H     0.51727   0.26760   0.27756   0.00000  Uiso   1.00
H97    H     0.56473   0.04021   0.30584   0.00000  Uiso   1.00
H98    H     0.55962   0.08281   0.25950   0.00000  Uiso   1.00
H99    H     0.53446   0.08715   0.31701   0.00000  Uiso   1.00
H100   H     0.47508   0.06351   0.26187   0.00000  Uiso   1.00
H101   H     0.49275   0.01608   0.28781   0.00000  Uiso   1.00
H102   H     0.40042   0.27138   0.05193   0.00000  Uiso   1.00
H103   H     0.42658   0.22611   0.08234   0.00000  Uiso   1.00
H104   H     0.40991   0.27511   0.11770   0.00000  Uiso   1.00
H105   H     0.45391   0.31121   0.04956   0.00000  Uiso   1.00
H106   H     0.43967   0.08294   0.07554   0.00000  Uiso   1.00
H107   H     0.48556   0.26857   0.05524   0.00000  Uiso   1.00
H108   H     0.46414   0.08824   0.01746   0.00000  Uiso   1.00
H109   H     0.52468   0.06342   0.07155   0.00000  Uiso   1.00
H110   H     0.50717   0.01676   0.04524   0.00000  Uiso   1.00
H111   H     0.57657   0.22687   0.25060   0.00000  Uiso   1.00
H112   H     0.58981   0.27434   0.21065   0.00000  Uiso   1.00
H113   H     0.60279   0.27423   0.27605   0.00000  Uiso   1.00
H114   H     0.54738   0.31083   0.28284   0.00000  Uiso   1.00
N115   N     0.50000   0.28402   0.16667   0.00000  Uiso   1.00
N116   N     0.50000   0.04931   0.16667   0.00000  Uiso   1.00
N117   N     0.39573   0.05174   0.21255   0.00000  Uiso   1.00
N118   N     0.61238   0.27553   0.11499   0.00000  Uiso   1.00
N119   N     0.61149   0.04740   0.19410   0.00000  Uiso   1.00
N120   N     0.38542   0.28266   0.20718   0.00000  Uiso   1.00
O121   O     0.43988   0.20625   0.16666   0.00000  Uiso   1.00
O122   O     0.56012   0.12709   0.16667   0.00000  Uiso   1.00
O123   O     0.56012   0.20625   0.16667   0.00000  Uiso   1.00
O124   O     0.43988   0.12709   0.16666   0.00000  Uiso   1.00
O125   O     0.50000   0.20625   0.09613   0.00000  Uiso   1.00
O126   O     0.50000   0.12708   0.23720   0.00000  Uiso   1.00
O127   O     0.50000   0.20625   0.23720   0.00000  Uiso   1.00
O128   O     0.50000   0.12708   0.09613   0.00000  Uiso   1.00
C129   C     0.75486   0.16669   0.17102   0.00000  Uiso   1.00
C130   C     0.68776   0.20677   0.17396   0.00000  Uiso   1.00
C131   C     0.95760   0.16509   0.16760   0.00000  Uiso   1.00
C132   C     0.71046   0.16637   0.17783   0.00000  Uiso   1.00
C133   C     0.82540   0.02363   0.12316   0.00000  Uiso   1.00
C134   C     0.84851   0.30873   0.20804   0.00000  Uiso   1.00
C135   C     0.84137   0.02352   0.21015   0.00000  Uiso   1.00
C136   C     0.81839   0.30888   0.12510   0.00000  Uiso   1.00
C137   C     0.71164   0.08441   0.20020   0.00000  Uiso   1.00
C138   C     0.96051   0.24441   0.13537   0.00000  Uiso   1.00
C139   C     0.96015   0.08186   0.18824   0.00000  Uiso   1.00
C140   C     0.91234   0.16629   0.16600   0.00000  Uiso   1.00
C141   C     0.70512   0.24904   0.19202   0.00000  Uiso   1.00
C142   C     0.83004   0.04277   0.07119   0.00000  Uiso   1.00
C143   C     0.78997   0.06473   0.04730   0.00000  Uiso   1.00
C144   C     0.87108   0.28644   0.25454   0.00000  Uiso   1.00
C145   C     0.91215   0.26386   0.24673   0.00000  Uiso   1.00
C146   C     0.83638   0.04242   0.26227   0.00000  Uiso   1.00
C147   C     0.87598   0.06406   0.28702   0.00000  Uiso   1.00
C148   C     0.79722   0.28665   0.07773   0.00000  Uiso   1.00
C149   C     0.75651   0.26312   0.08361   0.00000  Uiso   1.00
C150   C     0.83344   0.16680   0.07404   0.00000  Uiso   1.00
C151   C     0.83331   0.16680   0.25931   0.00000  Uiso   1.00
C152   C     0.83346   0.16739   0.02205   0.00000  Uiso   1.00
C153   C     0.83328   0.16738   0.31129   0.00000  Uiso   1.00
C154   C     0.68960   0.12547   0.18482   0.00000  Uiso   1.00
C155   C     0.97931   0.20534   0.16057   0.00000  Uiso   1.00
C156   C     0.97998   0.12484   0.18063   0.00000  Uiso   1.00
Cu157  Cu    0.83333   0.21355   0.16667   0.00000  Uiso   1.00
Cu158  Cu    0.83333   0.11978   0.16667   0.00000  Uiso   1.00
H159   H     0.76805   0.04098   0.02856   0.00000  Uiso   1.00
H160   H     0.85060   0.26760   0.27756   0.00000  Uiso   1.00
H161   H     0.89807   0.04021   0.30584   0.00000  Uiso   1.00
H162   H     0.89295   0.08281   0.25950   0.00000  Uiso   1.00
H163   H     0.86780   0.08715   0.31701   0.00000  Uiso   1.00
H164   H     0.80841   0.06351   0.26187   0.00000  Uiso   1.00
H165   H     0.82608   0.01608   0.28781   0.00000  Uiso   1.00
H166   H     0.73375   0.27138   0.05193   0.00000  Uiso   1.00
H167   H     0.75991   0.22611   0.08234   0.00000  Uiso   1.00
H168   H     0.74324   0.27511   0.11770   0.00000  Uiso   1.00
H169   H     0.78724   0.31121   0.04956   0.00000  Uiso   1.00
H170   H     0.77301   0.08294   0.07554   0.00000  Uiso   1.00
H171   H     0.81889   0.26857   0.05524   0.00000  Uiso   1.00
H172   H     0.79748   0.08824   0.01746   0.00000  Uiso   1.00
H173   H     0.85802   0.06342   0.07155   0.00000  Uiso   1.00
H174   H     0.84050   0.01676   0.04524   0.00000  Uiso   1.00
H175   H     0.90991   0.22687   0.25060   0.00000  Uiso   1.00
H176   H     0.92314   0.27434   0.21065   0.00000  Uiso   1.00
H177   H     0.93612   0.27423   0.27605   0.00000  Uiso   1.00
H178   H     0.88072   0.31083   0.28284   0.00000  Uiso   1.00
N179   N     0.83333   0.28402   0.16667   0.00000  Uiso   1.00
N180   N     0.83333   0.04931   0.16667   0.00000  Uiso   1.00
N181   N     0.72907   0.05174   0.21255   0.00000  Uiso   1.00
N182   N     0.94571   0.27553   0.11499   0.00000  Uiso   1.00
N183   N     0.94482   0.04740   0.19410   0.00000  Uiso   1.00
N184   N     0.71875   0.28266   0.20718   0.00000  Uiso   1.00
O185   O     0.77321   0.20625   0.16666   0.00000  Uiso   1.00
O186   O     0.89345   0.12709   0.16667   0.00000  Uiso   1.00
O187   O     0.89345   0.20625   0.16667   0.00000  Uiso   1.00
O188   O     0.77321   0.12709   0.16666   0.00000  Uiso   1.00
O189   O     0.83333   0.20625   0.09613   0.00000  Uiso   1.00
O190   O     0.83333   0.12708   0.23720   0.00000  Uiso   1.00
O191   O     0.83333   0.20625   0.23720   0.00000  Uiso   1.00
O192   O     0.83333   0.12708   0.09613   0.00000  Uiso   1.00
C193   C     0.08819   0.50002   0.17102   0.00000  Uiso   1.00
C194   C     0.02110   0.54011   0.17396   0.00000  Uiso   1.00
C195   C     0.29093   0.49843   0.16760   0.00000  Uiso   1.00
C196   C     0.04379   0.49970   0.17783   0.00000  Uiso   1.00
C197   C     0.15874   0.35696   0.12316   0.00000  Uiso   1.00
C198   C     0.18184   0.64207   0.20804   0.00000  Uiso   1.00
C199   C     0.17471   0.35685   0.21015   0.00000  Uiso   1.00
C200   C     0.15173   0.64221   0.12510   0.00000  Uiso   1.00
C201   C     0.04497   0.41774   0.20020   0.00000  Uiso   1.00
C202   C     0.29384   0.57775   0.13537   0.00000  Uiso   1.00
C203   C     0.29348   0.41519   0.18824   0.00000  Uiso   1.00
C204   C     0.24568   0.49962   0.16600   0.00000  Uiso   1.00
C205   C     0.03846   0.58238   0.19202   0.00000  Uiso   1.00
C206   C     0.16337   0.37611   0.07119   0.00000  Uiso   1.00
C207   C     0.12331   0.39807   0.04730   0.00000  Uiso   1.00
C208   C     0.20441   0.61977   0.25454   0.00000  Uiso   1.00
C209   C     0.24549   0.59719   0.24673   0.00000  Uiso   1.00
C210   C     0.16971   0.37575   0.26227   0.00000  Uiso   1.00
C211   C     0.20931   0.39739   0.28702   0.00000  Uiso   1.00
C212   C     0.13055   0.61998   0.07773   0.00000  Uiso   1.00
C213   C     0.08984   0.59646   0.08361   0.00000  Uiso   1.00
C214   C     0.16677   0.50013   0.07404   0.00000  Uiso   1.00
C215   C     0.16664   0.50013   0.25931   0.00000  Uiso   1.00
C216   C     0.16680   0.50072   0.02205   0.00000  Uiso   1.00
C217   C     0.16661   0.50071   0.31129   0.00000  Uiso   1.00
C218   C     0.02294   0.45880   0.18482   0.00000  Uiso   1.00
C219   C     0.31264   0.53867   0.16057   0.00000  Uiso   1.00
C220   C     0.31331   0.45818   0.18063   0.00000  Uiso   1.00
Cu221  Cu    0.16667   0.54689   0.16667   0.00000  Uiso   1.00
Cu222  Cu    0.16667   0.45311   0.16667   0.00000  Uiso   1.00
H223   H     0.10138   0.37432   0.02856   0.00000  Uiso   1.00
H224   H     0.18393   0.60093   0.27756   0.00000  Uiso   1.00
H225   H     0.23140   0.37354   0.30584   0.00000  Uiso   1.00
H226   H     0.22629   0.41615   0.25950   0.00000  Uiso   1.00
H227   H     0.20113   0.42048   0.31701   0.00000  Uiso   1.00
H228   H     0.14175   0.39684   0.26187   0.00000  Uiso   1.00
H229   H     0.15941   0.34942   0.28781   0.00000  Uiso   1.00
H230   H     0.06709   0.60472   0.05193   0.00000  Uiso   1.00
H231   H     0.09325   0.55944   0.08234   0.00000  Uiso   1.00
H232   H     0.07657   0.60844   0.11770   0.00000  Uiso   1.00
H233   H     0.12058   0.64455   0.04956   0.00000  Uiso   1.00
H234   H     0.10634   0.41628   0.07554   0.00000  Uiso   1.00
H235   H     0.15223   0.60190   0.05524   0.00000  Uiso   1.00
H236   H     0.13081   0.42158   0.01746   0.00000  Uiso   1.00
H237   H     0.19135   0.39675   0.07155   0.00000  Uiso   1.00
H238   H     0.17384   0.35010   0.04524   0.00000  Uiso   1.00
H239   H     0.24324   0.56020   0.25060   0.00000  Uiso   1.00
H240   H     0.25648   0.60767   0.21065   0.00000  Uiso   1.00
H241   H     0.26945   0.60756   0.27605   0.00000  Uiso   1.00
H242   H     0.21405   0.64417   0.28284   0.00000  Uiso   1.00
N243   N     0.16667   0.61736   0.16667   0.00000  Uiso   1.00
N244   N     0.16667   0.38264   0.16667   0.00000  Uiso   1.00
N245   N     0.06240   0.38507   0.21255   0.00000  Uiso   1.00
N246   N     0.27904   0.60886   0.11499   0.00000  Uiso   1.00
N247   N     0.27815   0.38074   0.19410   0.00000  Uiso   1.00
N248   N     0.05208   0.61599   0.20718   0.00000  Uiso   1.00
O249   O     0.10655   0.53958   0.16666   0.00000  Uiso   1.00
O250   O     0.22679   0.46042   0.16667   0.00000  Uiso   1.00
O251   O     0.22679   0.53958   0.16667   0.00000  Uiso   1.00
O252   O     0.10655   0.46042   0.16666   0.00000  Uiso   1.00
O253   O     0.16667   0.53959   0.09613   0.00000  Uiso   1.00
O254   O     0.16667   0.46041   0.23720   0.00000  Uiso   1.00
O255   O     0.16667   0.53959   0.23720   0.00000  Uiso   1.00
O256   O     0.16667   0.46041   0.09613   0.00000  Uiso   1.00
C257   C     0.42152   0.50002   0.17102   0.00000  Uiso   1.00
C258   C     0.35443   0.54011   0.17396   0.00000  Uiso   1.00
C259   C     0.62426   0.49843   0.16760   0.00000  Uiso   1.00
C260   C     0.37713   0.49970   0.17783   0.00000  Uiso   1.00
C261   C     0.49207   0.35696   0.12316   0.00000  Uiso   1.00
C262   C     0.51517   0.64207   0.20804   0.00000  Uiso   1.00
C263   C     0.50804   0.35685   0.21015   0.00000  Uiso   1.00
C264   C     0.48506   0.64221   0.12510   0.00000  Uiso   1.00
C265   C     0.37831   0.41774   0.20020   0.00000  Uiso   1.00
C266   C     0.62717   0.57775   0.13537   0.00000  Uiso   1.00
C267   C     0.62682   0.41519   0.18824   0.00000  Uiso   1.00
C268   C     0.57901   0.49962   0.16600   0.00000  Uiso   1.00
C269   C     0.37179   0.58238   0.19202   0.00000  Uiso   1.00
C270   C     0.49671   0.37611   0.07119   0.00000  Uiso   1.00
C271   C     0.45664   0.39807   0.04730   0.00000  Uiso   1.00
C272   C     0.53775   0.61977   0.25454   0.00000  Uiso   1.00
C273   C     0.57882   0.59719   0.24673   0.00000  Uiso   1.00
C274   C     0.50304   0.37575   0.26227   0.00000  Uiso   1.00
C275   C     0.54264   0.39739   0.28702   0.00000  Uiso   1.00
C276   C     0.46388   0.61998   0.07773   0.00000  Uiso   1.00
C277   C     0.42318   0.59646   0.08361   0.00000  Uiso   1.00
C278   C     0.50011   0.50013   0.07404   0.00000  Uiso   1.00
C279   C     0.49997   0.50013   0.25931   0.00000  Uiso   1.00
C280   C     0.50013   0.50072   0.02205   0.00000  Uiso   1.00
C281   C     0.49995   0.50071   0.31129   0.00000  Uiso   1.00
C282   C     0.35627   0.45880   0.18482   0.00000  Uiso   1.00
C283   C     0.64597   0.53867   0.16057   0.00000  Uiso   1.00
C284   C     0.64665   0.45818   0.18063   0.00000  Uiso   1.00
Cu285  Cu    0.50000   0.54689   0.16667   0.00000  Uiso   1.00
Cu286  Cu    0.50000   0.45311   0.16667   0.00000  Uiso   1.00
H287   H     0.43472   0.37432   0.02856   0.00000  Uiso   1.00
H288   H     0.51727   0.60093   0.27756   0.00000  Uiso   1.00
H289   H     0.56473   0.37354   0.30584   0.00000  Uiso   1.00
H290   H     0.55962   0.41615   0.25950   0.00000  Uiso   1.00
H291   H     0.53446   0.42048   0.31701   0.00000  Uiso   1.00
H292   H     0.47508   0.39684   0.26187   0.00000  Uiso   1.00
H293   H     0.49275   0.34942   0.28781   0.00000  Uiso   1.00
H294   H     0.40042   0.60472   0.05193   0.00000  Uiso   1.00
H295   H     0.42658   0.55944   0.08234   0.00000  Uiso   1.00
H296   H     0.40991   0.60844   0.11770   0.00000  Uiso   1.00
H297   H     0.45391   0.64455   0.04956   0.00000  Uiso   1.00
H298   H     0.43967   0.41628   0.07554   0.00000  Uiso   1.00
H299   H     0.48556   0.60190   0.05524   0.00000  Uiso   1.00
H300   H     0.46414   0.42158   0.01746   0.00000  Uiso   1.00
H301   H     0.52468   0.39675   0.07155   0.00000  Uiso   1.00
H302   H     0.50717   0.35010   0.04524   0.00000  Uiso   1.00
H303   H     0.57657   0.56020   0.25060   0.00000  Uiso   1.00
H304   H     0.58981   0.60767   0.21065   0.00000  Uiso   1.00
H305   H     0.60279   0.60756   0.27605   0.00000  Uiso   1.00
H306   H     0.54738   0.64417   0.28284   0.00000  Uiso   1.00
N307   N     0.50000   0.61736   0.16667   0.00000  Uiso   1.00
N308   N     0.50000   0.38264   0.16667   0.00000  Uiso   1.00
N309   N     0.39573   0.38507   0.21255   0.00000  Uiso   1.00
N310   N     0.61238   0.60886   0.11499   0.00000  Uiso   1.00
N311   N     0.61149   0.38074   0.19410   0.00000  Uiso   1.00
N312   N     0.38542   0.61599   0.20718   0.00000  Uiso   1.00
O313   O     0.43988   0.53958   0.16666   0.00000  Uiso   1.00
O314   O     0.56012   0.46042   0.16667   0.00000  Uiso   1.00
O315   O     0.56012   0.53958   0.16667   0.00000  Uiso   1.00
O316   O     0.43988   0.46042   0.16666   0.00000  Uiso   1.00
O317   O     0.50000   0.53959   0.09613   0.00000  Uiso   1.00
O318   O     0.50000   0.46041   0.23720   0.00000  Uiso   1.00
O319   O     0.50000   0.53959   0.23720   0.00000  Uiso   1.00
O320   O     0.50000   0.46041   0.09613   0.00000  Uiso   1.00
C321   C     0.75486   0.50002   0.17102   0.00000  Uiso   1.00
C322   C     0.68776   0.54011   0.17396   0.00000  Uiso   1.00
C323   C     0.95760   0.49843   0.16760   0.00000  Uiso   1.00
C324   C     0.71046   0.49970   0.17783   0.00000  Uiso   1.00
C325   C     0.82540   0.35696   0.12316   0.00000  Uiso   1.00
C326   C     0.84851   0.64207   0.20804   0.00000  Uiso   1.00
C327   C     0.84137   0.35685   0.21015   0.00000  Uiso   1.00
C328   C     0.81839   0.64221   0.12510   0.00000  Uiso   1.00
C329   C     0.71164   0.41774   0.20020   0.00000  Uiso   1.00
C330   C     0.96051   0.57775   0.13537   0.00000  Uiso   1.00
C331   C     0.96015   0.41519   0.18824   0.00000  Uiso   1.00
C332   C     0.91234   0.49962   0.16600   0.00000  Uiso   1.00
C333   C     0.70512   0.58238   0.19202   0.00000  Uiso   1.00
C334   C     0.83004   0.37611   0.07119   0.00000  Uiso   1.00
C335   C     0.78997   0.39807   0.04730   0.00000  Uiso   1.00
C336   C     0.87108   0.61977   0.25454   0.00000  Uiso   1.00
C337   C     0.91215   0.59719   0.24673   0.00000  Uiso   1.00
C338   C     0.83638   0.37575   0.26227   0.00000  Uiso   1.00
C339   C     0.87598   0.39739   0.28702   0.00000  Uiso   1.00
C340   C     0.79722   0.61998   0.07773   0.00000  Uiso   1.00
C341   C     0.75651   0.59646   0.08361   0.00000  Uiso   1.00
C342   C     0.83344   0.50013   0.07404   0.00000  Uiso   1.00
C343   C     0.83331   0.50013   0.25931   0.00000  Uiso   1.00
C344   C     0.83346   0.50072   0.02205   0.00000  Uiso   1.00
C345   C     0.83328   0.50071   0.31129   0.00000  Uiso   1.00
C346   C     0.68960   0.45880   0.18482   0.00000  Uiso   1.00
C347   C     0.97931   0.53867   0.16057   0.00000  Uiso   1.00
C348   C     0.97998   0.45818   0.18063   0.00000  Uiso   1.00
Cu349  Cu    0.83333   0.54689   0.16667   0.00000  Uiso   1.00
Cu350  Cu    0.83333   0.45311   0.16667   0.00000  Uiso   1.00
H351   H     0.76805   0.37432   0.02856   0.00000  Uiso   1.00
H352   H     0.85060   0.60093   0.27756   0.00000  Uiso   1.00
H353   H     0.89807   0.37354   0.30584   0.00000  Uiso   1.00
H354   H     0.89295   0.41615   0.25950   0.00000  Uiso   1.00
H355   H     0.86780   0.42048   0.31701   0.00000  Uiso   1.00
H356   H     0.80841   0.39684   0.26187   0.00000  Uiso   1.00
H357   H     0.82608   0.34942   0.28781   0.00000  Uiso   1.00
H358   H     0.73375   0.60472   0.05193   0.00000  Uiso   1.00
H359   H     0.75991   0.55944   0.08234   0.00000  Uiso   1.00
H360   H     0.74324   0.60844   0.11770   0.00000  Uiso   1.00
H361   H     0.78724   0.64455   0.04956   0.00000  Uiso   1.00
H362   H     0.77301   0.41628   0.07554   0.00000  Uiso   1.00
H363   H     0.81889   0.60190   0.05524   0.00000  Uiso   1.00
H364   H     0.79748   0.42158   0.01746   0.00000  Uiso   1.00
H365   H     0.85802   0.39675   0.07155   0.00000  Uiso   1.00
H366   H     0.84050   0.35010   0.04524   0.00000  Uiso   1.00
H367   H     0.90991   0.56020   0.25060   0.00000  Uiso   1.00
H368   H     0.92314   0.60767   0.21065   0.00000  Uiso   1.00
H369   H     0.93612   0.60756   0.27605   0.00000  Uiso   1.00
H370   H     0.88072   0.64417   0.28284   0.00000  Uiso   1.00
N371   N     0.83333   0.61736   0.16667   0.00000  Uiso   1.00
N372   N     0.83333   0.38264   0.16667   0.00000  Uiso   1.00
N373   N     0.72907   0.38507   0.21255   0.00000  Uiso   1.00
N374   N     0.94571   0.60886   0.11499   0.00000  Uiso   1.00
N375   N     0.94482   0.38074   0.19410   0.00000  Uiso   1.00
N376   N     0.71875   0.61599   0.20718   0.00000  Uiso   1.00
O377   O     0.77321   0.53958   0.16666   0.00000  Uiso   1.00
O378   O     0.89345   0.46042   0.16667   0.00000  Uiso   1.00
O379   O     0.89345   0.53958   0.16667   0.00000  Uiso   1.00
O380   O     0.77321   0.46042   0.16666   0.00000  Uiso   1.00
O381   O     0.83333   0.53959   0.09613   0.00000  Uiso   1.00
O382   O     0.83333   0.46041   0.23720   0.00000  Uiso   1.00
O383   O     0.83333   0.53959   0.23720   0.00000  Uiso   1.00
O384   O     0.83333   0.46041   0.09613   0.00000  Uiso   1.00
C385   C     0.08819   0.83336   0.17102   0.00000  Uiso   1.00
C386   C     0.02110   0.87344   0.17396   0.00000  Uiso   1.00
C387   C     0.29093   0.83176   0.16760   0.00000  Uiso   1.00
C388   C     0.04379   0.83304   0.17783   0.00000  Uiso   1.00
C389   C     0.15874   0.69030   0.12316   0.00000  Uiso   1.00
C390   C     0.18184   0.97540   0.20804   0.00000  Uiso   1.00
C391   C     0.17471   0.69019   0.21015   0.00000  Uiso   1.00
C392   C     0.15173   0.97554   0.12510   0.00000  Uiso   1.00
C393   C     0.04497   0.75107   0.20020   0.00000  Uiso   1.00
C394   C     0.29384   0.91108   0.13537   0.00000  Uiso   1.00
C395   C     0.29348   0.74853   0.18824   0.00000  Uiso   1.00
C396   C     0.24568   0.83296   0.16600   0.00000  Uiso   1.00
C397   C     0.03846   0.91571   0.19202   0.00000  Uiso   1.00
C398   C     0.16337   0.70944   0.07119   0.00000  Uiso   1.00
C399   C     0.12331   0.73140   0.04730   0.00000  Uiso   1.00
C400   C     0.20441   0.95311   0.25454   0.00000  Uiso   1.00
C401   C     0.24549   0.93052   0.24673   0.00000  Uiso   1.00
C402   C     0.16971   0.70909   0.26227   0.00000  Uiso   1.00
C403   C     0.20931   0.73073   0.28702   0.00000  Uiso   1.00
C404   C     0.13055   0.95332   0.07773   0.00000  Uiso   1.00
C405   C     0.08984   0.92979   0.08361   0.00000  Uiso   1.00
C406   C     0.16677   0.83347   0.07404   0.00000  Uiso   1.00
C407   C     0.16664   0.83346   0.25931   0.00000  Uiso   1.00
C408   C     0.16680   0.83405   0.02205   0.00000  Uiso   1.00
C409   C     0.16661   0.83405   0.31129   0.00000  Uiso   1.00
C410   C     0.02294   0.79213   0.18482   0.00000  Uiso   1.00
C411   C     0.31264   0.87200   0.16057   0.00000  Uiso   1.00
C412   C     0.31331   0.79151   0.18063   0.00000  Uiso   1.00
Cu413  Cu    0.16667   0.88022   0.16667   0.00000  Uiso   1.00
Cu414  Cu    0.16667   0.78645   0.16667   0.00000  Uiso   1.00
H415   H     0.10138   0.70765   0.02856   0.00000  Uiso   1.00
H416   H     0.18393   0.93426   0.27756   0.00000  Uiso   1.00
H417   H     0.23140   0.70687   0.30584   0.00000  Uiso   1.00
H418   H     0.22629   0.74948   0.25950   0.00000  Uiso   1.00
H419   H     0.20113   0.75382   0.31701   0.00000  Uiso   1.00
H420   H     0.14175   0.73017   0.26187   0.00000  Uiso   1.00
H421   H     0.15941   0.68275   0.28781   0.00000  Uiso   1.00
H422   H     0.06709   0.93805   0.05193   0.00000  Uiso   1.00
H423   H     0.09325   0.89278   0.08234   0.00000  Uiso   1.00
H424   H     0.07657   0.94177   0.11770   0.00000  Uiso   1.00
H425   H     0.12058   0.97788   0.04956   0.00000  Uiso   1.00
H426   H     0.10634   0.74961   0.07554   0.00000  Uiso   1.00
H427   H     0.15223   0.93524   0.05524   0.00000  Uiso   1.00
H428   H     0.13081   0.75491   0.01746   0.00000  Uiso   1.00
H429   H     0.19135   0.73008   0.07155   0.00000  Uiso   1.00
H430   H     0.17384   0.68343   0.04524   0.00000  Uiso   1.00
H431   H     0.24324   0.89353   0.25060   0.00000  Uiso   1.00
H432   H     0.25648   0.94101   0.21065   0.00000  Uiso   1.00
H433   H     0.26945   0.94090   0.27605   0.00000  Uiso   1.00
H434   H     0.21405   0.97750   0.28284   0.00000  Uiso   1.00
N435   N     0.16667   0.95069   0.16667   0.00000  Uiso   1.00
N436   N     0.16667   0.71598   0.16667   0.00000  Uiso   1.00
N437   N     0.06240   0.71840   0.21255   0.00000  Uiso   1.00
N438   N     0.27904   0.94220   0.11499   0.00000  Uiso   1.00
N439   N     0.27815   0.71407   0.19410   0.00000  Uiso   1.00
N440   N     0.05208   0.94933   0.20718   0.00000  Uiso   1.00
O441   O     0.10655   0.87291   0.16666   0.00000  Uiso   1.00
O442   O     0.22679   0.79375   0.16667   0.00000  Uiso   1.00
O443   O     0.22679   0.87291   0.16667   0.00000  Uiso   1.00
O444   O     0.10655   0.79375   0.16666   0.00000  Uiso   1.00
O445   O     0.16667   0.87292   0.09613   0.00000  Uiso   1.00
O446   O     0.16667   0.79375   0.23720   0.00000  Uiso   1.00
O447   O     0.16667   0.87292   0.23720   0.00000  Uiso   1.00
O448   O     0.16667   0.79375   0.09613   0.00000  Uiso   1.00
C449   C     0.42152   0.83336   0.17102   0.00000  Uiso   1.00
C450   C     0.35443   0.87344   0.17396   0.00000  Uiso   1.00
C451   C     0.62426   0.83176   0.16760   0.00000  Uiso   1.00
C452   C     0.37713   0.83304   0.17783   0.00000  Uiso   1.00
C453   C     0.49207   0.69030   0.12316   0.00000  Uiso   1.00
C454   C     0.51517   0.97540   0.20804   0.00000  Uiso   1.00
C455   C     0.50804   0.69019   0.21015   0.00000  Uiso   1.00
C456   C     0.48506   0.97554   0.12510   0.00000  Uiso   1.00
C457   C     0.37831   0.75107   0.20020   0.00000  Uiso   1.00
C458   C     0.62717   0.91108   0.13537   0.00000  Uiso   1.00
C459   C     0.62682   0.74853   0.18824   0.00000  Uiso   1.00
C460   C     0.57901   0.83296   0.16600   0.00000  Uiso   1.00
C461   C     0.37179   0.91571   0.19202   0.00000  Uiso   1.00
C462   C     0.49671   0.70944   0.07119   0.00000  Uiso   1.00
C463   C     0.45664   0.73140   0.04730   0.00000  Uiso   1.00
C464   C     0.53775   0.95311   0.25454   0.00000  Uiso   1.00
C465   C     0.57882   0.93052   0.24673   0.00000  Uiso   1.00
C466   C     0.50304   0.70909   0.26227   0.00000  Uiso   1.00
C467   C     0.54264   0.73073   0.28702   0.00000  Uiso   1.00
C468   C     0.46388   0.95332   0.07773   0.00000  Uiso   1.00
C469   C     0.42318   0.92979   0.08361   0.00000  Uiso   1.00
C470   C     0.50011   0.83347   0.07404   0.00000  Uiso   1.00
C471   C     0.49997   0.83346   0.25931   0.00000  Uiso   1.00
C472   C     0.50013   0.83405   0.02205   0.00000  Uiso   1.00
C473   C     0.49995   0.83405   0.31129   0.00000  Uiso   1.00
C474   C     0.35627   0.79213   0.18482   0.00000  Uiso   1.00
C475   C     0.64597   0.87200   0.16057   0.00000  Uiso   1.00
C476   C     0.64665   0.79151   0.18063   0.00000  Uiso   1.00
Cu477  Cu    0.50000   0.88022   0.16667   0.00000  Uiso   1.00
Cu478  Cu    0.50000   0.78645   0.16667   0.00000  Uiso   1.00
H479   H     0.43472   0.70765   0.02856   0.00000  Uiso   1.00
H480   H     0.51727   0.93426   0.27756   0.00000  Uiso   1.00
H481   H     0.56473   0.70687   0.30584   0.00000  Uiso   1.00
H482   H     0.55962   0.74948   0.25950   0.00000  Uiso   1.00
H483   H     0.53446   0.75382   0.31701   0.00000  Uiso   1.00
H484   H     0.47508   0.73017   0.26187   0.00000  Uiso   1.00
H485   H     0.49275   0.68275   0.28781   0.00000  Uiso   1.00
H486   H     0.40042   0.93805   0.05193   0.00000  Uiso   1.00
H487   H     0.42658   0.89278   0.08234   0.00000  Uiso   1.00
H488   H     0.40991   0.94177   0.11770   0.00000  Uiso   1.00
H489   H     0.45391   0.97788   0.04956   0.00000  Uiso   1.00
H490   H     0.43967   0.74961   0.07554   0.00000  Uiso   1.00
H491   H     0.48556   0.93524   0.05524   0.00000  Uiso   1.00
H492   H     0.46414   0.75491   0.01746   0.00000  Uiso   1.00
H493   H     0.52468   0.73008   0.07155   0.00000  Uiso   1.00
H494   H     0.50717   0.68343   0.04524   0.00000  Uiso   1.00
H495   H     0.57657   0.89353   0.25060   0.00000  Uiso   1.00
H496   H     0.58981   0.94101   0.21065   0.00000  Uiso   1.00
H497   H     0.60279   0.94090   0.27605   0.00000  Uiso   1.00
H498   H     0.54738   0.97750   0.28284   0.00000  Uiso   1.00
N499   N     0.50000   0.95069   0.16667   0.00000  Uiso   1.00
N500   N     0.50000   0.71598   0.16667   0.00000  Uiso   1.00
N501   N     0.39573   0.71840   0.21255   0.00000  Uiso   1.00
N502   N     0.61238   0.94220   0.11499   0.00000  Uiso   1.00
N503   N     0.61149   0.71407   0.19410   0.00000  Uiso   1.00
N504   N     0.38542   0.94933   0.20718   0.00000  Uiso   1.00
O505   O     0.43988   0.87291   0.16666   0.00000  Uiso   1.00
O506   O     0.56012   0.79375   0.16667   0.00000  Uiso   1.00
O507   O     0.56012   0.87291   0.16667   0.00000  Uiso   1.00
O508   O     0.43988   0.79375   0.16666   0.00000  Uiso   1.00
O509   O     0.50000   0.87292   0.09613   0.00000  Uiso   1.00
O510   O     0.50000   0.79375   0.23720   0.00000  Uiso   1.00
O511   O     0.50000   0.87292   0.23720   0.00000  Uiso   1.00
O512   O     0.50000   0.79375   0.09613   0.00000  Uiso   1.00
C513   C     0.75486   0.83336   0.17102   0.00000  Uiso   1.00
C514   C     0.68776   0.87344   0.17396   0.00000  Uiso   1.00
C515   C     0.95760   0.83176   0.16760   0.00000  Uiso   1.00
C516   C     0.71046   0.83304   0.17783   0.00000  Uiso   1.00
C517   C     0.82540   0.69030   0.12316   0.00000  Uiso   1.00
C518   C     0.84851   0.97540   0.20804   0.00000  Uiso   1.00
C519   C     0.84137   0.69019   0.21015   0.00000  Uiso   1.00
C520   C     0.81839   0.97554   0.12510   0.00000  Uiso   1.00
C521   C     0.71164   0.75107   0.20020   0.00000  Uiso   1.00
C522   C     0.96051   0.91108   0.13537   0.00000  Uiso   1.00
C523   C     0.96015   0.74853   0.18824   0.00000  Uiso   1.00
C524   C     0.91234   0.83296   0.16600   0.00000  Uiso   1.00
C525   C     0.70512   0.91571   0.19202   0.00000  Uiso   1.00
C526   C     0.83004   0.70944   0.07119   0.00000  Uiso   1.00
C527   C     0.78997   0.73140   0.04730   0.00000  Uiso   1.00
C528   C     0.87108   0.95311   0.25454   0.00000  Uiso   1.00
C529   C     0.91215   0.93052   0.24673   0.00000  Uiso   1.00
C530   C     0.83638   0.70909   0.26227   0.00000  Uiso   1.00
C531   C     0.87598   0.73073   0.28702   0.00000  Uiso   1.00
C532   C     0.79722   0.95332   0.07773   0.00000  Uiso   1.00
C533   C     0.75651   0.92979   0.08361   0.00000  Uiso   1.00
C534   C     0.83344   0.83347   0.07404   0.00000  Uiso   1.00
C535   C     0.83331   0.83346   0.25931   0.00000  Uiso   1.00
C536   C     0.83346   0.83405   0.02205   0.00000  Uiso   1.00
C537   C     0.83328   0.83405   0.31129   0.00000  Uiso   1.00
C538   C     0.68960   0.79213   0.18482   0.00000  Uiso   1.00
C539   C     0.97931   0.87200   0.16057   0.00000  Uiso   1.00
C540   C     0.97998   0.79151   0.18063   0.00000  Uiso   1.00
Cu541  Cu    0.83333   0.88022   0.16667   0.00000  Uiso   1.00
Cu542  Cu    0.83333   0.78645   0.16667   0.00000  Uiso   1.00
H543   H     0.76805   0.70765   0.02856   0.00000  Uiso   1.00
H544   H     0.85060   0.93426   0.27756   0.00000  Uiso   1.00
H545   H     0.89807   0.70687   0.30584   0.00000  Uiso   1.00
H546   H     0.89295   0.74948   0.25950   0.00000  Uiso   1.00
H547   H     0.86780   0.75382   0.31701   0.00000  Uiso   1.00
H548   H     0.80841   0.73017   0.26187   0.00000  Uiso   1.00
H549   H     0.82608   0.68275   0.28781   0.00000  Uiso   1.00
H550   H     0.73375   0.93805   0.05193   0.00000  Uiso   1.00
H551   H     0.75991   0.89278   0.08234   0.00000  Uiso   1.00
H552   H     0.74324   0.94177   0.11770   0.00000  Uiso   1.00
H553   H     0.78724   0.97788   0.04956   0.00000  Uiso   1.00
H554   H     0.77301   0.74961   0.07554   0.00000  Uiso   1.00
H555   H     0.81889   0.93524   0.05524   0.00000  Uiso   1.00
H556   H     0.79748   0.75491   0.01746   0.00000  Uiso   1.00
H557   H     0.85802   0.73008   0.07155   0.00000  Uiso   1.00
H558   H     0.84050   0.68343   0.04524   0.00000  Uiso   1.00
H559   H     0.90991   0.89353   0.25060   0.00000  Uiso   1.00
H560   H     0.92314   0.94101   0.21065   0.00000  Uiso   1.00
H561   H     0.93612   0.94090   0.27605   0.00000  Uiso   1.00
H562   H     0.88072   0.97750   0.28284   0.00000  Uiso   1.00
N563   N     0.83333   0.95069   0.16667   0.00000  Uiso   1.00
N564   N     0.83333   0.71598   0.16667   0.00000  Uiso   1.00
N565   N     0.72907   0.71840   0.21255   0.00000  Uiso   1.00
N566   N     0.94571   0.94220   0.11499   0.00000  Uiso   1.00
N567   N     0.94482   0.71407   0.19410   0.00000  Uiso   1.00
N568   N     0.71875   0.94933   0.20718   0.00000  Uiso   1.00
O569   O     0.77321   0.87291   0.16666   0.00000  Uiso   1.00
O570   O     0.89345   0.79375   0.16667   0.00000  Uiso   1.00
O571   O     0.89345   0.87291   0.16667   0.00000  Uiso   1.00
O572   O     0.77321   0.79375   0.16666   0.00000  Uiso   1.00
O573   O     0.83333   0.87292   0.09613   0.00000  Uiso   1.00
O574   O     0.83333   0.79375   0.23720   0.00000  Uiso   1.00
O575   O     0.83333   0.87292   0.23720   0.00000  Uiso   1.00
O576   O     0.83333   0.79375   0.09613   0.00000  Uiso   1.00
C577   C     0.08819   0.16669   0.50436   0.00000  Uiso   1.00
C578   C     0.02110   0.20677   0.50729   0.00000  Uiso   1.00
C579   C     0.29093   0.16509   0.50093   0.00000  Uiso   1.00
C580   C     0.04379   0.16637   0.51116   0.00000  Uiso   1.00
C581   C     0.15874   0.02363   0.45649   0.00000  Uiso   1.00
C582   C     0.18184   0.30873   0.54137   0.00000  Uiso   1.00
C583   C     0.17471   0.02352   0.54348   0.00000  Uiso   1.00
C584   C     0.15173   0.30888   0.45844   0.00000  Uiso   1.00
C585   C     0.04497   0.08441   0.53354   0.00000  Uiso   1.00
C586   C     0.29384   0.24441   0.46870   0.00000  Uiso   1.00
C587   C     0.29348   0.08186   0.52157   0.00000  Uiso   1.00
C588   C     0.24568   0.16629   0.49933   0.00000  Uiso   1.00
C589   C     0.03846   0.24904   0.52535   0.00000  Uiso   1.00
C590   C     0.16337   0.04277   0.40452   0.00000  Uiso   1.00
C591   C     0.12331   0.06473   0.38063   0.00000  Uiso   1.00
C592   C     0.20441   0.28644   0.58787   0.00000  Uiso   1.00
C593   C     0.24549   0.26386   0.58007   0.00000  Uiso   1.00
C594   C     0.16971   0.04242   0.59561   0.00000  Uiso   1.00
C595   C     0.20931   0.06406   0.62036   0.00000  Uiso   1.00
C596   C     0.13055   0.28665   0.41107   0.00000  Uiso   1.00
C597   C     0.08984   0.26312   0.41695   0.00000  Uiso   1.00
C598   C     0.16677   0.16680   0.40737   0.00000  Uiso   1.00
C599   C     0.16664   0.16680   0.59264   0.00000  Uiso   1.00
C600   C     0.16680   0.16739   0.35538   0.00000  Uiso   1.00
C601   C     0.16661   0.16738   0.64463   0.00000  Uiso   1.00
C602   C     0.02294   0.12547   0.51815   0.00000  Uiso   1.00
C603   C     0.31264   0.20534   0.49390   0.00000  Uiso   1.00
C604   C     0.31331   0.12484   0.51397   0.00000  Uiso   1.00
Cu605  Cu    0.16667   0.21355   0.50000   0.00000  Uiso   1.00
Cu606  Cu    0.16667   0.11978   0.50000   0.00000  Uiso   1.00
H607   H     0.10138   0.04098   0.36190   0.00000  Uiso   1.00
H608   H     0.18393   0.26760   0.61089   0.00000  Uiso   1.00
H609   H     0.23140   0.04021   0.63918   0.00000  Uiso   1.00
H610   H     0.22629   0.08281   0.59283   0.00000  Uiso   1.00
H611   H     0.20113   0.08715   0.65034   0.00000  Uiso   1.00
H612   H     0.14175   0.06351   0.59521   0.00000  Uiso   1.00
H613   H     0.15941   0.01608   0.62115   0.00000  Uiso   1.00
H614   H     0.06709   0.27138   0.38526   0.00000  Uiso   1.00
H615   H     0.09325   0.22611   0.41567   0.00000  Uiso   1.00
H616   H     0.07657   0.27511   0.45103   0.00000  Uiso   1.00
H617   H     0.12058   0.31121   0.38289   0.00000  Uiso   1.00
H618   H     0.10634   0.08294   0.40887   0.00000  Uiso   1.00
H619   H     0.15223   0.26857   0.38858   0.00000  Uiso   1.00
H620   H     0.13081   0.08824   0.35080   0.00000  Uiso   1.00
H621   H     0.19135   0.06342   0.40489   0.00000  Uiso   1.00
H622   H     0.17384   0.01676   0.37857   0.00000  Uiso   1.00
H623   H     0.24324   0.22687   0.58394   0.00000  Uiso   1.00
H624   H     0.25648   0.27434   0.54399   0.00000  Uiso   1.00
H625   H     0.26945   0.27423   0.60938   0.00000  Uiso   1.00
H626   H     0.21405   0.31083   0.61617   0.00000  Uiso   1.00
N627   N     0.16667   0.28402   0.50000   0.00000  Uiso   1.00
N628   N     0.16667   0.04931   0.50000   0.00000  Uiso   1.00
N629   N     0.06240   0.05174   0.54588   0.00000  Uiso   1.00
N630   N     0.27904   0.27553   0.44832   0.00000  Uiso   1.00
N631   N     0.27815   0.04740   0.52743   0.00000  Uiso   1.00
N632   N     0.05208   0.28266   0.54051   0.00000  Uiso   1.00
O633   O     0.10655   0.20625   0.50000   0.00000  Uiso   1.00
O634   O     0.22679   0.12709   0.50000   0.00000  Uiso   1.00
O635   O     0.22679   0.20625   0.50000   0.00000  Uiso   1.00
O636   O     0.10655   0.12709   0.50000   0.00000  Uiso   1.00
O637   O     0.16667   0.20625   0.42946   0.00000  Uiso   1.00
O638   O     0.16667   0.12708   0.57054   0.00000  Uiso   1.00
O639   O     0.16667   0.20625   0.57054   0.00000  Uiso   1.00
O640   O     0.16667   0.12708   0.42946   0.00000  Uiso   1.00
C641   C     0.42152   0.16669   0.50436   0.00000  Uiso   1.00
C642   C     0.35443   0.20677   0.50729   0.00000  Uiso   1.00
C643   C     0.62426   0.16509   0.50093   0.00000  Uiso   1.00
C644   C     0.37713   0.16637   0.51116   0.00000  Uiso   1.00
C645   C     0.49207   0.02363   0.45649   0.00000  Uiso   1.00
C646   C     0.51517   0.30873   0.54137   0.00000  Uiso   1.00
C647   C     0.50804   0.02352   0.54348   0.00000  Uiso   1.00
C648   C     0.48506   0.30888   0.45844   0.00000  Uiso   1.00
C649   C     0.37831   0.08441   0.53354   0.00000  Uiso   1.00
C650   C     0.62717   0.24441   0.46870   0.00000  Uiso   1.00
C651   C     0.62682   0.08186   0.52157   0.00000  Uiso   1.00
C652   C     0.57901   0.16629   0.49933   0.00000  Uiso   1.00
C653   C     0.37179   0.24904   0.52535   0.00000  Uiso   1.00
C654   C     0.49671   0.04277   0.40452   0.00000  Uiso   1.00
C655   C     0.45664   0.06473   0.38063   0.00000  Uiso   1.00
C656   C     0.53775   0.28644   0.58787   0.00000  Uiso   1.00
C657   C     0.57882   0.26386   0.58007   0.00000  Uiso   1.00
C658   C     0.50304   0.04242   0.59561   0.00000  Uiso   1.00
C659   C     0.54264   0.06406   0.62036   0.00000  Uiso   1.00
C660   C     0.46388   0.28665   0.41107   0.00000  Uiso   1.00
C661   C     0.42318   0.26312   0.41695   0.00000  Uiso   1.00
C662   C     0.50011   0.16680   0.40737   0.00000  Uiso   1.00
C663   C     0.49997   0.16680   0.59264   0.00000  Uiso   1.00
C664   C     0.50013   0.16739   0.35538   0.00000  Uiso   1.00
C665   C     0.49995   0.16738   0.64463   0.00000  Uiso   1.00
C666   C     0.35627   0.12547   0.51815   0.00000  Uiso   1.00
C667   C     0.64597   0.20534   0.49390   0.00000  Uiso   1.00
C668   C     0.64665   0.12484   0.51397   0.00000  Uiso   1.00
Cu669  Cu    0.50000   0.21355   0.50000   0.00000  Uiso   1.00
Cu670  Cu    0.50000   0.11978   0.50000   0.00000  Uiso   1.00
H671   H     0.43472   0.04098   0.36190   0.00000  Uiso   1.00
H672   H     0.51727   0.26760   0.61089   0.00000  Uiso   1.00
H673   H     0.56473   0.04021   0.63918   0.00000  Uiso   1.00
H674   H     0.55962   0.08281   0.59283   0.00000  Uiso   1.00
H675   H     0.53446   0.08715   0.65034   0.00000  Uiso   1.00
H676   H     0.47508   0.06351   0.59521   0.00000  Uiso   1.00
H677   H     0.49275   0.01608   0.62115   0.00000  Uiso   1.00
H678   H     0.40042   0.27138   0.38526   0.00000  Uiso   1.00
H679   H     0.42658   0.22611   0.41567   0.00000  Uiso   1.00
H680   H     0.40991   0.27511   0.45103   0.00000  Uiso   1.00
H681   H     0.45391   0.31121   0.38289   0.00000  Uiso   1.00
H682   H     0.43967   0.08294   0.40887   0.00000  Uiso   1.00
H683   H     0.48556   0.26857   0.38858   0.00000  Uiso   1.00
H684   H     0.46414   0.08824   0.35080   0.00000  Uiso   1.00
H685   H     0.52468   0.06342   0.40489   0.00000  Uiso   1.00
H686   H     0.50717   0.01676   0.37857   0.00000  Uiso   1.00
H687   H     0.57657   0.22687   0.58394   0.00000  Uiso   1.00
H688   H     0.58981   0.27434   0.54399   0.00000  Uiso   1.00
H689   H     0.60279   0.27423   0.60938   0.00000  Uiso   1.00
H690   H     0.54738   0.31083   0.61617   0.00000  Uiso   1.00
N691   N     0.50000   0.28402   0.50000   0.00000  Uiso   1.00
N692   N     0.50000   0.04931   0.50000   0.00000  Uiso   1.00
N693   N     0.39573   0.05174   0.54588   0.00000  Uiso   1.00
N694   N     0.61238   0.27553   0.44832   0.00000  Uiso   1.00
N695   N     0.61149   0.04740   0.52743   0.00000  Uiso   1.00
N696   N     0.38542   0.28266   0.54051   0.00000  Uiso   1.00
O697   O     0.43988   0.20625   0.50000   0.00000  Uiso   1.00
O698   O     0.56012   0.12709   0.50000   0.00000  Uiso   1.00
O699   O     0.56012   0.20625   0.50000   0.00000  Uiso   1.00
O700   O     0.43988   0.12709   0.50000   0.00000  Uiso   1.00
O701   O     0.50000   0.20625   0.42946   0.00000  Uiso   1.00
O702   O     0.50000   0.12708   0.57054   0.00000  Uiso   1.00
O703   O     0.50000   0.20625   0.57054   0.00000  Uiso   1.00
O704   O     0.50000   0.12708   0.42946   0.00000  Uiso   1.00
C705   C     0.75486   0.16669   0.50436   0.00000  Uiso   1.00
C706   C     0.68776   0.20677   0.50729   0.00000  Uiso   1.00
C707   C     0.95760   0.16509   0.50093   0.00000  Uiso   1.00
C708   C     0.71046   0.16637   0.51116   0.00000  Uiso   1.00
C709   C     0.82540   0.02363   0.45649   0.00000  Uiso   1.00
C710   C     0.84851   0.30873   0.54137   0.00000  Uiso   1.00
C711   C     0.84137   0.02352   0.54348   0.00000  Uiso   1.00
C712   C     0.81839   0.30888   0.45844   0.00000  Uiso   1.00
C713   C     0.71164   0.08441   0.53354   0.00000  Uiso   1.00
C714   C     0.96051   0.24441   0.46870   0.00000  Uiso   1.00
C715   C     0.96015   0.08186   0.52157   0.00000  Uiso   1.00
C716   C     0.91234   0.16629   0.49933   0.00000  Uiso   1.00
C717   C     0.70512   0.24904   0.52535   0.00000  Uiso   1.00
C718   C     0.83004   0.04277   0.40452   0.00000  Uiso   1.00
C719   C     0.78997   0.06473   0.38063   0.00000  Uiso   1.00
C720   C     0.87108   0.28644   0.58787   0.00000  Uiso   1.00
C721   C     0.91215   0.26386   0.58007   0.00000  Uiso   1.00
C722   C     0.83638   0.04242   0.59561   0.00000  Uiso   1.00
C723   C     0.87598   0.06406   0.62036   0.00000  Uiso   1.00
C724   C     0.79722   0.28665   0.41107   0.00000  Uiso   1.00
C725   C     0.75651   0.26312   0.41695   0.00000  Uiso   1.00
C726   C     0.83344   0.16680   0.40737   0.00000  Uiso   1.00
C727   C     0.83331   0.16680   0.59264   0.00000  Uiso   1.00
C728   C     0.83346   0.16739   0.35538   0.00000  Uiso   1.00
C729   C     0.83328   0.16738   0.64463   0.00000  Uiso   1.00
C730   C     0.68960   0.12547   0.51815   0.00000  Uiso   1.00
C731   C     0.97931   0.20534   0.49390   0.00000  Uiso   1.00
C732   C     0.97998   0.12484   0.51397   0.00000  Uiso   1.00
Cu733  Cu    0.83333   0.21355   0.50000   0.00000  Uiso   1.00
Cu734  Cu    0.83333   0.11978   0.50000   0.00000  Uiso   1.00
H735   H     0.76805   0.04098   0.36190   0.00000  Uiso   1.00
H736   H     0.85060   0.26760   0.61089   0.00000  Uiso   1.00
H737   H     0.89807   0.04021   0.63918   0.00000  Uiso   1.00
H738   H     0.89295   0.08281   0.59283   0.00000  Uiso   1.00
H739   H     0.86780   0.08715   0.65034   0.00000  Uiso   1.00
H740   H     0.80841   0.06351   0.59521   0.00000  Uiso   1.00
H741   H     0.82608   0.01608   0.62115   0.00000  Uiso   1.00
H742   H     0.73375   0.27138   0.38526   0.00000  Uiso   1.00
H743   H     0.75991   0.22611   0.41567   0.00000  Uiso   1.00
H744   H     0.74324   0.27511   0.45103   0.00000  Uiso   1.00
H745   H     0.78724   0.31121   0.38289   0.00000  Uiso   1.00
H746   H     0.77301   0.08294   0.40887   0.00000  Uiso   1.00
H747   H     0.81889   0.26857   0.38858   0.00000  Uiso   1.00
H748   H     0.79748   0.08824   0.35080   0.00000  Uiso   1.00
H749   H     0.85802   0.06342   0.40489   0.00000  Uiso   1.00
H750   H     0.84050   0.01676   0.37857   0.00000  Uiso   1.00
H751   H     0.90991   0.22687   0.58394   0.00000  Uiso   1.00
H752   H     0.92314   0.27434   0.54399   0.00000  Uiso   1.00
H753   H     0.93612   0.27423   0.60938   0.00000  Uiso   1.00
H754   H     0.88072   0.31083   0.61617   0.00000  Uiso   1.00
N755   N     0.83333   0.28402   0.50000   0.00000  Uiso   1.00
N756   N     0.83333   0.04931   0.50000   0.00000  Uiso   1.00
N757   N     0.72907   0.05174   0.54588   0.00000  Uiso   1.00
N758   N     0.94571   0.27553   0.44832   0.00000  Uiso   1.00
N759   N     0.94482   0.04740   0.52743   0.00000  Uiso   1.00
N760   N     0.71875   0.28266   0.54051   0.00000  Uiso   1.00
O761   O     0.77321   0.20625   0.50000   0.00000  Uiso   1.00
O762   O     0.89345   0.12709   0.50000   0.00000  Uiso   1.00
O763   O     0.89345   0.20625   0.50000   0.00000  Uiso   1.00
O764   O     0.77321   0.12709   0.50000   0.00000  Uiso   1.00
O765   O     0.83333   0.20625   0.42946   0.00000  Uiso   1.00
O766   O     0.83333   0.12708   0.57054   0.00000  Uiso   1.00
O767   O     0.83333   0.20625   0.57054   0.00000  Uiso   1.00
O768   O     0.83333   0.12708   0.42946   0.00000  Uiso   1.00
C769   C     0.08819   0.50002   0.50436   0.00000  Uiso   1.00
C770   C     0.02110   0.54011   0.50729   0.00000  Uiso   1.00
C771   C     0.29093   0.49843   0.50093   0.00000  Uiso   1.00
C772   C     0.04379   0.49970   0.51116   0.00000  Uiso   1.00
C773   C     0.15874   0.35696   0.45649   0.00000  Uiso   1.00
C774   C     0.18184   0.64207   0.54137   0.00000  Uiso   1.00
C775   C     0.17471   0.35685   0.54348   0.00000  Uiso   1.00
C776   C     0.15173   0.64221   0.45844   0.00000  Uiso   1.00
C777   C     0.04497   0.41774   0.53354   0.00000  Uiso   1.00
C778   C     0.29384   0.57775   0.46870   0.00000  Uiso   1.00
C779   C     0.29348   0.41519   0.52157   0.00000  Uiso   1.00
C780   C     0.24568   0.49962   0.49933   0.00000  Uiso   1.00
C781   C     0.03846   0.58238   0.52535   0.00000  Uiso   1.00
C782   C     0.16337   0.37611   0.40452   0.00000  Uiso   1.00
C783   C     0.12331   0.39807   0.38063   0.00000  Uiso   1.00
C784   C     0.20441   0.61977   0.58787   0.00000  Uiso   1.00
C785   C     0.24549   0.59719   0.58007   0.00000  Uiso   1.00
C786   C     0.16971   0.37575   0.59561   0.00000  Uiso   1.00
C787   C     0.20931   0.39739   0.62036   0.00000  Uiso   1.00
C788   C     0.13055   0.61998   0.41107   0.00000  Uiso   1.00
C789   C     0.08984   0.59646   0.41695   0.00000  Uiso   1.00
C790   C     0.16677   0.50013   0.40737   0.00000  Uiso   1.00
C791   C     0.16664   0.50013   0.59264   0.00000  Uiso   1.00
C792   C     0.16680   0.50072   0.35538   0.00000  Uiso   1.00
C793   C     0.16661   0.50071   0.64463   0.00000  Uiso   1.00
C794   C     0.02294   0.45880   0.51815   0.00000  Uiso   1.00
C795   C     0.31264   0.53867   0.49390   0.00000  Uiso   1.00
C796   C     0.31331   0.45818   0.51397   0.00000  Uiso   1.00
Cu797  Cu    0.16667   0.54689   0.50000   0.00000  Uiso   1.00
Cu798  Cu    0.16667   0.45311   0.50000   0.00000  Uiso   1.00
H799   H     0.10138   0.37432   0.36190   0.00000  Uiso   1.00
H800   H     0.18393   0.60093   0.61089   0.00000  Uiso   1.00
H801   H     0.23140   0.37354   0.63918   0.00000  Uiso   1.00
H802   H     0.22629   0.41615   0.59283   0.00000  Uiso   1.00
H803   H     0.20113   0.42048   0.65034   0.00000  Uiso   1.00
H804   H     0.14175   0.39684   0.59521   0.00000  Uiso   1.00
H805   H     0.15941   0.34942   0.62115   0.00000  Uiso   1.00
H806   H     0.06709   0.60472   0.38526   0.00000  Uiso   1.00
H807   H     0.09325   0.55944   0.41567   0.00000  Uiso   1.00
H808   H     0.07657   0.60844   0.45103   0.00000  Uiso   1.00
H809   H     0.12058   0.64455   0.38289   0.00000  Uiso   1.00
H810   H     0.10634   0.41628   0.40887   0.00000  Uiso   1.00
H811   H     0.15223   0.60190   0.38858   0.00000  Uiso   1.00
H812   H     0.13081   0.42158   0.35080   0.00000  Uiso   1.00
H813   H     0.19135   0.39675   0.40489   0.00000  Uiso   1.00
H814   H     0.17384   0.35010   0.37857   0.00000  Uiso   1.00
H815   H     0.24324   0.56020   0.58394   0.00000  Uiso   1.00
H816   H     0.25648   0.60767   0.54399   0.00000  Uiso   1.00
H817   H     0.26945   0.60756   0.60938   0.00000  Uiso   1.00
H818   H     0.21405   0.64417   0.61617   0.00000  Uiso   1.00
N819   N     0.16667   0.61736   0.50000   0.00000  Uiso   1.00
N820   N     0.16667   0.38264   0.50000   0.00000  Uiso   1.00
N821   N     0.06240   0.38507   0.54588   0.00000  Uiso   1.00
N822   N     0.27904   0.60886   0.44832   0.00000  Uiso   1.00
N823   N     0.27815   0.38074   0.52743   0.00000  Uiso   1.00
N824   N     0.05208   0.61599   0.54051   0.00000  Uiso   1.00
O825   O     0.10655   0.53958   0.50000   0.00000  Uiso   1.00
O826   O     0.22679   0.46042   0.50000   0.00000  Uiso   1.00
O827   O     0.22679   0.53958   0.50000   0.00000  Uiso   1.00
O828   O     0.10655   0.46042   0.50000   0.00000  Uiso   1.00
O829   O     0.16667   0.53959   0.42946   0.00000  Uiso   1.00
O830   O     0.16667   0.46041   0.57054   0.00000  Uiso   1.00
O831   O     0.16667   0.53959   0.57054   0.00000  Uiso   1.00
O832   O     0.16667   0.46041   0.42946   0.00000  Uiso   1.00
C833   C     0.42152   0.50002   0.50436   0.00000  Uiso   1.00
C834   C     0.35443   0.54011   0.50729   0.00000  Uiso   1.00
C835   C     0.62426   0.49843   0.50093   0.00000  Uiso   1.00
C836   C     0.37713   0.49970   0.51116   0.00000  Uiso   1.00
C837   C     0.49207   0.35696   0.45649   0.00000  Uiso   1.00
C838   C     0.51517   0.64207   0.54137   0.00000  Uiso   1.00
C839   C     0.50804   0.35685   0.54348   0.00000  Uiso   1.00
C840   C     0.48506   0.64221   0.45844   0.00000  Uiso   1.00
C841   C     0.37831   0.41774   0.53354   0.00000  Uiso   1.00
C842   C     0.62717   0.57775   0.46870   0.00000  Uiso   1.00
C843   C     0.62682   0.41519   0.52157   0.00000  Uiso   1.00
C844   C     0.57901   0.49962   0.49933   0.00000  Uiso   1.00
C845   C     0.37179   0.58238   0.52535   0.00000  Uiso   1.00
C846   C     0.49671   0.37611   0.40452   0.00000  Uiso   1.00
C847   C     0.45664   0.39807   0.38063   0.00000  Uiso   1.00
C848   C     0.53775   0.61977   0.58787   0.00000  Uiso   1.00
C849   C     0.57882   0.59719   0.58007   0.00000  Uiso   1.00
C850   C     0.50304   0.37575   0.59561   0.00000  Uiso   1.00
C851   C     0.54264   0.39739   0.62036   0.00000  Uiso   1.00
C852   C     0.46388   0.61998   0.41107   0.00000  Uiso   1.00
C853   C     0.42318   0.59646   0.41695   0.00000  Uiso   1.00
C854   C     0.50011   0.50013   0.40737   0.00000  Uiso   1.00
C855   C     0.49997   0.50013   0.59264   0.00000  Uiso   1.00
C856   C     0.50013   0.50072   0.35538   0.00000  Uiso   1.00
C857   C     0.49995   0.50071   0.64463   0.00000  Uiso   1.00
C858   C     0.35627   0.45880   0.51815   0.00000  Uiso   1.00
C859   C     0.64597   0.53867   0.49390   0.00000  Uiso   1.00
C860   C     0.64665   0.45818   0.51397   0.00000  Uiso   1.00
Cu861  Cu    0.50000   0.54689   0.50000   0.00000  Uiso   1.00
Cu862  Cu    0.50000   0.45311   0.50000   0.00000  Uiso   1.00
H863   H     0.43472   0.37432   0.36190   0.00000  Uiso   1.00
H864   H     0.51727   0.60093   0.61089   0.00000  Uiso   1.00
H865   H     0.56473   0.37354   0.63918   0.00000  Uiso   1.00
H866   H     0.55962   0.41615   0.59283   0.00000  Uiso   1.00
H867   H     0.53446   0.42048   0.65034   0.00000  Uiso   1.00
H868   H     0.47508   0.39684   0.59521   0.00000  Uiso   1.00
H869   H     0.49275   0.34942   0.62115   0.00000  Uiso   1.00
H870   H     0.40042   0.60472   0.38526   0.00000  Uiso   1.00
H871   H     0.42658   0.55944   0.41567   0.00000  Uiso   1.00
H872   H     0.40991   0.60844   0.45103   0.00000  Uiso   1.00
H873   H     0.45391   0.64455   0.38289   0.00000  Uiso   1.00
H874   H     0.43967   0.41628   0.40887   0.00000  Uiso   1.00
H875   H     0.48556   0.60190   0.38858   0.00000  Uiso   1.00
H876   H     0.46414   0.42158   0.35080   0.00000  Uiso   1.00
H877   H     0.52468   0.39675   0.40489   0.00000  Uiso   1.00
H878   H     0.50717   0.35010   0.37857   0.00000  Uiso   1.00
H879   H     0.57657   0.56020   0.58394   0.00000  Uiso   1.00
H880   H     0.58981   0.60767   0.54399   0.00000  Uiso   1.00
H881   H     0.60279   0.60756   0.60938   0.00000  Uiso   1.00
H882   H     0.54738   0.64417   0.61617   0.00000  Uiso   1.00
N883   N     0.50000   0.61736   0.50000   0.00000  Uiso   1.00
N884   N     0.50000   0.38264   0.50000   0.00000  Uiso   1.00
N885   N     0.39573   0.38507   0.54588   0.00000  Uiso   1.00
N886   N     0.61238   0.60886   0.44832   0.00000  Uiso   1.00
N887   N     0.61149   0.38074   0.52743   0.00000  Uiso   1.00
N888   N     0.38542   0.61599   0.54051   0.00000  Uiso   1.00
O889   O     0.43988   0.53958   0.50000   0.00000  Uiso   1.00
O890   O     0.56012   0.46042   0.50000   0.00000  Uiso   1.00
O891   O     0.56012   0.53958   0.50000   0.00000  Uiso   1.00
O892   O     0.43988   0.46042   0.50000   0.00000  Uiso   1.00
O893   O     0.50000   0.53959   0.42946   0.00000  Uiso   1.00
O894   O     0.50000   0.46041   0.57054   0.00000  Uiso   1.00
O895   O     0.50000   0.53959   0.57054   0.00000  Uiso   1.00
O896   O     0.50000   0.46041   0.42946   0.00000  Uiso   1.00
C897   C     0.75486   0.50002   0.50436   0.00000  Uiso   1.00
C898   C     0.68776   0.54011   0.50729   0.00000  Uiso   1.00
C899   C     0.95760   0.49843   0.50093   0.00000  Uiso   1.00
C900   C     0.71046   0.49970   0.51116   0.00000  Uiso   1.00
C901   C     0.82540   0.35696   0.45649   0.00000  Uiso   1.00
C902   C     0.84851   0.64207   0.54137   0.00000  Uiso   1.00
C903   C     0.84137   0.35685   0.54348   0.00000  Uiso   1.00
C904   C     0.81839   0.64221   0.45844   0.00000  Uiso   1.00
C905   C     0.71164   0.41774   0.53354   0.00000  Uiso   1.00
C906   C     0.96051   0.57775   0.46870   0.00000  Uiso   1.00
C907   C     0.96015   0.41519   0.52157   0.00000  Uiso   1.00
C908   C     0.91234   0.49962   0.49933   0.00000  Uiso   1.00
C909   C     0.70512   0.58238   0.52535   0.00000  Uiso   1.00
C910   C     0.83004   0.37611   0.40452   0.00000  Uiso   1.00
C911   C     0.78997   0.39807   0.38063   0.00000  Uiso   1.00
C912   C     0.87108   0.61977   0.58787   0.00000  Uiso   1.00
C913   C     0.91215   0.59719   0.58007   0.00000  Uiso   1.00
C914   C     0.83638   0.37575   0.59561   0.00000  Uiso   1.00
C915   C     0.87598   0.39739   0.62036   0.00000  Uiso   1.00
C916   C     0.79722   0.61998   0.41107   0.00000  Uiso   1.00
C917   C     0.75651   0.59646   0.41695   0.00000  Uiso   1.00
C918   C     0.83344   0.50013   0.40737   0.00000  Uiso   1.00
C919   C     0.83331   0.50013   0.59264   0.00000  Uiso   1.00
C920   C     0.83346   0.50072   0.35538   0.00000  Uiso   1.00
C921   C     0.83328   0.50071   0.64463   0.00000  Uiso   1.00
C922   C     0.68960   0.45880   0.51815   0.00000  Uiso   1.00
C923   C     0.97931   0.53867   0.49390   0.00000  Uiso   1.00
C924   C     0.97998   0.45818   0.51397   0.00000  Uiso   1.00
Cu925  Cu    0.83333   0.54689   0.50000   0.00000  Uiso   1.00
Cu926  Cu    0.83333   0.45311   0.50000   0.00000  Uiso   1.00
H927   H     0.76805   0.37432   0.36190   0.00000  Uiso   1.00
H928   H     0.85060   0.60093   0.61089   0.00000  Uiso   1.00
H929   H     0.89807   0.37354   0.63918   0.00000  Uiso   1.00
H930   H     0.89295   0.41615   0.59283   0.00000  Uiso   1.00
H931   H     0.86780   0.42048   0.65034   0.00000  Uiso   1.00
H932   H     0.80841   0.39684   0.59521   0.00000  Uiso   1.00
H933   H     0.82608   0.34942   0.62115   0.00000  Uiso   1.00
H934   H     0.73375   0.60472   0.38526   0.00000  Uiso   1.00
H935   H     0.75991   0.55944   0.41567   0.00000  Uiso   1.00
H936   H     0.74324   0.60844   0.45103   0.00000  Uiso   1.00
H937   H     0.78724   0.64455   0.38289   0.00000  Uiso   1.00
H938   H     0.77301   0.41628   0.40887   0.00000  Uiso   1.00
H939   H     0.81889   0.60190   0.38858   0.00000  Uiso   1.00
H940   H     0.79748   0.42158   0.35080   0.00000  Uiso   1.00
H941   H     0.85802   0.39675   0.40489   0.00000  Uiso   1.00
H942   H     0.84050   0.35010   0.37857   0.00000  Uiso   1.00
H943   H     0.90991   0.56020   0.58394   0.00000  Uiso   1.00
H944   H     0.92314   0.60767   0.54399   0.00000  Uiso   1.00
H945   H     0.93612   0.60756   0.60938   0.00000  Uiso   1.00
H946   H     0.88072   0.64417   0.61617   0.00000  Uiso   1.00
N947   N     0.83333   0.61736   0.50000   0.00000  Uiso   1.00
N948   N     0.83333   0.38264   0.50000   0.00000  Uiso   1.00
N949   N     0.72907   0.38507   0.54588   0.00000  Uiso   1.00
N950   N     0.94571   0.60886   0.44832   0.00000  Uiso   1.00
N951   N     0.94482   0.38074   0.52743   0.00000  Uiso   1.00
N952   N     0.71875   0.61599   0.54051   0.00000  Uiso   1.00
O953   O     0.77321   0.53958   0.50000   0.00000  Uiso   1.00
O954   O     0.89345   0.46042   0.50000   0.00000  Uiso   1.00
O955   O     0.89345   0.53958   0.50000   0.00000  Uiso   1.00
O956   O     0.77321   0.46042   0.50000   0.00000  Uiso   1.00
O957   O     0.83333   0.53959   0.42946   0.00000  Uiso   1.00
O958   O     0.83333   0.46041   0.57054   0.00000  Uiso   1.00
O959   O     0.83333   0.53959   0.57054   0.00000  Uiso   1.00
O960   O     0.83333   0.46041   0.42946   0.00000  Uiso   1.00
C961   C     0.08819   0.83336   0.50436   0.00000  Uiso   1.00
C962   C     0.02110   0.87344   0.50729   0.00000  Uiso   1.00
C963   C     0.29093   0.83176   0.50093   0.00000  Uiso   1.00
C964   C     0.04379   0.83304   0.51116   0.00000  Uiso   1.00
C965   C     0.15874   0.69030   0.45649   0.00000  Uiso   1.00
C966   C     0.18184   0.97540   0.54137   0.00000  Uiso   1.00
C967   C     0.17471   0.69019   0.54348   0.00000  Uiso   1.00
C968   C     0.15173   0.97554   0.45844   0.00000  Uiso   1.00
C969   C     0.04497   0.75107   0.53354   0.00000  Uiso   1.00
C970   C     0.29384   0.91108   0.46870   0.00000  Uiso   1.00
C971   C     0.29348   0.74853   0.52157   0.00000  Uiso   1.00
C972   C     0.24568   0.83296   0.49933   0.00000  Uiso   1.00
C973   C     0.03846   0.91571   0.52535   0.00000  Uiso   1.00
C974   C     0.16337   0.70944   0.40452   0.00000  Uiso   1.00
C975   C     0.12331   0.73140   0.38063   0.00000  Uiso   1.00
C976   C     0.20441   0.95311   0.58787   0.00000  Uiso   1.00
C977   C     0.24549   0.93052   0.58007   0.00000  Uiso   1.00
C978   C     0.16971   0.70909   0.59561   0.00000  Uiso   1.00
C979   C     0.20931   0.73073   0.62036   0.00000  Uiso   1.00
C980   C     0.13055   0.95332   0.41107   0.00000  Uiso   1.00
C981   C     0.08984   0.92979   0.41695   0.00000  Uiso   1.00
C982   C     0.16677   0.83347   0.40737   0.00000  Uiso   1.00
C983   C     0.16664   0.83346   0.59264   0.00000  Uiso   1.00
C984   C     0.16680   0.83405   0.35538   0.00000  Uiso   1.00
C985   C     0.16661   0.83405   0.64463   0.00000  Uiso   1.00
C986   C     0.02294   0.79213   0.51815   0.00000  Uiso   1.00
C987   C     0.31264   0.87200   0.49390   0.00000  Uiso   1.00
C988   C     0.31331   0.79151   0.51397   0.00000  Uiso   1.00
Cu989  Cu    0.16667   0.88022   0.50000   0.00000  Uiso   1.00
Cu990  Cu    0.16667   0.78645   0.50000   0.00000  Uiso   1.00
H991   H     0.10138   0.70765   0.36190   0.00000  Uiso   1.00
H992   H     0.18393   0.93426   0.61089   0.00000  Uiso   1.00
H993   H     0.23140   0.70687   0.63918   0.00000  Uiso   1.00
H994   H     0.22629   0.74948   0.59283   0.00000  Uiso   1.00
H995   H     0.20113   0.75382   0.65034   0.00000  Uiso   1.00
H996   H     0.14175   0.73017   0.59521   0.00000  Uiso   1.00
H997   H     0.15941   0.68275   0.62115   0.00000  Uiso   1.00
H998   H     0.06709   0.93805   0.38526   0.00000  Uiso   1.00
H999   H     0.09325   0.89278   0.41567   0.00000  Uiso   1.00
H1000  H     0.07657   0.94177   0.45103   0.00000  Uiso   1.00
H1001  H     0.12058   0.97788   0.38289   0.00000  Uiso   1.00
H1002  H     0.10634   0.74961   0.40887   0.00000  Uiso   1.00
H1003  H     0.15223   0.93524   0.38858   0.00000  Uiso   1.00
H1004  H     0.13081   0.75491   0.35080   0.00000  Uiso   1.00
H1005  H     0.19135   0.73008   0.40489   0.00000  Uiso   1.00
H1006  H     0.17384   0.68343   0.37857   0.00000  Uiso   1.00
H1007  H     0.24324   0.89353   0.58394   0.00000  Uiso   1.00
H1008  H     0.25648   0.94101   0.54399   0.00000  Uiso   1.00
H1009  H     0.26945   0.94090   0.60938   0.00000  Uiso   1.00
H1010  H     0.21405   0.97750   0.61617   0.00000  Uiso   1.00
N1011  N     0.16667   0.95069   0.50000   0.00000  Uiso   1.00
N1012  N     0.16667   0.71598   0.50000   0.00000  Uiso   1.00
N1013  N     0.06240   0.71840   0.54588   0.00000  Uiso   1.00
N1014  N     0.27904   0.94220   0.44832   0.00000  Uiso   1.00
N1015  N     0.27815   0.71407   0.52743   0.00000  Uiso   1.00
N1016  N     0.05208   0.94933   0.54051   0.00000  Uiso   1.00
O1017  O     0.10655   0.87291   0.50000   0.00000  Uiso   1.00
O1018  O     0.22679   0.79375   0.50000   0.00000  Uiso   1.00
O1019  O     0.22679   0.87291   0.50000   0.00000  Uiso   1.00
O1020  O     0.10655   0.79375   0.50000   0.00000  Uiso   1.00
O1021  O     0.16667   0.87292   0.42946   0.00000  Uiso   1.00
O1022  O     0.16667   0.79375   0.57054   0.00000  Uiso   1.00
O1023  O     0.16667   0.87292   0.57054   0.00000  Uiso   1.00
O1024  O     0.16667   0.79375   0.42946   0.00000  Uiso   1.00
C1025  C     0.42152   0.83336   0.50436   0.00000  Uiso   1.00
C1026  C     0.35443   0.87344   0.50729   0.00000  Uiso   1.00
C1027  C     0.62426   0.83176   0.50093   0.00000  Uiso   1.00
C1028  C     0.37713   0.83304   0.51116   0.00000  Uiso   1.00
C1029  C     0.49207   0.69030   0.45649   0.00000  Uiso   1.00
C1030  C     0.51517   0.97540   0.54137   0.00000  Uiso   1.00
C1031  C     0.50804   0.69019   0.54348   0.00000  Uiso   1.00
C1032  C     0.48506   0.97554   0.45844   0.00000  Uiso   1.00
C1033  C     0.37831   0.75107   0.53354   0.00000  Uiso   1.00
C1034  C     0.62717   0.91108   0.46870   0.00000  Uiso   1.00
C1035  C     0.62682   0.74853   0.52157   0.00000  Uiso   1.00
C1036  C     0.57901   0.83296   0.49933   0.00000  Uiso   1.00
C1037  C     0.37179   0.91571   0.52535   0.00000  Uiso   1.00
C1038  C     0.49671   0.70944   0.40452   0.00000  Uiso   1.00
C1039  C     0.45664   0.73140   0.38063   0.00000  Uiso   1.00
C1040  C     0.53775   0.95311   0.58787   0.00000  Uiso   1.00
C1041  C     0.57882   0.93052   0.58007   0.00000  Uiso   1.00
C1042  C     0.50304   0.70909   0.59561   0.00000  Uiso   1.00
C1043  C     0.54264   0.73073   0.62036   0.00000  Uiso   1.00
C1044  C     0.46388   0.95332   0.41107   0.00000  Uiso   1.00
C1045  C     0.42318   0.92979   0.41695   0.00000  Uiso   1.00
C1046  C     0.50011   0.83347   0.40737   0.00000  Uiso   1.00
C1047  C     0.49997   0.83346   0.59264   0.00000  Uiso   1.00
C1048  C     0.50013   0.83405   0.35538   0.00000  Uiso   1.00
C1049  C     0.49995   0.83405   0.64463   0.00000  Uiso   1.00
C1050  C     0.35627   0.79213   0.51815   0.00000  Uiso   1.00
C1051  C     0.64597   0.87200   0.49390   0.00000  Uiso   1.00
C1052  C     0.64665   0.79151   0.51397   0.00000  Uiso   1.00
Cu1053 Cu    0.50000   0.88022   0.50000   0.00000  Uiso   1.00
Cu1054 Cu    0.50000   0.78645   0.50000   0.00000  Uiso   1.00
H1055  H     0.43472   0.70765   0.36190   0.00000  Uiso   1.00
H1056  H     0.51727   0.93426   0.61089   0.00000  Uiso   1.00
H1057  H     0.56473   0.70687   0.63918   0.00000  Uiso   1.00
H1058  H     0.55962   0.74948   0.59283   0.00000  Uiso   1.00
H1059  H     0.53446   0.75382   0.65034   0.00000  Uiso   1.00
H1060  H     0.47508   0.73017   0.59521   0.00000  Uiso   1.00
H1061  H     0.49275   0.68275   0.62115   0.00000  Uiso   1.00
H1062  H     0.40042   0.93805   0.38526   0.00000  Uiso   1.00
H1063  H     0.42658   0.89278   0.41567   0.00000  Uiso   1.00
H1064  H     0.40991   0.94177   0.45103   0.00000  Uiso   1.00
H1065  H     0.45391   0.97788   0.38289   0.00000  Uiso   1.00
H1066  H     0.43967   0.74961   0.40887   0.00000  Uiso   1.00
H1067  H     0.48556   0.93524   0.38858   0.00000  Uiso   1.00
H1068  H     0.46414   0.75491   0.35080   0.00000  Uiso   1.00
H1069  H     0.52468   0.73008   0.40489   0.00000  Uiso   1.00
H1070  H     0.50717   0.68343   0.37857   0.00000  Uiso   1.00
H1071  H     0.57657   0.89353   0.58394   0.00000  Uiso   1.00
H1072  H     0.58981   0.94101   0.54399   0.00000  Uiso   1.00
H1073  H     0.60279   0.94090   0.60938   0.00000  Uiso   1.00
H1074  H     0.54738   0.97750   0.61617   0.00000  Uiso   1.00
N1075  N     0.50000   0.95069   0.50000   0.00000  Uiso   1.00
N1076  N     0.50000   0.71598   0.50000   0.00000  Uiso   1.00
N1077  N     0.39573   0.71840   0.54588   0.00000  Uiso   1.00
N1078  N     0.61238   0.94220   0.44832   0.00000  Uiso   1.00
N1079  N     0.61149   0.71407   0.52743   0.00000  Uiso   1.00
N1080  N     0.38542   0.94933   0.54051   0.00000  Uiso   1.00
O1081  O     0.43988   0.87291   0.50000   0.00000  Uiso   1.00
O1082  O     0.56012   0.79375   0.50000   0.00000  Uiso   1.00
O1083  O     0.56012   0.87291   0.50000   0.00000  Uiso   1.00
O1084  O     0.43988   0.79375   0.50000   0.00000  Uiso   1.00
O1085  O     0.50000   0.87292   0.42946   0.00000  Uiso   1.00
O1086  O     0.50000   0.79375   0.57054   0.00000  Uiso   1.00
O1087  O     0.50000   0.87292   0.57054   0.00000  Uiso   1.00
O1088  O     0.50000   0.79375   0.42946   0.00000  Uiso   1.00
C1089  C     0.75486   0.83336   0.50436   0.00000  Uiso   1.00
C1090  C     0.68776   0.87344   0.50729   0.00000  Uiso   1.00
C1091  C     0.95760   0.83176   0.50093   0.00000  Uiso   1.00
C1092  C     0.71046   0.83304   0.51116   0.00000  Uiso   1.00
C1093  C     0.82540   0.69030   0.45649   0.00000  Uiso   1.00
C1094  C     0.84851   0.97540   0.54137   0.00000  Uiso   1.00
C1095  C     0.84137   0.69019   0.54348   0.00000  Uiso   1.00
C1096  C     0.81839   0.97554   0.45844   0.00000  Uiso   1.00
C1097  C     0.71164   0.75107   0.53354   0.00000  Uiso   1.00
C1098  C     0.96051   0.91108   0.46870   0.00000  Uiso   1.00
C1099  C     0.96015   0.74853   0.52157   0.00000  Uiso   1.00
C1100  C     0.91234   0.83296   0.49933   0.00000  Uiso   1.00
C1101  C     0.70512   0.91571   0.52535   0.00000  Uiso   1.00
C1102  C     0.83004   0.70944   0.40452   0.00000  Uiso   1.00
C1103  C     0.78997   0.73140   0.38063   0.00000  Uiso   1.00
C1104  C     0.87108   0.95311   0.58787   0.00000  Uiso   1.00
C1105  C     0.91215   0.93052   0.58007   0.00000  Uiso   1.00
C1106  C     0.83638   0.70909   0.59561   0.00000  Uiso   1.00
C1107  C     0.87598   0.73073   0.62036   0.00000  Uiso   1.00
C1108  C     0.79722   0.95332   0.41107   0.00000  Uiso   1.00
C1109  C     0.75651   0.92979   0.41695   0.00000  Uiso   1.00
C1110  C     0.83344   0.83347   0.40737   0.00000  Uiso   1.00
C1111  C     0.83331   0.83346   0.59264   0.00000  Uiso   1.00
C1112  C     0.83346   0.83405   0.35538   0.00000  Uiso   1.00
C1113  C     0.83328   0.83405   0.64463   0.00000  Uiso   1.00
C1114  C     0.68960   0.79213   0.51815   0.00000  Uiso   1.00
C1115  C     0.97931   0.87200   0.49390   0.00000  Uiso   1.00
C1116  C     0.97998   0.79151   0.51397   0.00000  Uiso   1.00
Cu1117 Cu    0.83333   0.88022   0.50000   0.00000  Uiso   1.00
Cu1118 Cu    0.83333   0.78645   0.50000   0.00000  Uiso   1.00
H1119  H     0.76805   0.70765   0.36190   0.00000  Uiso   1.00
H1120  H     0.85060   0.93426   0.61089   0.00000  Uiso   1.00
H1121  H     0.89807   0.70687   0.63918   0.00000  Uiso   1.00
H1122  H     0.89295   0.74948   0.59283   0.00000  Uiso   1.00
H1123  H     0.86780   0.75382   0.65034   0.00000  Uiso   1.00
H1124  H     0.80841   0.73017   0.59521   0.00000  Uiso   1.00
H1125  H     0.82608   0.68275   0.62115   0.00000  Uiso   1.00
H1126  H     0.73375   0.93805   0.38526   0.00000  Uiso   1.00
H1127  H     0.75991   0.89278   0.41567   0.00000  Uiso   1.00
H1128  H     0.74324   0.94177   0.45103   0.00000  Uiso   1.00
H1129  H     0.78724   0.97788   0.38289   0.00000  Uiso   1.00
H1130  H     0.77301   0.74961   0.40887   0.00000  Uiso   1.00
H1131  H     0.81889   0.93524   0.38858   0.00000  Uiso   1.00
H1132  H     0.79748   0.75491   0.35080   0.00000  Uiso   1.00
H1133  H     0.85802   0.73008   0.40489   0.00000  Uiso   1.00
H1134  H     0.84050   0.68343   0.37857   0.00000  Uiso   1.00
H1135  H     0.90991   0.89353   0.58394   0.00000  Uiso   1.00
H1136  H     0.92314   0.94101   0.54399   0.00000  Uiso   1.00
H1137  H     0.93612   0.94090   0.60938   0.00000  Uiso   1.00
H1138  H     0.88072   0.97750   0.61617   0.00000  Uiso   1.00
N1139  N     0.83333   0.95069   0.50000   0.00000  Uiso   1.00
N1140  N     0.83333   0.71598   0.50000   0.00000  Uiso   1.00
N1141  N     0.72907   0.71840   0.54588   0.00000  Uiso   1.00
N1142  N     0.94571   0.94220   0.44832   0.00000  Uiso   1.00
N1143  N     0.94482   0.71407   0.52743   0.00000  Uiso   1.00
N1144  N     0.71875   0.94933   0.54051   0.00000  Uiso   1.00
O1145  O     0.77321   0.87291   0.50000   0.00000  Uiso   1.00
O1146  O     0.89345   0.79375   0.50000   0.00000  Uiso   1.00
O1147  O     0.89345   0.87291   0.50000   0.00000  Uiso   1.00
O1148  O     0.77321   0.79375   0.50000   0.00000  Uiso   1.00
O1149  O     0.83333   0.87292   0.42946   0.00000  Uiso   1.00
O1150  O     0.83333   0.79375   0.57054   0.00000  Uiso   1.00
O1151  O     0.83333   0.87292   0.57054   0.00000  Uiso   1.00
O1152  O     0.83333   0.79375   0.42946   0.00000  Uiso   1.00
C1153  C     0.08819   0.16669   0.83769   0.00000  Uiso   1.00
C1154  C     0.02110   0.20677   0.84063   0.00000  Uiso   1.00
C1155  C     0.29093   0.16509   0.83426   0.00000  Uiso   1.00
C1156  C     0.04379   0.16637   0.84449   0.00000  Uiso   1.00
C1157  C     0.15874   0.02363   0.78983   0.00000  Uiso   1.00
C1158  C     0.18184   0.30873   0.87470   0.00000  Uiso   1.00
C1159  C     0.17471   0.02352   0.87682   0.00000  Uiso   1.00
C1160  C     0.15173   0.30888   0.79177   0.00000  Uiso   1.00
C1161  C     0.04497   0.08441   0.86687   0.00000  Uiso   1.00
C1162  C     0.29384   0.24441   0.80203   0.00000  Uiso   1.00
C1163  C     0.29348   0.08186   0.85490   0.00000  Uiso   1.00
C1164  C     0.24568   0.16629   0.83266   0.00000  Uiso   1.00
C1165  C     0.03846   0.24904   0.85868   0.00000  Uiso   1.00
C1166  C     0.16337   0.04277   0.73785   0.00000  Uiso   1.00
C1167  C     0.12331   0.06473   0.71397   0.00000  Uiso   1.00
C1168  C     0.20441   0.28644   0.92120   0.00000  Uiso   1.00
C1169  C     0.24549   0.26386   0.91340   0.00000  Uiso   1.00
C1170  C     0.16971   0.04242   0.92894   0.00000  Uiso   1.00
C1171  C     0.20931   0.06406   0.95369   0.00000  Uiso   1.00
C1172  C     0.13055   0.28665   0.74440   0.00000  Uiso   1.00
C1173  C     0.08984   0.26312   0.75028   0.00000  Uiso   1.00
C1174  C     0.16677   0.16680   0.74070   0.00000  Uiso   1.00
C1175  C     0.16664   0.16680   0.92597   0.00000  Uiso   1.00
C1176  C     0.16680   0.16739   0.68871   0.00000  Uiso   1.00
C1177  C     0.16661   0.16738   0.97796   0.00000  Uiso   1.00
C1178  C     0.02294   0.12547   0.85148   0.00000  Uiso   1.00
C1179  C     0.31264   0.20534   0.82724   0.00000  Uiso   1.00
C1180  C     0.31331   0.12484   0.84730   0.00000  Uiso   1.00
Cu1181 Cu    0.16667   0.21355   0.83333   0.00000  Uiso   1.00
Cu1182 Cu    0.16667   0.11978   0.83333   0.00000  Uiso   1.00
H1183  H     0.10138   0.04098   0.69523   0.00000  Uiso   1.00
H1184  H     0.18393   0.26760   0.94422   0.00000  Uiso   1.00
H1185  H     0.23140   0.04021   0.97251   0.00000  Uiso   1.00
H1186  H     0.22629   0.08281   0.92616   0.00000  Uiso   1.00
H1187  H     0.20113   0.08715   0.98367   0.00000  Uiso   1.00
H1188  H     0.14175   0.06351   0.92854   0.00000  Uiso   1.00
H1189  H     0.15941   0.01608   0.95448   0.00000  Uiso   1.00
H1190  H     0.06709   0.27138   0.71860   0.00000  Uiso   1.00
H1191  H     0.09325   0.22611   0.74900   0.00000  Uiso   1.00
H1192  H     0.07657   0.27511   0.78436   0.00000  Uiso   1.00
H1193  H     0.12058   0.31121   0.71623   0.00000  Uiso   1.00
H1194  H     0.10634   0.08294   0.74220   0.00000  Uiso   1.00
H1195  H     0.15223   0.26857   0.72191   0.00000  Uiso   1.00
H1196  H     0.13081   0.08824   0.68413   0.00000  Uiso   1.00
H1197  H     0.19135   0.06342   0.73822   0.00000  Uiso   1.00
H1198  H     0.17384   0.01676   0.71190   0.00000  Uiso   1.00
H1199  H     0.24324   0.22687   0.91727   0.00000  Uiso   1.00
H1200  H     0.25648   0.27434   0.87732   0.00000  Uiso   1.00
H1201  H     0.26945   0.27423   0.94271   0.00000  Uiso   1.00
H1202  H     0.21405   0.31083   0.94951   0.00000  Uiso   1.00
N1203  N     0.16667   0.28402   0.83333   0.00000  Uiso   1.00
N1204  N     0.16667   0.04931   0.83333   0.00000  Uiso   1.00
N1205  N     0.06240   0.05174   0.87922   0.00000  Uiso   1.00
N1206  N     0.27904   0.27553   0.78166   0.00000  Uiso   1.00
N1207  N     0.27815   0.04740   0.86077   0.00000  Uiso   1.00
N1208  N     0.05208   0.28266   0.87385   0.00000  Uiso   1.00
O1209  O     0.10655   0.20625   0.83333   0.00000  Uiso   1.00
O1210  O     0.22679   0.12709   0.83334   0.00000  Uiso   1.00
O1211  O     0.22679   0.20625   0.83334   0.00000  Uiso   1.00
O1212  O     0.10655   0.12709   0.83333   0.00000  Uiso   1.00
O1213  O     0.16667   0.20625   0.76280   0.00000  Uiso   1.00
O1214  O     0.16667   0.12708   0.90387   0.00000  Uiso   1.00
O1215  O     0.16667   0.20625   0.90387   0.00000  Uiso   1.00
O1216  O     0.16667   0.12708   0.76280   0.00000  Uiso   1.00
C1217  C     0.42152   0.16669   0.83769   0.00000  Uiso   1.00
C1218  C     0.35443   0.20677   0.84063   0.00000  Uiso   1.00
C1219  C     0.62426   0.16509   0.83426   0.00000  Uiso   1.00
C1220  C     0.37713   0.16637   0.84449   0.00000  Uiso   1.00
C1221  C     0.49207   0.02363   0.78983   0.00000  Uiso   1.00
C1222  C     0.51517   0.30873   0.87470   0.00000  Uiso   1.00
C1223  C     0.50804   0.02352   0.87682   0.00000  Uiso   1.00
C1224  C     0.48506   0.30888   0.79177   0.00000  Uiso   1.00
C1225  C     0.37831   0.08441   0.86687   0.00000  Uiso   1.00
C1226  C     0.62717   0.24441   0.80203   0.00000  Uiso   1.00
C1227  C     0.62682   0.08186   0.85490   0.00000  Uiso   1.00
C1228  C     0.57901   0.16629   0.83266   0.00000  Uiso   1.00
C1229  C     0.37179   0.24904   0.85868   0.00000  Uiso   1.00
C1230  C     0.49671   0.04277   0.73785   0.00000  Uiso   1.00
C1231  C     0.45664   0.06473   0.71397   0.00000  Uiso   1.00
C1232  C     0.53775   0.28644   0.92120   0.00000  Uiso   1.00
C1233  C     0.57882   0.26386   0.91340   0.00000  Uiso   1.00
C1234  C     0.50304   0.04242   0.92894   0.00000  Uiso   1.00
C1235  C     0.54264   0.06406   0.95369   0.00000  Uiso   1.00
C1236  C     0.46388   0.28665   0.74440   0.00000  Uiso   1.00
C1237  C     0.42318   0.26312   0.75028   0.00000  Uiso   1.00
C1238  C     0.50011   0.16680   0.74070   0.00000  Uiso   1.00
C1239  C     0.49997   0.16680   0.92597   0.00000  Uiso   1.00
C1240  C     0.50013   0.16739   0.68871   0.00000  Uiso   1.00
C1241  C     0.49995   0.16738   0.97796   0.00000  Uiso   1.00
C1242  C     0.35627   0.12547   0.85148   0.00000  Uiso   1.00
C1243  C     0.64597   0.20534   0.82724   0.00000  Uiso   1.00
C1244  C     0.64665   0.12484   0.84730   0.00000  Uiso   1.00
Cu1245 Cu    0.50000   0.21355   0.83333   0.00000  Uiso   1.00
Cu1246 Cu    0.50000   0.11978   0.83333   0.00000  Uiso   1.00
H1247  H     0.43472   0.04098   0.69523   0.00000  Uiso   1.00
H1248  H     0.51727   0.26760   0.94422   0.00000  Uiso   1.00
H1249  H     0.56473   0.04021   0.97251   0.00000  Uiso   1.00
H1250  H     0.55962   0.08281   0.92616   0.00000  Uiso   1.00
H1251  H     0.53446   0.08715   0.98367   0.00000  Uiso   1.00
H1252  H     0.47508   0.06351   0.92854   0.00000  Uiso   1.00
H1253  H     0.49275   0.01608   0.95448   0.00000  Uiso   1.00
H1254  H     0.40042   0.27138   0.71860   0.00000  Uiso   1.00
H1255  H     0.42658   0.22611   0.74900   0.00000  Uiso   1.00
H1256  H     0.40991   0.27511   0.78436   0.00000  Uiso   1.00
H1257  H     0.45391   0.31121   0.71623   0.00000  Uiso   1.00
H1258  H     0.43967   0.08294   0.74220   0.00000  Uiso   1.00
H1259  H     0.48556   0.26857   0.72191   0.00000  Uiso   1.00
H1260  H     0.46414   0.08824   0.68413   0.00000  Uiso   1.00
H1261  H     0.52468   0.06342   0.73822   0.00000  Uiso   1.00
H1262  H     0.50717   0.01676   0.71190   0.00000  Uiso   1.00
H1263  H     0.57657   0.22687   0.91727   0.00000  Uiso   1.00
H1264  H     0.58981   0.27434   0.87732   0.00000  Uiso   1.00
H1265  H     0.60279   0.27423   0.94271   0.00000  Uiso   1.00
H1266  H     0.54738   0.31083   0.94951   0.00000  Uiso   1.00
N1267  N     0.50000   0.28402   0.83333   0.00000  Uiso   1.00
N1268  N     0.50000   0.04931   0.83333   0.00000  Uiso   1.00
N1269  N     0.39573   0.05174   0.87922   0.00000  Uiso   1.00
N1270  N     0.61238   0.27553   0.78166   0.00000  Uiso   1.00
N1271  N     0.61149   0.04740   0.86077   0.00000  Uiso   1.00
N1272  N     0.38542   0.28266   0.87385   0.00000  Uiso   1.00
O1273  O     0.43988   0.20625   0.83333   0.00000  Uiso   1.00
O1274  O     0.56012   0.12709   0.83334   0.00000  Uiso   1.00
O1275  O     0.56012   0.20625   0.83334   0.00000  Uiso   1.00
O1276  O     0.43988   0.12709   0.83333   0.00000  Uiso   1.00
O1277  O     0.50000   0.20625   0.76280   0.00000  Uiso   1.00
O1278  O     0.50000   0.12708   0.90387   0.00000  Uiso   1.00
O1279  O     0.50000   0.20625   0.90387   0.00000  Uiso   1.00
O1280  O     0.50000   0.12708   0.76280   0.00000  Uiso   1.00
C1281  C     0.75486   0.16669   0.83769   0.00000  Uiso   1.00
C1282  C     0.68776   0.20677   0.84063   0.00000  Uiso   1.00
C1283  C     0.95760   0.16509   0.83426   0.00000  Uiso   1.00
C1284  C     0.71046   0.16637   0.84449   0.00000  Uiso   1.00
C1285  C     0.82540   0.02363   0.78983   0.00000  Uiso   1.00
C1286  C     0.84851   0.30873   0.87470   0.00000  Uiso   1.00
C1287  C     0.84137   0.02352   0.87682   0.00000  Uiso   1.00
C1288  C     0.81839   0.30888   0.79177   0.00000  Uiso   1.00
C1289  C     0.71164   0.08441   0.86687   0.00000  Uiso   1.00
C1290  C     0.96051   0.24441   0.80203   0.00000  Uiso   1.00
C1291  C     0.96015   0.08186   0.85490   0.00000  Uiso   1.00
C1292  C     0.91234   0.16629   0.83266   0.00000  Uiso   1.00
C1293  C     0.70512   0.24904   0.85868   0.00000  Uiso   1.00
C1294  C     0.83004   0.04277   0.73785   0.00000  Uiso   1.00
C1295  C     0.78997   0.06473   0.71397   0.00000  Uiso   1.00
C1296  C     0.87108   0.28644   0.92120   0.00000  Uiso   1.00
C1297  C     0.91215   0.26386   0.91340   0.00000  Uiso   1.00
C1298  C     0.83638   0.04242   0.92894   0.00000  Uiso   1.00
C1299  C     0.87598   0.06406   0.95369   0.00000  Uiso   1.00
C1300  C     0.79722   0.28665   0.74440   0.00000  Uiso   1.00
C1301  C     0.75651   0.26312   0.75028   0.00000  Uiso   1.00
C1302  C     0.83344   0.16680   0.74070   0.00000  Uiso   1.00
C1303  C     0.83331   0.16680   0.92597   0.00000  Uiso   1.00
C1304  C     0.83346   0.16739   0.68871   0.00000  Uiso   1.00
C1305  C     0.83328   0.16738   0.97796   0.00000  Uiso   1.00
C1306  C     0.68960   0.12547   0.85148   0.00000  Uiso   1.00
C1307  C     0.97931   0.20534   0.82724   0.00000  Uiso   1.00
C1308  C     0.97998   0.12484   0.84730   0.00000  Uiso   1.00
Cu1309 Cu    0.83333   0.21355   0.83333   0.00000  Uiso   1.00
Cu1310 Cu    0.83333   0.11978   0.83333   0.00000  Uiso   1.00
H1311  H     0.76805   0.04098   0.69523   0.00000  Uiso   1.00
H1312  H     0.85060   0.26760   0.94422   0.00000  Uiso   1.00
H1313  H     0.89807   0.04021   0.97251   0.00000  Uiso   1.00
H1314  H     0.89295   0.08281   0.92616   0.00000  Uiso   1.00
H1315  H     0.86780   0.08715   0.98367   0.00000  Uiso   1.00
H1316  H     0.80841   0.06351   0.92854   0.00000  Uiso   1.00
H1317  H     0.82608   0.01608   0.95448   0.00000  Uiso   1.00
H1318  H     0.73375   0.27138   0.71860   0.00000  Uiso   1.00
H1319  H     0.75991   0.22611   0.74900   0.00000  Uiso   1.00
H1320  H     0.74324   0.27511   0.78436   0.00000  Uiso   1.00
H1321  H     0.78724   0.31121   0.71623   0.00000  Uiso   1.00
H1322  H     0.77301   0.08294   0.74220   0.00000  Uiso   1.00
H1323  H     0.81889   0.26857   0.72191   0.00000  Uiso   1.00
H1324  H     0.79748   0.08824   0.68413   0.00000  Uiso   1.00
H1325  H     0.85802   0.06342   0.73822   0.00000  Uiso   1.00
H1326  H     0.84050   0.01676   0.71190   0.00000  Uiso   1.00
H1327  H     0.90991   0.22687   0.91727   0.00000  Uiso   1.00
H1328  H     0.92314   0.27434   0.87732   0.00000  Uiso   1.00
H1329  H     0.93612   0.27423   0.94271   0.00000  Uiso   1.00
H1330  H     0.88072   0.31083   0.94951   0.00000  Uiso   1.00
N1331  N     0.83333   0.28402   0.83333   0.00000  Uiso   1.00
N1332  N     0.83333   0.04931   0.83333   0.00000  Uiso   1.00
N1333  N     0.72907   0.05174   0.87922   0.00000  Uiso   1.00
N1334  N     0.94571   0.27553   0.78166   0.00000  Uiso   1.00
N1335  N     0.94482   0.04740   0.86077   0.00000  Uiso   1.00
N1336  N     0.71875   0.28266   0.87385   0.00000  Uiso   1.00
O1337  O     0.77321   0.20625   0.83333   0.00000  Uiso   1.00
O1338  O     0.89345   0.12709   0.83334   0.00000  Uiso   1.00
O1339  O     0.89345   0.20625   0.83334   0.00000  Uiso   1.00
O1340  O     0.77321   0.12709   0.83333   0.00000  Uiso   1.00
O1341  O     0.83333   0.20625   0.76280   0.00000  Uiso   1.00
O1342  O     0.83333   0.12708   0.90387   0.00000  Uiso   1.00
O1343  O     0.83333   0.20625   0.90387   0.00000  Uiso   1.00
O1344  O     0.83333   0.12708   0.76280   0.00000  Uiso   1.00
C1345  C     0.08819   0.50002   0.83769   0.00000  Uiso   1.00
C1346  C     0.02110   0.54011   0.84063   0.00000  Uiso   1.00
C1347  C     0.29093   0.49843   0.83426   0.00000  Uiso   1.00
C1348  C     0.04379   0.49970   0.84449   0.00000  Uiso   1.00
C1349  C     0.15874   0.35696   0.78983   0.00000  Uiso   1.00
C1350  C     0.18184   0.64207   0.87470   0.00000  Uiso   1.00
C1351  C     0.17471   0.35685   0.87682   0.00000  Uiso   1.00
C1352  C     0.15173   0.64221   0.79177   0.00000  Uiso   1.00
C1353  C     0.04497   0.41774   0.86687   0.00000  Uiso   1.00
C1354  C     0.29384   0.57775   0.80203   0.00000  Uiso   1.00
C1355  C     0.29348   0.41519   0.85490   0.00000  Uiso   1.00
C1356  C     0.24568   0.49962   0.83266   0.00000  Uiso   1.00
C1357  C     0.03846   0.58238   0.85868   0.00000  Uiso   1.00
C1358  C     0.16337   0.37611   0.73785   0.00000  Uiso   1.00
C1359  C     0.12331   0.39807   0.71397   0.00000  Uiso   1.00
C1360  C     0.20441   0.61977   0.92120   0.00000  Uiso   1.00
C1361  C     0.24549   0.59719   0.91340   0.00000  Uiso   1.00
C1362  C     0.16971   0.37575   0.92894   0.00000  Uiso   1.00
C1363  C     0.20931   0.39739   0.95369   0.00000  Uiso   1.00
C1364  C     0.13055   0.61998   0.74440   0.00000  Uiso   1.00
C1365  C     0.08984   0.59646   0.75028   0.00000  Uiso   1.00
C1366  C     0.16677   0.50013   0.74070   0.00000  Uiso   1.00
C1367  C     0.16664   0.50013   0.92597   0.00000  Uiso   1.00
C1368  C     0.16680   0.50072   0.68871   0.00000  Uiso   1.00
C1369  C     0.16661   0.50071   0.97796   0.00000  Uiso   1.00
C1370  C     0.02294   0.45880   0.85148   0.00000  Uiso   1.00
C1371  C     0.31264   0.53867   0.82724   0.00000  Uiso   1.00
C1372  C     0.31331   0.45818   0.84730   0.00000  Uiso   1.00
Cu1373 Cu    0.16667   0.54689   0.83333   0.00000  Uiso   1.00
Cu1374 Cu    0.16667   0.45311   0.83333   0.00000  Uiso   1.00
H1375  H     0.10138   0.37432   0.69523   0.00000  Uiso   1.00
H1376  H     0.18393   0.60093   0.94422   0.00000  Uiso   1.00
H1377  H     0.23140   0.37354   0.97251   0.00000  Uiso   1.00
H1378  H     0.22629   0.41615   0.92616   0.00000  Uiso   1.00
H1379  H     0.20113   0.42048   0.98367   0.00000  Uiso   1.00
H1380  H     0.14175   0.39684   0.92854   0.00000  Uiso   1.00
H1381  H     0.15941   0.34942   0.95448   0.00000  Uiso   1.00
H1382  H     0.06709   0.60472   0.71860   0.00000  Uiso   1.00
H1383  H     0.09325   0.55944   0.74900   0.00000  Uiso   1.00
H1384  H     0.07657   0.60844   0.78436   0.00000  Uiso   1.00
H1385  H     0.12058   0.64455   0.71623   0.00000  Uiso   1.00
H1386  H     0.10634   0.41628   0.74220   0.00000  Uiso   1.00
H1387  H     0.15223   0.60190   0.72191   0.00000  Uiso   1.00
H1388  H     0.13081   0.42158   0.68413   0.00000  Uiso   1.00
H1389  H     0.19135   0.39675   0.73822   0.00000  Uiso   1.00
H1390  H     0.17384   0.35010   0.71190   0.00000  Uiso   1.00
H1391  H     0.24324   0.56020   0.91727   0.00000  Uiso   1.00
H1392  H     0.25648   0.60767   0.87732   0.00000  Uiso   1.00
H1393  H     0.26945   0.60756   0.94271   0.00000  Uiso   1.00
H1394  H     0.21405   0.64417   0.94951   0.00000  Uiso   1.00
N1395  N     0.16667   0.61736   0.83333   0.00000  Uiso   1.00
N1396  N     0.16667   0.38264   0.83333   0.00000  Uiso   1.00
N1397  N     0.06240   0.38507   0.87922   0.00000  Uiso   1.00
N1398  N     0.27904   0.60886   0.78166   0.00000  Uiso   1.00
N1399  N     0.27815   0.38074   0.86077   0.00000  Uiso   1.00
N1400  N     0.05208   0.61599   0.87385   0.00000  Uiso   1.00
O1401  O     0.10655   0.53958   0.83333   0.00000  Uiso   1.00
O1402  O     0.22679   0.46042   0.83334   0.00000  Uiso   1.00
O1403  O     0.22679   0.53958   0.83334   0.00000  Uiso   1.00
O1404  O     0.10655   0.46042   0.83333   0.00000  Uiso   1.00
O1405  O     0.16667   0.53959   0.76280   0.00000  Uiso   1.00
O1406  O     0.16667   0.46041   0.90387   0.00000  Uiso   1.00
O1407  O     0.16667   0.53959   0.90387   0.00000  Uiso   1.00
O1408  O     0.16667   0.46041   0.76280   0.00000  Uiso   1.00
C1409  C     0.42152   0.50002   0.83769   0.00000  Uiso   1.00
C1410  C     0.35443   0.54011   0.84063   0.00000  Uiso   1.00
C1411  C     0.62426   0.49843   0.83426   0.00000  Uiso   1.00
C1412  C     0.37713   0.49970   0.84449   0.00000  Uiso   1.00
C1413  C     0.49207   0.35696   0.78983   0.00000  Uiso   1.00
C1414  C     0.51517   0.64207   0.87470   0.00000  Uiso   1.00
C1415  C     0.50804   0.35685   0.87682   0.00000  Uiso   1.00
C1416  C     0.48506   0.64221   0.79177   0.00000  Uiso   1.00
C1417  C     0.37831   0.41774   0.86687   0.00000  Uiso   1.00
C1418  C     0.62717   0.57775   0.80203   0.00000  Uiso   1.00
C1419  C     0.62682   0.41519   0.85490   0.00000  Uiso   1.00
C1420  C     0.57901   0.49962   0.83266   0.00000  Uiso   1.00
C1421  C     0.37179   0.58238   0.85868   0.00000  Uiso   1.00
C1422  C     0.49671   0.37611   0.73785   0.00000  Uiso   1.00
C1423  C     0.45664   0.39807   0.71397   0.00000  Uiso   1.00
C1424  C     0.53775   0.61977   0.92120   0.00000  Uiso   1.00
C1425  C     0.57882   0.59719   0.91340   0.00000  Uiso   1.00
C1426  C     0.50304   0.37575   0.92894   0.00000  Uiso   1.00
C1427  C     0.54264   0.39739   0.95369   0.00000  Uiso   1.00
C1428  C     0.46388   0.61998   0.74440   0.00000  Uiso   1.00
C1429  C     0.42318   0.59646   0.75028   0.00000  Uiso   1.00
C1430  C     0.50011   0.50013   0.74070   0.00000  Uiso   1.00
C1431  C     0.49997   0.50013   0.92597   0.00000  Uiso   1.00
C1432  C     0.50013   0.50072   0.68871   0.00000  Uiso   1.00
C1433  C     0.49995   0.50071   0.97796   0.00000  Uiso   1.00
C1434  C     0.35627   0.45880   0.85148   0.00000  Uiso   1.00
C1435  C     0.64597   0.53867   0.82724   0.00000  Uiso   1.00
C1436  C     0.64665   0.45818   0.84730   0.00000  Uiso   1.00
Cu1437 Cu    0.50000   0.54689   0.83333   0.00000  Uiso   1.00
Cu1438 Cu    0.50000   0.45311   0.83333   0.00000  Uiso   1.00
H1439  H     0.43472   0.37432   0.69523   0.00000  Uiso   1.00
H1440  H     0.51727   0.60093   0.94422   0.00000  Uiso   1.00
H1441  H     0.56473   0.37354   0.97251   0.00000  Uiso   1.00
H1442  H     0.55962   0.41615   0.92616   0.00000  Uiso   1.00
H1443  H     0.53446   0.42048   0.98367   0.00000  Uiso   1.00
H1444  H     0.47508   0.39684   0.92854   0.00000  Uiso   1.00
H1445  H     0.49275   0.34942   0.95448   0.00000  Uiso   1.00
H1446  H     0.40042   0.60472   0.71860   0.00000  Uiso   1.00
H1447  H     0.42658   0.55944   0.74900   0.00000  Uiso   1.00
H1448  H     0.40991   0.60844   0.78436   0.00000  Uiso   1.00
H1449  H     0.45391   0.64455   0.71623   0.00000  Uiso   1.00
H1450  H     0.43967   0.41628   0.74220   0.00000  Uiso   1.00
H1451  H     0.48556   0.60190   0.72191   0.00000  Uiso   1.00
H1452  H     0.46414   0.42158   0.68413   0.00000  Uiso   1.00
H1453  H     0.52468   0.39675   0.73822   0.00000  Uiso   1.00
H1454  H     0.50717   0.35010   0.71190   0.00000  Uiso   1.00
H1455  H     0.57657   0.56020   0.91727   0.00000  Uiso   1.00
H1456  H     0.58981   0.60767   0.87732   0.00000  Uiso   1.00
H1457  H     0.60279   0.60756   0.94271   0.00000  Uiso   1.00
H1458  H     0.54738   0.64417   0.94951   0.00000  Uiso   1.00
N1459  N     0.50000   0.61736   0.83333   0.00000  Uiso   1.00
N1460  N     0.50000   0.38264   0.83333   0.00000  Uiso   1.00
N1461  N     0.39573   0.38507   0.87922   0.00000  Uiso   1.00
N1462  N     0.61238   0.60886   0.78166   0.00000  Uiso   1.00
N1463  N     0.61149   0.38074   0.86077   0.00000  Uiso   1.00
N1464  N     0.38542   0.61599   0.87385   0.00000  Uiso   1.00
O1465  O     0.43988   0.53958   0.83333   0.00000  Uiso   1.00
O1466  O     0.56012   0.46042   0.83334   0.00000  Uiso   1.00
O1467  O     0.56012   0.53958   0.83334   0.00000  Uiso   1.00
O1468  O     0.43988   0.46042   0.83333   0.00000  Uiso   1.00
O1469  O     0.50000   0.53959   0.76280   0.00000  Uiso   1.00
O1470  O     0.50000   0.46041   0.90387   0.00000  Uiso   1.00
O1471  O     0.50000   0.53959   0.90387   0.00000  Uiso   1.00
O1472  O     0.50000   0.46041   0.76280   0.00000  Uiso   1.00
C1473  C     0.75486   0.50002   0.83769   0.00000  Uiso   1.00
C1474  C     0.68776   0.54011   0.84063   0.00000  Uiso   1.00
C1475  C     0.95760   0.49843   0.83426   0.00000  Uiso   1.00
C1476  C     0.71046   0.49970   0.84449   0.00000  Uiso   1.00
C1477  C     0.82540   0.35696   0.78983   0.00000  Uiso   1.00
C1478  C     0.84851   0.64207   0.87470   0.00000  Uiso   1.00
C1479  C     0.84137   0.35685   0.87682   0.00000  Uiso   1.00
C1480  C     0.81839   0.64221   0.79177   0.00000  Uiso   1.00
C1481  C     0.71164   0.41774   0.86687   0.00000  Uiso   1.00
C1482  C     0.96051   0.57775   0.80203   0.00000  Uiso   1.00
C1483  C     0.96015   0.41519   0.85490   0.00000  Uiso   1.00
C1484  C     0.91234   0.49962   0.83266   0.00000  Uiso   1.00
C1485  C     0.70512   0.58238   0.85868   0.00000  Uiso   1.00
C1486  C     0.83004   0.37611   0.73785   0.00000  Uiso   1.00
C1487  C     0.78997   0.39807   0.71397   0.00000  Uiso   1.00
C1488  C     0.87108   0.61977   0.92120   0.00000  Uiso   1.00
C1489  C     0.91215   0.59719   0.91340   0.00000  Uiso   1.00
C1490  C     0.83638   0.37575   0.92894   0.00000  Uiso   1.00
C1491  C     0.87598   0.39739   0.95369   0.00000  Uiso   1.00
C1492  C     0.79722   0.61998   0.74440   0.00000  Uiso   1.00
C1493  C     0.75651   0.59646   0.75028   0.00000  Uiso   1.00
C1494  C     0.83344   0.50013   0.74070   0.00000  Uiso   1.00
C1495  C     0.83331   0.50013   0.92597   0.00000  Uiso   1.00
C1496  C     0.83346   0.50072   0.68871   0.00000  Uiso   1.00
C1497  C     0.83328   0.50071   0.97796   0.00000  Uiso   1.00
C1498  C     0.68960   0.45880   0.85148   0.00000  Uiso   1.00
C1499  C     0.97931   0.53867   0.82724   0.00000  Uiso   1.00
C1500  C     0.97998   0.45818   0.84730   0.00000  Uiso   1.00
Cu1501 Cu    0.83333   0.54689   0.83333   0.00000  Uiso   1.00
Cu1502 Cu    0.83333   0.45311   0.83333   0.00000  Uiso   1.00
H1503  H     0.76805   0.37432   0.69523   0.00000  Uiso   1.00
H1504  H     0.85060   0.60093   0.94422   0.00000  Uiso   1.00
H1505  H     0.89807   0.37354   0.97251   0.00000  Uiso   1.00
H1506  H     0.89295   0.41615   0.92616   0.00000  Uiso   1.00
H1507  H     0.86780   0.42048   0.98367   0.00000  Uiso   1.00
H1508  H     0.80841   0.39684   0.92854   0.00000  Uiso   1.00
H1509  H     0.82608   0.34942   0.95448   0.00000  Uiso   1.00
H1510  H     0.73375   0.60472   0.71860   0.00000  Uiso   1.00
H1511  H     0.75991   0.55944   0.74900   0.00000  Uiso   1.00
H1512  H     0.74324   0.60844   0.78436   0.00000  Uiso   1.00
H1513  H     0.78724   0.64455   0.71623   0.00000  Uiso   1.00
H1514  H     0.77301   0.41628   0.74220   0.00000  Uiso   1.00
H1515  H     0.81889   0.60190   0.72191   0.00000  Uiso   1.00
H1516  H     0.79748   0.42158   0.68413   0.00000  Uiso   1.00
H1517  H     0.85802   0.39675   0.73822   0.00000  Uiso   1.00
H1518  H     0.84050   0.35010   0.71190   0.00000  Uiso   1.00
H1519  H     0.90991   0.56020   0.91727   0.00000  Uiso   1.00
H1520  H     0.92314   0.60767   0.87732   0.00000  Uiso   1.00
H1521  H     0.93612   0.60756   0.94271   0.00000  Uiso   1.00
H1522  H     0.88072   0.64417   0.94951   0.00000  Uiso   1.00
N1523  N     0.83333   0.61736   0.83333   0.00000  Uiso   1.00
N1524  N     0.83333   0.38264   0.83333   0.00000  Uiso   1.00
N1525  N     0.72907   0.38507   0.87922   0.00000  Uiso   1.00
N1526  N     0.94571   0.60886   0.78166   0.00000  Uiso   1.00
N1527  N     0.94482   0.38074   0.86077   0.00000  Uiso   1.00
N1528  N     0.71875   0.61599   0.87385   0.00000  Uiso   1.00
O1529  O     0.77321   0.53958   0.83333   0.00000  Uiso   1.00
O1530  O     0.89345   0.46042   0.83334   0.00000  Uiso   1.00
O1531  O     0.89345   0.53958   0.83334   0.00000  Uiso   1.00
O1532  O     0.77321   0.46042   0.83333   0.00000  Uiso   1.00
O1533  O     0.83333   0.53959   0.76280   0.00000  Uiso   1.00
O1534  O     0.83333   0.46041   0.90387   0.00000  Uiso   1.00
O1535  O     0.83333   0.53959   0.90387   0.00000  Uiso   1.00
O1536  O     0.83333   0.46041   0.76280   0.00000  Uiso   1.00
C1537  C     0.08819   0.83336   0.83769   0.00000  Uiso   1.00
C1538  C     0.02110   0.87344   0.84063   0.00000  Uiso   1.00
C1539  C     0.29093   0.83176   0.83426   0.00000  Uiso   1.00
C1540  C     0.04379   0.83304   0.84449   0.00000  Uiso   1.00
C1541  C     0.15874   0.69030   0.78983   0.00000  Uiso   1.00
C1542  C     0.18184   0.97540   0.87470   0.00000  Uiso   1.00
C1543  C     0.17471   0.69019   0.87682   0.00000  Uiso   1.00
C1544  C     0.15173   0.97554   0.79177   0.00000  Uiso   1.00
C1545  C     0.04497   0.75107   0.86687   0.00000  Uiso   1.00
C1546  C     0.29384   0.91108   0.80203   0.00000  Uiso   1.00
C1547  C     0.29348   0.74853   0.85490   0.00000  Uiso   1.00
C1548  C     0.24568   0.83296   0.83266   0.00000  Uiso   1.00
C1549  C     0.03846   0.91571   0.85868   0.00000  Uiso   1.00
C1550  C     0.16337   0.70944   0.73785   0.00000  Uiso   1.00
C1551  C     0.12331   0.73140   0.71397   0.00000  Uiso   1.00
C1552  C     0.20441   0.95311   0.92120   0.00000  Uiso   1.00
C1553  C     0.24549   0.93052   0.91340   0.00000  Uiso   1.00
C1554  C     0.16971   0.70909   0.92894   0.00000  Uiso   1.00
C1555  C     0.20931   0.73073   0.95369   0.00000  Uiso   1.00
C1556  C     0.13055   0.95332   0.74440   0.00000  Uiso   1.00
C1557  C     0.08984   0.92979   0.75028   0.00000  Uiso   1.00
C1558  C     0.16677   0.83347   0.74070   0.00000  Uiso   1.00
C1559  C     0.16664   0.83346   0.92597   0.00000  Uiso   1.00
C1560  C     0.16680   0.83405   0.68871   0.00000  Uiso   1.00
C1561  C     0.16661   0.83405   0.97796   0.00000  Uiso   1.00
C1562  C     0.02294   0.79213   0.85148   0.00000  Uiso   1.00
C1563  C     0.31264   0.87200   0.82724   0.00000  Uiso   1.00
C1564  C     0.31331   0.79151   0.84730   0.00000  Uiso   1.00
Cu1565 Cu    0.16667   0.88022   0.83333   0.00000  Uiso   1.00
Cu1566 Cu    0.16667   0.78645   0.83333   0.00000  Uiso   1.00
H1567  H     0.10138   0.70765   0.69523   0.00000  Uiso   1.00
H1568  H     0.18393   0.93426   0.94422   0.00000  Uiso   1.00
H1569  H     0.23140   0.70687   0.97251   0.00000  Uiso   1.00
H1570  H     0.22629   0.74948   0.92616   0.00000  Uiso   1.00
H1571  H     0.20113   0.75382   0.98367   0.00000  Uiso   1.00
H1572  H     0.14175   0.73017   0.92854   0.00000  Uiso   1.00
H1573  H     0.15941   0.68275   0.95448   0.00000  Uiso   1.00
H1574  H     0.06709   0.93805   0.71860   0.00000  Uiso   1.00
H1575  H     0.09325   0.89278   0.74900   0.00000  Uiso   1.00
H1576  H     0.07657   0.94177   0.78436   0.00000  Uiso   1.00
H1577  H     0.12058   0.97788   0.71623   0.00000  Uiso   1.00
H1578  H     0.10634   0.74961   0.74220   0.00000  Uiso   1.00
H1579  H     0.15223   0.93524   0.72191   0.00000  Uiso   1.00
H1580  H     0.13081   0.75491   0.68413   0.00000  Uiso   1.00
H1581  H     0.19135   0.73008   0.73822   0.00000  Uiso   1.00
H1582  H     0.17384   0.68343   0.71190   0.00000  Uiso   1.00
H1583  H     0.24324   0.89353   0.91727   0.00000  Uiso   1.00
H1584  H     0.25648   0.94101   0.87732   0.00000  Uiso   1.00
H1585  H     0.26945   0.94090   0.94271   0.00000  Uiso   1.00
H1586  H     0.21405   0.97750   0.94951   0.00000  Uiso   1.00
N1587  N     0.16667   0.95069   0.83333   0.00000  Uiso   1.00
N1588  N     0.16667   0.71598   0.83333   0.00000  Uiso   1.00
N1589  N     0.06240   0.71840   0.87922   0.00000  Uiso   1.00
N1590  N     0.27904   0.94220   0.78166   0.00000  Uiso   1.00
N1591  N     0.27815   0.71407   0.86077   0.00000  Uiso   1.00
N1592  N     0.05208   0.94933   0.87385   0.00000  Uiso   1.00
O1593  O     0.10655   0.87291   0.83333   0.00000  Uiso   1.00
O1594  O     0.22679   0.79375   0.83334   0.00000  Uiso   1.00
O1595  O     0.22679   0.87291   0.83334   0.00000  Uiso   1.00
O1596  O     0.10655   0.79375   0.83333   0.00000  Uiso   1.00
O1597  O     0.16667   0.87292   0.76280   0.00000  Uiso   1.00
O1598  O     0.16667   0.79375   0.90387   0.00000  Uiso   1.00
O1599  O     0.16667   0.87292   0.90387   0.00000  Uiso   1.00
O1600  O     0.16667   0.79375   0.76280   0.00000  Uiso   1.00
C1601  C     0.42152   0.83336   0.83769   0.00000  Uiso   1.00
C1602  C     0.35443   0.87344   0.84063   0.00000  Uiso   1.00
C1603  C     0.62426   0.83176   0.83426   0.00000  Uiso   1.00
C1604  C     0.37713   0.83304   0.84449   0.00000  Uiso   1.00
C1605  C     0.49207   0.69030   0.78983   0.00000  Uiso   1.00
C1606  C     0.51517   0.97540   0.87470   0.00000  Uiso   1.00
C1607  C     0.50804   0.69019   0.87682   0.00000  Uiso   1.00
C1608  C     0.48506   0.97554   0.79177   0.00000  Uiso   1.00
C1609  C     0.37831   0.75107   0.86687   0.00000  Uiso   1.00
C1610  C     0.62717   0.91108   0.80203   0.00000  Uiso   1.00
C1611  C     0.62682   0.74853   0.85490   0.00000  Uiso   1.00
C1612  C     0.57901   0.83296   0.83266   0.00000  Uiso   1.00
C1613  C     0.37179   0.91571   0.85868   0.00000  Uiso   1.00
C1614  C     0.49671   0.70944   0.73785   0.00000  Uiso   1.00
C1615  C     0.45664   0.73140   0.71397   0.00000  Uiso   1.00
C1616  C     0.53775   0.95311   0.92120   0.00000  Uiso   1.00
C1617  C     0.57882   0.93052   0.91340   0.00000  Uiso   1.00
C1618  C     0.50304   0.70909   0.92894   0.00000  Uiso   1.00
C1619  C     0.54264   0.73073   0.95369   0.00000  Uiso   1.00
C1620  C     0.46388   0.95332   0.74440   0.00000  Uiso   1.00
C1621  C     0.42318   0.92979   0.75028   0.00000  Uiso   1.00
C1622  C     0.50011   0.83347   0.74070   0.00000  Uiso   1.00
C1623  C     0.49997   0.83346   0.92597   0.00000  Uiso   1.00
C1624  C     0.50013   0.83405   0.68871   0.00000  Uiso   1.00
C1625  C     0.49995   0.83405   0.97796   0.00000  Uiso   1.00
C1626  C     0.35627   0.79213   0.85148   0.00000  Uiso   1.00
C1627  C     0.64597   0.87200   0.82724   0.00000  Uiso   1.00
C1628  C     0.64665   0.79151   0.84730   0.00000  Uiso   1.00
Cu1629 Cu    0.50000   0.88022   0.83333   0.00000  Uiso   1.00
Cu1630 Cu    0.50000   0.78645   0.83333   0.00000  Uiso   1.00
H1631  H     0.43472   0.70765   0.69523   0.00000  Uiso   1.00
H1632  H     0.51727   0.93426   0.94422   0.00000  Uiso   1.00
H1633  H     0.56473   0.70687   0.97251   0.00000  Uiso   1.00
H1634  H     0.55962   0.74948   0.92616   0.00000  Uiso   1.00
H1635  H     0.53446   0.75382   0.98367   0.00000  Uiso   1.00
H1636  H     0.47508   0.73017   0.92854   0.00000  Uiso   1.00
H1637  H     0.49275   0.68275   0.95448   0.00000  Uiso   1.00
H1638  H     0.40042   0.93805   0.71860   0.00000  Uiso   1.00
H1639  H     0.42658   0.89278   0.74900   0.00000  Uiso   1.00
H1640  H     0.40991   0.94177   0.78436   0.00000  Uiso   1.00
H1641  H     0.45391   0.97788   0.71623   0.00000  Uiso   1.00
H1642  H     0.43967   0.74961   0.74220   0.00000  Uiso   1.00
H1643  H     0.48556   0.93524   0.72191   0.00000  Uiso   1.00
H1644  H     0.46414   0.75491   0.68413   0.00000  Uiso   1.00
H1645  H     0.52468   0.73008   0.73822   0.00000  Uiso   1.00
H1646  H     0.50717   0.68343   0.71190   0.00000  Uiso   1.00
H1647  H     0.57657   0.89353   0.91727   0.00000  Uiso   1.00
H1648  H     0.58981   0.94101   0.87732   0.00000  Uiso   1.00
H1649  H     0.60279   0.94090   0.94271   0.00000  Uiso   1.00
H1650  H     0.54738   0.97750   0.94951   0.00000  Uiso   1.00
N1651  N     0.50000   0.95069   0.83333   0.00000  Uiso   1.00
N1652  N     0.50000   0.71598   0.83333   0.00000  Uiso   1.00
N1653  N     0.39573   0.71840   0.87922   0.00000  Uiso   1.00
N1654  N     0.61238   0.94220   0.78166   0.00000  Uiso   1.00
N1655  N     0.61149   0.71407   0.86077   0.00000  Uiso   1.00
N1656  N     0.38542   0.94933   0.87385   0.00000  Uiso   1.00
O1657  O     0.43988   0.87291   0.83333   0.00000  Uiso   1.00
O1658  O     0.56012   0.79375   0.83334   0.00000  Uiso   1.00
O1659  O     0.56012   0.87291   0.83334   0.00000  Uiso   1.00
O1660  O     0.43988   0.79375   0.83333   0.00000  Uiso   1.00
O1661  O     0.50000   0.87292   0.76280   0.00000  Uiso   1.00
O1662  O     0.50000   0.79375   0.90387   0.00000  Uiso   1.00
O1663  O     0.50000   0.87292   0.90387   0.00000  Uiso   1.00
O1664  O     0.50000   0.79375   0.76280   0.00000  Uiso   1.00
C1665  C     0.75486   0.83336   0.83769   0.00000  Uiso   1.00
C1666  C     0.68776   0.87344   0.84063   0.00000  Uiso   1.00
C1667  C     0.95760   0.83176   0.83426   0.00000  Uiso   1.00
C1668  C     0.71046   0.83304   0.84449   0.00000  Uiso   1.00
C1669  C     0.82540   0.69030   0.78983   0.00000  Uiso   1.00
C1670  C     0.84851   0.97540   0.87470   0.00000  Uiso   1.00
C1671  C     0.84137   0.69019   0.87682   0.00000  Uiso   1.00
C1672  C     0.81839   0.97554   0.79177   0.00000  Uiso   1.00
C1673  C     0.71164   0.75107   0.86687   0.00000  Uiso   1.00
C1674  C     0.96051   0.91108   0.80203   0.00000  Uiso   1.00
C1675  C     0.96015   0.74853   0.85490   0.00000  Uiso   1.00
C1676  C     0.91234   0.83296   0.83266   0.00000  Uiso   1.00
C1677  C     0.70512   0.91571   0.85868   0.00000  Uiso   1.00
C1678  C     0.83004   0.70944   0.73785   0.00000  Uiso   1.00
C1679  C     0.78997   0.73140   0.71397   0.00000  Uiso   1.00
C1680  C     0.87108   0.95311   0.92120   0.00000  Uiso   1.00
C1681  C     0.91215   0.93052   0.91340   0.00000  Uiso   1.00
C1682  C     0.83638   0.70909   0.92894   0.00000  Uiso   1.00
C1683  C     0.87598   0.73073   0.95369   0.00000  Uiso   1.00
C1684  C     0.79722   0.95332   0.74440   0.00000  Uiso   1.00
C1685  C     0.75651   0.92979   0.75028   0.00000  Uiso   1.00
C1686  C     0.83344   0.83347   0.74070   0.00000  Uiso   1.00
C1687  C     0.83331   0.83346   0.92597   0.00000  Uiso   1.00
C1688  C     0.83346   0.83405   0.68871   0.00000  Uiso   1.00
C1689  C     0.83328   0.83405   0.97796   0.00000  Uiso   1.00
C1690  C     0.68960   0.79213   0.85148   0.00000  Uiso   1.00
C1691  C     0.97931   0.87200   0.82724   0.00000  Uiso   1.00
C1692  C     0.97998   0.79151   0.84730   0.00000  Uiso   1.00
Cu1693 Cu    0.83333   0.88022   0.83333   0.00000  Uiso   1.00
Cu1694 Cu    0.83333   0.78645   0.83333   0.00000  Uiso   1.00
H1695  H     0.76805   0.70765   0.69523   0.00000  Uiso   1.00
H1696  H     0.85060   0.93426   0.94422   0.00000  Uiso   1.00
H1697  H     0.89807   0.70687   0.97251   0.00000  Uiso   1.00
H1698  H     0.89295   0.74948   0.92616   0.00000  Uiso   1.00
H1699  H     0.86780   0.75382   0.98367   0.00000  Uiso   1.00
H1700  H     0.80841   0.73017   0.92854   0.00000  Uiso   1.00
H1701  H     0.82608   0.68275   0.95448   0.00000  Uiso   1.00
H1702  H     0.73375   0.93805   0.71860   0.00000  Uiso   1.00
H1703  H     0.75991   0.89278   0.74900   0.00000  Uiso   1.00
H1704  H     0.74324   0.94177   0.78436   0.00000  Uiso   1.00
H1705  H     0.78724   0.97788   0.71623   0.00000  Uiso   1.00
H1706  H     0.77301   0.74961   0.74220   0.00000  Uiso   1.00
H1707  H     0.81889   0.93524   0.72191   0.00000  Uiso   1.00
H1708  H     0.79748   0.75491   0.68413   0.00000  Uiso   1.00
H1709  H     0.85802   0.73008   0.73822   0.00000  Uiso   1.00
H1710  H     0.84050   0.68343   0.71190   0.00000  Uiso   1.00
H1711  H     0.90991   0.89353   0.91727   0.00000  Uiso   1.00
H1712  H     0.92314   0.94101   0.87732   0.00000  Uiso   1.00
H1713  H     0.93612   0.94090   0.94271   0.00000  Uiso   1.00
H1714  H     0.88072   0.97750   0.94951   0.00000  Uiso   1.00
N1715  N     0.83333   0.95069   0.83333   0.00000  Uiso   1.00
N1716  N     0.83333   0.71598   0.83333   0.00000  Uiso   1.00
N1717  N     0.72907   0.71840   0.87922   0.00000  Uiso   1.00
N1718  N     0.94571   0.94220   0.78166   0.00000  Uiso   1.00
N1719  N     0.94482   0.71407   0.86077   0.00000  Uiso   1.00
N1720  N     0.71875   0.94933   0.87385   0.00000  Uiso   1.00
O1721  O     0.77321   0.87291   0.83333   0.00000  Uiso   1.00
O1722  O     0.89345   0.79375   0.83334   0.00000  Uiso   1.00
O1723  O     0.89345   0.87291   0.83334   0.00000  Uiso   1.00
O1724  O     0.77321   0.79375   0.83333   0.00000  Uiso   1.00
O1725  O     0.83333   0.87292   0.76280   0.00000  Uiso   1.00
O1726  O     0.83333   0.79375   0.90387   0.00000  Uiso   1.00
O1727  O     0.83333   0.87292   0.90387   0.00000  Uiso   1.00
O1728  O     0.83333   0.79375   0.76280   0.00000  Uiso   1.00
loop_
_geom_bond_atom_site_label_1
_geom_bond_atom_site_label_2
_geom_bond_distance
_geom_bond_site_symmetry_2
_ccdc_geom_bond_type
C1     O57     1.331   .     A
C1     C4      1.477   .     S
C1     O60     1.325   .     A
C2     C4      1.406   .     A
C2     C13     1.449   .     S
C2     C155    1.388   1_455 S
C3     C27     1.413   .     A
C3     C28     1.427   .     A
C3     C12     1.478   .     S
C4     C26     1.416   .     A
C5     N52     1.403   .     A
C5     C14     1.524   .     S
C5     C392    1.449   1_545 S
C6     N51     1.393   .     A
C6     C16     1.548   .     S
C6     C199    1.447   .     S
C7     N52     1.403   .     A
C7     C18     1.526   .     S
C7     C390    1.447   1_545 S
C8     N51     1.393   .     A
C8     C20     1.551   .     S
C8     C197    1.449   .     S
C9     C26     1.456   .     S
C9     N53     1.157   .     T
C10    C27     1.452   .     S
C10    N54     1.158   .     T
C11    C28     1.456   .     S
C11    N55     1.158   .     T
C12    O58     1.322   .     A
C12    O59     1.334   .     A
C13    N56     1.157   .     T
C14    H46     1.109   .     S
C14    H45     1.104   .     S
C14    C15     1.554   .     S
C15    H31     1.103   .     S
C15    H44     1.104   .     S
C15    H42     1.110   .     S
C16    H32     1.099   .     S
C16    H50     1.081   .     S
C16    C17     1.525   .     S
C17    H48     1.103   .     S
C17    H47     1.106   .     S
C17    H49     1.113   .     S
C18    H37     1.110   .     S
C18    C19     1.554   .     S
C18    H36     1.104   .     S
C19    H35     1.104   .     S
C19    H33     1.103   .     S
C19    H34     1.108   .     S
C20    H41     1.081   .     S
C20    H43     1.101   .     S
C20    C21     1.526   .     S
C21    H39     1.104   .     S
C21    H40     1.099   .     S
C21    H38     1.114   .     S
C22    O61     1.313   .     A
C22    C24     1.395   .     S
C22    O64     1.320   .     A
C23    O63     1.313   .     A
C23    C25     1.395   .     S
C23    O62     1.320   .     A
C24    C1177   1.182   1_554 S
C25    C600    1.182   .     S
C26    C156    1.401   1_455 S
C27    C66     1.388   .     S
C28    C90     1.401   .     S
Cu29   O63     1.905   .     S
Cu29   O61     1.905   .     S
Cu29   O57     1.979   .     S
Cu29   N51     2.092   .     S
Cu29   O59     1.976   .     S
Cu30   O64     1.905   .     S
Cu30   O58     1.979   .     S
Cu30   O62     1.905   .     S
Cu30   N52     2.092   .     S
Cu30   O60     1.976   .     S
C65    O121    1.331   .     A
C65    C68     1.477   .     S
C65    O124    1.325   .     A
C66    C68     1.406   .     A
C66    C77     1.449   .     S
C67    C91     1.413   .     A
C67    C92     1.427   .     A
C67    C76     1.478   .     S
C68    C90     1.416   .     A
C69    N116    1.403   .     A
C69    C78     1.524   .     S
C69    C456    1.449   1_545 S
C70    N115    1.393   .     A
C70    C80     1.548   .     S
C70    C263    1.447   .     S
C71    N116    1.403   .     A
C71    C82     1.526   .     S
C71    C454    1.447   1_545 S
C72    N115    1.393   .     A
C72    C84     1.551   .     S
C72    C261    1.449   .     S
C73    C90     1.456   .     S
C73    N117    1.157   .     T
C74    C91     1.452   .     S
C74    N118    1.158   .     T
C75    C92     1.456   .     S
C75    N119    1.158   .     T
C76    O122    1.322   .     A
C76    O123    1.334   .     A
C77    N120    1.157   .     T
C78    H110    1.109   .     S
C78    H109    1.104   .     S
C78    C79     1.554   .     S
C79    H95     1.103   .     S
C79    H108    1.104   .     S
C79    H106    1.110   .     S
C80    H96     1.099   .     S
C80    H114    1.081   .     S
C80    C81     1.525   .     S
C81    H112    1.103   .     S
C81    H111    1.106   .     S
C81    H113    1.113   .     S
C82    H101    1.110   .     S
C82    C83     1.554   .     S
C82    H100    1.104   .     S
C83    H99     1.104   .     S
C83    H97     1.103   .     S
C83    H98     1.108   .     S
C84    H105    1.081   .     S
C84    H107    1.101   .     S
C84    C85     1.526   .     S
C85    H103    1.104   .     S
C85    H104    1.099   .     S
C85    H102    1.114   .     S
C86    O125    1.313   .     A
C86    C88     1.395   .     S
C86    O128    1.320   .     A
C87    O127    1.313   .     A
C87    C89     1.395   .     S
C87    O126    1.320   .     A
C88    C1241   1.182   1_554 S
C89    C664    1.182   .     S
C91    C130    1.388   .     S
C92    C154    1.401   .     S
Cu93   O127    1.905   .     S
Cu93   O125    1.905   .     S
Cu93   O121    1.979   .     S
Cu93   N115    2.092   .     S
Cu93   O123    1.976   .     S
Cu94   O128    1.905   .     S
Cu94   O122    1.979   .     S
Cu94   O126    1.905   .     S
Cu94   N116    2.092   .     S
Cu94   O124    1.976   .     S
C129   O185    1.331   .     A
C129   C132    1.477   .     S
C129   O188    1.325   .     A
C130   C132    1.406   .     A
C130   C141    1.449   .     S
C131   C155    1.413   .     A
C131   C156    1.427   .     A
C131   C140    1.478   .     S
C132   C154    1.416   .     A
C133   N180    1.403   .     A
C133   C142    1.524   .     S
C133   C520    1.449   1_545 S
C134   N179    1.393   .     A
C134   C144    1.548   .     S
C134   C327    1.447   .     S
C135   N180    1.403   .     A
C135   C146    1.526   .     S
C135   C518    1.447   1_545 S
C136   N179    1.393   .     A
C136   C148    1.551   .     S
C136   C325    1.449   .     S
C137   C154    1.456   .     S
C137   N181    1.157   .     T
C138   C155    1.452   .     S
C138   N182    1.158   .     T
C139   C156    1.456   .     S
C139   N183    1.158   .     T
C140   O186    1.322   .     A
C140   O187    1.334   .     A
C141   N184    1.157   .     T
C142   H174    1.109   .     S
C142   H173    1.104   .     S
C142   C143    1.554   .     S
C143   H159    1.103   .     S
C143   H172    1.104   .     S
C143   H170    1.110   .     S
C144   H160    1.099   .     S
C144   H178    1.081   .     S
C144   C145    1.525   .     S
C145   H176    1.103   .     S
C145   H175    1.106   .     S
C145   H177    1.113   .     S
C146   H165    1.110   .     S
C146   C147    1.554   .     S
C146   H164    1.104   .     S
C147   H163    1.104   .     S
C147   H161    1.103   .     S
C147   H162    1.108   .     S
C148   H169    1.081   .     S
C148   H171    1.101   .     S
C148   C149    1.526   .     S
C149   H167    1.104   .     S
C149   H168    1.099   .     S
C149   H166    1.114   .     S
C150   O189    1.313   .     A
C150   C152    1.395   .     S
C150   O192    1.320   .     A
C151   O191    1.313   .     A
C151   C153    1.395   .     S
C151   O190    1.320   .     A
C152   C1305   1.182   1_554 S
C153   C728    1.182   .     S
C155   C2      1.388   1_655 S
C156   C26     1.401   1_655 S
Cu157  O191    1.905   .     S
Cu157  O189    1.905   .     S
Cu157  O185    1.979   .     S
Cu157  N179    2.092   .     S
Cu157  O187    1.976   .     S
Cu158  O192    1.905   .     S
Cu158  O186    1.979   .     S
Cu158  O190    1.905   .     S
Cu158  N180    2.092   .     S
Cu158  O188    1.976   .     S
C193   O249    1.331   .     A
C193   C196    1.477   .     S
C193   O252    1.325   .     A
C194   C196    1.406   .     A
C194   C205    1.449   .     S
C194   C347    1.388   1_455 S
C195   C219    1.413   .     A
C195   C220    1.427   .     A
C195   C204    1.478   .     S
C196   C218    1.416   .     A
C197   N244    1.403   .     A
C197   C206    1.524   .     S
C198   N243    1.393   .     A
C198   C208    1.548   .     S
C198   C391    1.447   .     S
C199   N244    1.403   .     A
C199   C210    1.526   .     S
C200   N243    1.393   .     A
C200   C212    1.551   .     S
C200   C389    1.449   .     S
C201   C218    1.456   .     S
C201   N245    1.157   .     T
C202   C219    1.452   .     S
C202   N246    1.158   .     T
C203   C220    1.456   .     S
C203   N247    1.158   .     T
C204   O250    1.322   .     A
C204   O251    1.334   .     A
C205   N248    1.157   .     T
C206   H238    1.109   .     S
C206   H237    1.104   .     S
C206   C207    1.554   .     S
C207   H223    1.103   .     S
C207   H236    1.104   .     S
C207   H234    1.110   .     S
C208   H224    1.099   .     S
C208   H242    1.081   .     S
C208   C209    1.525   .     S
C209   H240    1.103   .     S
C209   H239    1.106   .     S
C209   H241    1.113   .     S
C210   H229    1.110   .     S
C210   C211    1.554   .     S
C210   H228    1.104   .     S
C211   H227    1.104   .     S
C211   H225    1.103   .     S
C211   H226    1.108   .     S
C212   H233    1.081   .     S
C212   H235    1.101   .     S
C212   C213    1.526   .     S
C213   H231    1.104   .     S
C213   H232    1.099   .     S
C213   H230    1.114   .     S
C214   O253    1.313   .     A
C214   C216    1.395   .     S
C214   O256    1.320   .     A
C215   O255    1.313   .     A
C215   C217    1.395   .     S
C215   O254    1.320   .     A
C216   C1369   1.182   1_554 S
C217   C792    1.182   .     S
C218   C348    1.401   1_455 S
C219   C258    1.388   .     S
C220   C282    1.401   .     S
Cu221  O255    1.905   .     S
Cu221  O253    1.905   .     S
Cu221  O249    1.979   .     S
Cu221  N243    2.092   .     S
Cu221  O251    1.976   .     S
Cu222  O256    1.905   .     S
Cu222  O250    1.979   .     S
Cu222  O254    1.905   .     S
Cu222  N244    2.092   .     S
Cu222  O252    1.976   .     S
C257   O313    1.331   .     A
C257   C260    1.477   .     S
C257   O316    1.325   .     A
C258   C260    1.406   .     A
C258   C269    1.449   .     S
C259   C283    1.413   .     A
C259   C284    1.427   .     A
C259   C268    1.478   .     S
C260   C282    1.416   .     A
C261   N308    1.403   .     A
C261   C270    1.524   .     S
C262   N307    1.393   .     A
C262   C272    1.548   .     S
C262   C455    1.447   .     S
C263   N308    1.403   .     A
C263   C274    1.526   .     S
C264   N307    1.393   .     A
C264   C276    1.551   .     S
C264   C453    1.449   .     S
C265   C282    1.456   .     S
C265   N309    1.157   .     T
C266   C283    1.452   .     S
C266   N310    1.158   .     T
C267   C284    1.456   .     S
C267   N311    1.158   .     T
C268   O314    1.322   .     A
C268   O315    1.334   .     A
C269   N312    1.157   .     T
C270   H302    1.109   .     S
C270   H301    1.104   .     S
C270   C271    1.554   .     S
C271   H287    1.103   .     S
C271   H300    1.104   .     S
C271   H298    1.110   .     S
C272   H288    1.099   .     S
C272   H306    1.081   .     S
C272   C273    1.525   .     S
C273   H304    1.103   .     S
C273   H303    1.106   .     S
C273   H305    1.113   .     S
C274   H293    1.110   .     S
C274   C275    1.554   .     S
C274   H292    1.104   .     S
C275   H291    1.104   .     S
C275   H289    1.103   .     S
C275   H290    1.108   .     S
C276   H297    1.081   .     S
C276   H299    1.101   .     S
C276   C277    1.526   .     S
C277   H295    1.104   .     S
C277   H296    1.099   .     S
C277   H294    1.114   .     S
C278   O317    1.313   .     A
C278   C280    1.395   .     S
C278   O320    1.320   .     A
C279   O319    1.313   .     A
C279   C281    1.395   .     S
C279   O318    1.320   .     A
C280   C1433   1.182   1_554 S
C281   C856    1.182   .     S
C283   C322    1.388   .     S
C284   C346    1.401   .     S
Cu285  O319    1.905   .     S
Cu285  O317    1.905   .     S
Cu285  O313    1.979   .     S
Cu285  N307    2.092   .     S
Cu285  O315    1.976   .     S
Cu286  O320    1.905   .     S
Cu286  O314    1.979   .     S
Cu286  O318    1.905   .     S
Cu286  N308    2.092   .     S
Cu286  O316    1.976   .     S
C321   O377    1.331   .     A
C321   C324    1.477   .     S
C321   O380    1.325   .     A
C322   C324    1.406   .     A
C322   C333    1.449   .     S
C323   C347    1.413   .     A
C323   C348    1.427   .     A
C323   C332    1.478   .     S
C324   C346    1.416   .     A
C325   N372    1.403   .     A
C325   C334    1.524   .     S
C326   N371    1.393   .     A
C326   C336    1.548   .     S
C326   C519    1.447   .     S
C327   N372    1.403   .     A
C327   C338    1.526   .     S
C328   N371    1.393   .     A
C328   C340    1.551   .     S
C328   C517    1.449   .     S
C329   C346    1.456   .     S
C329   N373    1.157   .     T
C330   C347    1.452   .     S
C330   N374    1.158   .     T
C331   C348    1.456   .     S
C331   N375    1.158   .     T
C332   O378    1.322   .     A
C332   O379    1.334   .     A
C333   N376    1.157   .     T
C334   H366    1.109   .     S
C334   H365    1.104   .     S
C334   C335    1.554   .     S
C335   H351    1.103   .     S
C335   H364    1.104   .     S
C335   H362    1.110   .     S
C336   H352    1.099   .     S
C336   H370    1.081   .     S
C336   C337    1.525   .     S
C337   H368    1.103   .     S
C337   H367    1.106   .     S
C337   H369    1.113   .     S
C338   H357    1.110   .     S
C338   C339    1.554   .     S
C338   H356    1.104   .     S
C339   H355    1.104   .     S
C339   H353    1.103   .     S
C339   H354    1.108   .     S
C340   H361    1.081   .     S
C340   H363    1.101   .     S
C340   C341    1.526   .     S
C341   H359    1.104   .     S
C341   H360    1.099   .     S
C341   H358    1.114   .     S
C342   O381    1.313   .     A
C342   C344    1.395   .     S
C342   O384    1.320   .     A
C343   O383    1.313   .     A
C343   C345    1.395   .     S
C343   O382    1.320   .     A
C344   C1497   1.182   1_554 S
C345   C920    1.182   .     S
C347   C194    1.388   1_655 S
C348   C218    1.401   1_655 S
Cu349  O383    1.905   .     S
Cu349  O381    1.905   .     S
Cu349  O377    1.979   .     S
Cu349  N371    2.092   .     S
Cu349  O379    1.976   .     S
Cu350  O384    1.905   .     S
Cu350  O378    1.979   .     S
Cu350  O382    1.905   .     S
Cu350  N372    2.092   .     S
Cu350  O380    1.976   .     S
C385   O441    1.331   .     A
C385   C388    1.477   .     S
C385   O444    1.325   .     A
C386   C388    1.406   .     A
C386   C397    1.449   .     S
C386   C539    1.388   1_455 S
C387   C411    1.413   .     A
C387   C412    1.427   .     A
C387   C396    1.478   .     S
C388   C410    1.416   .     A
C389   N436    1.403   .     A
C389   C398    1.524   .     S
C390   N435    1.393   .     A
C390   C400    1.548   .     S
C390   C7      1.447   1_565 S
C391   N436    1.403   .     A
C391   C402    1.526   .     S
C392   N435    1.393   .     A
C392   C404    1.551   .     S
C392   C5      1.449   1_565 S
C393   C410    1.456   .     S
C393   N437    1.157   .     T
C394   C411    1.452   .     S
C394   N438    1.158   .     T
C395   C412    1.456   .     S
C395   N439    1.158   .     T
C396   O442    1.322   .     A
C396   O443    1.334   .     A
C397   N440    1.157   .     T
C398   H430    1.109   .     S
C398   H429    1.104   .     S
C398   C399    1.554   .     S
C399   H415    1.103   .     S
C399   H428    1.104   .     S
C399   H426    1.110   .     S
C400   H416    1.099   .     S
C400   H434    1.081   .     S
C400   C401    1.525   .     S
C401   H432    1.103   .     S
C401   H431    1.106   .     S
C401   H433    1.113   .     S
C402   H421    1.110   .     S
C402   C403    1.554   .     S
C402   H420    1.104   .     S
C403   H419    1.104   .     S
C403   H417    1.103   .     S
C403   H418    1.108   .     S
C404   H425    1.081   .     S
C404   H427    1.101   .     S
C404   C405    1.526   .     S
C405   H423    1.104   .     S
C405   H424    1.099   .     S
C405   H422    1.114   .     S
C406   O445    1.313   .     A
C406   C408    1.395   .     S
C406   O448    1.320   .     A
C407   O447    1.313   .     A
C407   C409    1.395   .     S
C407   O446    1.320   .     A
C408   C1561   1.182   1_554 S
C409   C984    1.182   .     S
C410   C540    1.401   1_455 S
C411   C450    1.388   .     S
C412   C474    1.401   .     S
Cu413  O447    1.905   .     S
Cu413  O445    1.905   .     S
Cu413  O441    1.979   .     S
Cu413  N435    2.092   .     S
Cu413  O443    1.976   .     S
Cu414  O448    1.905   .     S
Cu414  O442    1.979   .     S
Cu414  O446    1.905   .     S
Cu414  N436    2.092   .     S
Cu414  O444    1.976   .     S
C449   O505    1.331   .     A
C449   C452    1.477   .     S
C449   O508    1.325   .     A
C450   C452    1.406   .     A
C450   C461    1.449   .     S
C451   C475    1.413   .     A
C451   C476    1.427   .     A
C451   C460    1.478   .     S
C452   C474    1.416   .     A
C453   N500    1.403   .     A
C453   C462    1.524   .     S
C454   N499    1.393   .     A
C454   C464    1.548   .     S
C454   C71     1.447   1_565 S
C455   N500    1.403   .     A
C455   C466    1.526   .     S
C456   N499    1.393   .     A
C456   C468    1.551   .     S
C456   C69     1.449   1_565 S
C457   C474    1.456   .     S
C457   N501    1.157   .     T
C458   C475    1.452   .     S
C458   N502    1.158   .     T
C459   C476    1.456   .     S
C459   N503    1.158   .     T
C460   O506    1.322   .     A
C460   O507    1.334   .     A
C461   N504    1.157   .     T
C462   H494    1.109   .     S
C462   H493    1.104   .     S
C462   C463    1.554   .     S
C463   H479    1.103   .     S
C463   H492    1.104   .     S
C463   H490    1.110   .     S
C464   H480    1.099   .     S
C464   H498    1.081   .     S
C464   C465    1.525   .     S
C465   H496    1.103   .     S
C465   H495    1.106   .     S
C465   H497    1.113   .     S
C466   H485    1.110   .     S
C466   C467    1.554   .     S
C466   H484    1.104   .     S
C467   H483    1.104   .     S
C467   H481    1.103   .     S
C467   H482    1.108   .     S
C468   H489    1.081   .     S
C468   H491    1.101   .     S
C468   C469    1.526   .     S
C469   H487    1.104   .     S
C469   H488    1.099   .     S
C469   H486    1.114   .     S
C470   O509    1.313   .     A
C470   C472    1.395   .     S
C470   O512    1.320   .     A
C471   O511    1.313   .     A
C471   C473    1.395   .     S
C471   O510    1.320   .     A
C472   C1625   1.182   1_554 S
C473   C1048   1.182   .     S
C475   C514    1.388   .     S
C476   C538    1.401   .     S
Cu477  O511    1.905   .     S
Cu477  O509    1.905   .     S
Cu477  O505    1.979   .     S
Cu477  N499    2.092   .     S
Cu477  O507    1.976   .     S
Cu478  O512    1.905   .     S
Cu478  O506    1.979   .     S
Cu478  O510    1.905   .     S
Cu478  N500    2.092   .     S
Cu478  O508    1.976   .     S
C513   O569    1.331   .     A
C513   C516    1.477   .     S
C513   O572    1.325   .     A
C514   C516    1.406   .     A
C514   C525    1.449   .     S
C515   C539    1.413   .     A
C515   C540    1.427   .     A
C515   C524    1.478   .     S
C516   C538    1.416   .     A
C517   N564    1.403   .     A
C517   C526    1.524   .     S
C518   N563    1.393   .     A
C518   C528    1.548   .     S
C518   C135    1.447   1_565 S
C519   N564    1.403   .     A
C519   C530    1.526   .     S
C520   N563    1.393   .     A
C520   C532    1.551   .     S
C520   C133    1.449   1_565 S
C521   C538    1.456   .     S
C521   N565    1.157   .     T
C522   C539    1.452   .     S
C522   N566    1.158   .     T
C523   C540    1.456   .     S
C523   N567    1.158   .     T
C524   O570    1.322   .     A
C524   O571    1.334   .     A
C525   N568    1.157   .     T
C526   H558    1.109   .     S
C526   H557    1.104   .     S
C526   C527    1.554   .     S
C527   H543    1.103   .     S
C527   H556    1.104   .     S
C527   H554    1.110   .     S
C528   H544    1.099   .     S
C528   H562    1.081   .     S
C528   C529    1.525   .     S
C529   H560    1.103   .     S
C529   H559    1.106   .     S
C529   H561    1.113   .     S
C530   H549    1.110   .     S
C530   C531    1.554   .     S
C530   H548    1.104   .     S
C531   H547    1.104   .     S
C531   H545    1.103   .     S
C531   H546    1.108   .     S
C532   H553    1.081   .     S
C532   H555    1.101   .     S
C532   C533    1.526   .     S
C533   H551    1.104   .     S
C533   H552    1.099   .     S
C533   H550    1.114   .     S
C534   O573    1.313   .     A
C534   C536    1.395   .     S
C534   O576    1.320   .     A
C535   O575    1.313   .     A
C535   C537    1.395   .     S
C535   O574    1.320   .     A
C536   C1689   1.182   1_554 S
C537   C1112   1.182   .     S
C539   C386    1.388   1_655 S
C540   C410    1.401   1_655 S
Cu541  O575    1.905   .     S
Cu541  O573    1.905   .     S
Cu541  O569    1.979   .     S
Cu541  N563    2.092   .     S
Cu541  O571    1.976   .     S
Cu542  O576    1.905   .     S
Cu542  O570    1.979   .     S
Cu542  O574    1.905   .     S
Cu542  N564    2.092   .     S
Cu542  O572    1.976   .     S
C577   O633    1.331   .     A
C577   C580    1.477   .     S
C577   O636    1.325   .     A
C578   C580    1.406   .     A
C578   C589    1.449   .     S
C578   C731    1.388   1_455 S
C579   C603    1.413   .     A
C579   C604    1.427   .     A
C579   C588    1.478   .     S
C580   C602    1.416   .     A
C581   N628    1.403   .     A
C581   C590    1.524   .     S
C581   C968    1.449   1_545 S
C582   N627    1.393   .     A
C582   C592    1.548   .     S
C582   C775    1.447   .     S
C583   N628    1.403   .     A
C583   C594    1.526   .     S
C583   C966    1.447   1_545 S
C584   N627    1.393   .     A
C584   C596    1.551   .     S
C584   C773    1.449   .     S
C585   C602    1.456   .     S
C585   N629    1.157   .     T
C586   C603    1.452   .     S
C586   N630    1.158   .     T
C587   C604    1.456   .     S
C587   N631    1.158   .     T
C588   O634    1.322   .     A
C588   O635    1.334   .     A
C589   N632    1.157   .     T
C590   H622    1.109   .     S
C590   H621    1.104   .     S
C590   C591    1.554   .     S
C591   H607    1.103   .     S
C591   H620    1.104   .     S
C591   H618    1.110   .     S
C592   H608    1.099   .     S
C592   H626    1.081   .     S
C592   C593    1.525   .     S
C593   H624    1.103   .     S
C593   H623    1.106   .     S
C593   H625    1.113   .     S
C594   H613    1.110   .     S
C594   C595    1.554   .     S
C594   H612    1.104   .     S
C595   H611    1.104   .     S
C595   H609    1.103   .     S
C595   H610    1.108   .     S
C596   H617    1.081   .     S
C596   H619    1.101   .     S
C596   C597    1.526   .     S
C597   H615    1.104   .     S
C597   H616    1.099   .     S
C597   H614    1.114   .     S
C598   O637    1.313   .     A
C598   C600    1.395   .     S
C598   O640    1.320   .     A
C599   O639    1.313   .     A
C599   C601    1.395   .     S
C599   O638    1.320   .     A
C601   C1176   1.182   .     S
C602   C732    1.401   1_455 S
C603   C642    1.388   .     S
C604   C666    1.401   .     S
Cu605  O639    1.905   .     S
Cu605  O637    1.905   .     S
Cu605  O633    1.979   .     S
Cu605  N627    2.092   .     S
Cu605  O635    1.976   .     S
Cu606  O640    1.905   .     S
Cu606  O634    1.979   .     S
Cu606  O638    1.905   .     S
Cu606  N628    2.092   .     S
Cu606  O636    1.976   .     S
C641   O697    1.331   .     A
C641   C644    1.477   .     S
C641   O700    1.325   .     A
C642   C644    1.406   .     A
C642   C653    1.449   .     S
C643   C667    1.413   .     A
C643   C668    1.427   .     A
C643   C652    1.478   .     S
C644   C666    1.416   .     A
C645   N692    1.403   .     A
C645   C654    1.524   .     S
C645   C1032   1.449   1_545 S
C646   N691    1.393   .     A
C646   C656    1.548   .     S
C646   C839    1.447   .     S
C647   N692    1.403   .     A
C647   C658    1.526   .     S
C647   C1030   1.447   1_545 S
C648   N691    1.393   .     A
C648   C660    1.551   .     S
C648   C837    1.449   .     S
C649   C666    1.456   .     S
C649   N693    1.157   .     T
C650   C667    1.452   .     S
C650   N694    1.158   .     T
C651   C668    1.456   .     S
C651   N695    1.158   .     T
C652   O698    1.322   .     A
C652   O699    1.334   .     A
C653   N696    1.157   .     T
C654   H686    1.109   .     S
C654   H685    1.104   .     S
C654   C655    1.554   .     S
C655   H671    1.103   .     S
C655   H684    1.104   .     S
C655   H682    1.110   .     S
C656   H672    1.099   .     S
C656   H690    1.081   .     S
C656   C657    1.525   .     S
C657   H688    1.103   .     S
C657   H687    1.106   .     S
C657   H689    1.113   .     S
C658   H677    1.110   .     S
C658   C659    1.554   .     S
C658   H676    1.104   .     S
C659   H675    1.104   .     S
C659   H673    1.103   .     S
C659   H674    1.108   .     S
C660   H681    1.081   .     S
C660   H683    1.101   .     S
C660   C661    1.526   .     S
C661   H679    1.104   .     S
C661   H680    1.099   .     S
C661   H678    1.114   .     S
C662   O701    1.313   .     A
C662   C664    1.395   .     S
C662   O704    1.320   .     A
C663   O703    1.313   .     A
C663   C665    1.395   .     S
C663   O702    1.320   .     A
C665   C1240   1.182   .     S
C667   C706    1.388   .     S
C668   C730    1.401   .     S
Cu669  O703    1.905   .     S
Cu669  O701    1.905   .     S
Cu669  O697    1.979   .     S
Cu669  N691    2.092   .     S
Cu669  O699    1.976   .     S
Cu670  O704    1.905   .     S
Cu670  O698    1.979   .     S
Cu670  O702    1.905   .     S
Cu670  N692    2.092   .     S
Cu670  O700    1.976   .     S
C705   O761    1.331   .     A
C705   C708    1.477   .     S
C705   O764    1.325   .     A
C706   C708    1.406   .     A
C706   C717    1.449   .     S
C707   C731    1.413   .     A
C707   C732    1.427   .     A
C707   C716    1.478   .     S
C708   C730    1.416   .     A
C709   N756    1.403   .     A
C709   C718    1.524   .     S
C709   C1096   1.449   1_545 S
C710   N755    1.393   .     A
C710   C720    1.548   .     S
C710   C903    1.447   .     S
C711   N756    1.403   .     A
C711   C722    1.526   .     S
C711   C1094   1.447   1_545 S
C712   N755    1.393   .     A
C712   C724    1.551   .     S
C712   C901    1.449   .     S
C713   C730    1.456   .     S
C713   N757    1.157   .     T
C714   C731    1.452   .     S
C714   N758    1.158   .     T
C715   C732    1.456   .     S
C715   N759    1.158   .     T
C716   O762    1.322   .     A
C716   O763    1.334   .     A
C717   N760    1.157   .     T
C718   H750    1.109   .     S
C718   H749    1.104   .     S
C718   C719    1.554   .     S
C719   H735    1.103   .     S
C719   H748    1.104   .     S
C719   H746    1.110   .     S
C720   H736    1.099   .     S
C720   H754    1.081   .     S
C720   C721    1.525   .     S
C721   H752    1.103   .     S
C721   H751    1.106   .     S
C721   H753    1.113   .     S
C722   H741    1.110   .     S
C722   C723    1.554   .     S
C722   H740    1.104   .     S
C723   H739    1.104   .     S
C723   H737    1.103   .     S
C723   H738    1.108   .     S
C724   H745    1.081   .     S
C724   H747    1.101   .     S
C724   C725    1.526   .     S
C725   H743    1.104   .     S
C725   H744    1.099   .     S
C725   H742    1.114   .     S
C726   O765    1.313   .     A
C726   C728    1.395   .     S
C726   O768    1.320   .     A
C727   O767    1.313   .     A
C727   C729    1.395   .     S
C727   O766    1.320   .     A
C729   C1304   1.182   .     S
C731   C578    1.388   1_655 S
C732   C602    1.401   1_655 S
Cu733  O767    1.905   .     S
Cu733  O765    1.905   .     S
Cu733  O761    1.979   .     S
Cu733  N755    2.092   .     S
Cu733  O763    1.976   .     S
Cu734  O768    1.905   .     S
Cu734  O762    1.979   .     S
Cu734  O766    1.905   .     S
Cu734  N756    2.092   .     S
Cu734  O764    1.976   .     S
C769   O825    1.331   .     A
C769   C772    1.477   .     S
C769   O828    1.325   .     A
C770   C772    1.406   .     A
C770   C781    1.449   .     S
C770   C923    1.388   1_455 S
C771   C795    1.413   .     A
C771   C796    1.427   .     A
C771   C780    1.478   .     S
C772   C794    1.416   .     A
C773   N820    1.403   .     A
C773   C782    1.524   .     S
C774   N819    1.393   .     A
C774   C784    1.548   .     S
C774   C967    1.447   .     S
C775   N820    1.403   .     A
C775   C786    1.526   .     S
C776   N819    1.393   .     A
C776   C788    1.551   .     S
C776   C965    1.449   .     S
C777   C794    1.456   .     S
C777   N821    1.157   .     T
C778   C795    1.452   .     S
C778   N822    1.158   .     T
C779   C796    1.456   .     S
C779   N823    1.158   .     T
C780   O826    1.322   .     A
C780   O827    1.334   .     A
C781   N824    1.157   .     T
C782   H814    1.109   .     S
C782   H813    1.104   .     S
C782   C783    1.554   .     S
C783   H799    1.103   .     S
C783   H812    1.104   .     S
C783   H810    1.110   .     S
C784   H800    1.099   .     S
C784   H818    1.081   .     S
C784   C785    1.525   .     S
C785   H816    1.103   .     S
C785   H815    1.106   .     S
C785   H817    1.113   .     S
C786   H805    1.110   .     S
C786   C787    1.554   .     S
C786   H804    1.104   .     S
C787   H803    1.104   .     S
C787   H801    1.103   .     S
C787   H802    1.108   .     S
C788   H809    1.081   .     S
C788   H811    1.101   .     S
C788   C789    1.526   .     S
C789   H807    1.104   .     S
C789   H808    1.099   .     S
C789   H806    1.114   .     S
C790   O829    1.313   .     A
C790   C792    1.395   .     S
C790   O832    1.320   .     A
C791   O831    1.313   .     A
C791   C793    1.395   .     S
C791   O830    1.320   .     A
C793   C1368   1.182   .     S
C794   C924    1.401   1_455 S
C795   C834    1.388   .     S
C796   C858    1.401   .     S
Cu797  O831    1.905   .     S
Cu797  O829    1.905   .     S
Cu797  O825    1.979   .     S
Cu797  N819    2.092   .     S
Cu797  O827    1.976   .     S
Cu798  O832    1.905   .     S
Cu798  O826    1.979   .     S
Cu798  O830    1.905   .     S
Cu798  N820    2.092   .     S
Cu798  O828    1.976   .     S
C833   O889    1.331   .     A
C833   C836    1.477   .     S
C833   O892    1.325   .     A
C834   C836    1.406   .     A
C834   C845    1.449   .     S
C835   C859    1.413   .     A
C835   C860    1.427   .     A
C835   C844    1.478   .     S
C836   C858    1.416   .     A
C837   N884    1.403   .     A
C837   C846    1.524   .     S
C838   N883    1.393   .     A
C838   C848    1.548   .     S
C838   C1031   1.447   .     S
C839   N884    1.403   .     A
C839   C850    1.526   .     S
C840   N883    1.393   .     A
C840   C852    1.551   .     S
C840   C1029   1.449   .     S
C841   C858    1.456   .     S
C841   N885    1.157   .     T
C842   C859    1.452   .     S
C842   N886    1.158   .     T
C843   C860    1.456   .     S
C843   N887    1.158   .     T
C844   O890    1.322   .     A
C844   O891    1.334   .     A
C845   N888    1.157   .     T
C846   H878    1.109   .     S
C846   H877    1.104   .     S
C846   C847    1.554   .     S
C847   H863    1.103   .     S
C847   H876    1.104   .     S
C847   H874    1.110   .     S
C848   H864    1.099   .     S
C848   H882    1.081   .     S
C848   C849    1.525   .     S
C849   H880    1.103   .     S
C849   H879    1.106   .     S
C849   H881    1.113   .     S
C850   H869    1.110   .     S
C850   C851    1.554   .     S
C850   H868    1.104   .     S
C851   H867    1.104   .     S
C851   H865    1.103   .     S
C851   H866    1.108   .     S
C852   H873    1.081   .     S
C852   H875    1.101   .     S
C852   C853    1.526   .     S
C853   H871    1.104   .     S
C853   H872    1.099   .     S
C853   H870    1.114   .     S
C854   O893    1.313   .     A
C854   C856    1.395   .     S
C854   O896    1.320   .     A
C855   O895    1.313   .     A
C855   C857    1.395   .     S
C855   O894    1.320   .     A
C857   C1432   1.182   .     S
C859   C898    1.388   .     S
C860   C922    1.401   .     S
Cu861  O895    1.905   .     S
Cu861  O893    1.905   .     S
Cu861  O889    1.979   .     S
Cu861  N883    2.092   .     S
Cu861  O891    1.976   .     S
Cu862  O896    1.905   .     S
Cu862  O890    1.979   .     S
Cu862  O894    1.905   .     S
Cu862  N884    2.092   .     S
Cu862  O892    1.976   .     S
C897   O953    1.331   .     A
C897   C900    1.477   .     S
C897   O956    1.325   .     A
C898   C900    1.406   .     A
C898   C909    1.449   .     S
C899   C923    1.413   .     A
C899   C924    1.427   .     A
C899   C908    1.478   .     S
C900   C922    1.416   .     A
C901   N948    1.403   .     A
C901   C910    1.524   .     S
C902   N947    1.393   .     A
C902   C912    1.548   .     S
C902   C1095   1.447   .     S
C903   N948    1.403   .     A
C903   C914    1.526   .     S
C904   N947    1.393   .     A
C904   C916    1.551   .     S
C904   C1093   1.449   .     S
C905   C922    1.456   .     S
C905   N949    1.157   .     T
C906   C923    1.452   .     S
C906   N950    1.158   .     T
C907   C924    1.456   .     S
C907   N951    1.158   .     T
C908   O954    1.322   .     A
C908   O955    1.334   .     A
C909   N952    1.157   .     T
C910   H942    1.109   .     S
C910   H941    1.104   .     S
C910   C911    1.554   .     S
C911   H927    1.103   .     S
C911   H940    1.104   .     S
C911   H938    1.110   .     S
C912   H928    1.099   .     S
C912   H946    1.081   .     S
C912   C913    1.525   .     S
C913   H944    1.103   .     S
C913   H943    1.106   .     S
C913   H945    1.113   .     S
C914   H933    1.110   .     S
C914   C915    1.554   .     S
C914   H932    1.104   .     S
C915   H931    1.104   .     S
C915   H929    1.103   .     S
C915   H930    1.108   .     S
C916   H937    1.081   .     S
C916   H939    1.101   .     S
C916   C917    1.526   .     S
C917   H935    1.104   .     S
C917   H936    1.099   .     S
C917   H934    1.114   .     S
C918   O957    1.313   .     A
C918   C920    1.395   .     S
C918   O960    1.320   .     A
C919   O959    1.313   .     A
C919   C921    1.395   .     S
C919   O958    1.320   .     A
C921   C1496   1.182   .     S
C923   C770    1.388   1_655 S
C924   C794    1.401   1_655 S
Cu925  O959    1.905   .     S
Cu925  O957    1.905   .     S
Cu925  O953    1.979   .     S
Cu925  N947    2.092   .     S
Cu925  O955    1.976   .     S
Cu926  O960    1.905   .     S
Cu926  O954    1.979   .     S
Cu926  O958    1.905   .     S
Cu926  N948    2.092   .     S
Cu926  O956    1.976   .     S
C961   O1017   1.331   .     A
C961   C964    1.477   .     S
C961   O1020   1.325   .     A
C962   C964    1.406   .     A
C962   C973    1.449   .     S
C962   C1115   1.388   1_455 S
C963   C987    1.413   .     A
C963   C988    1.427   .     A
C963   C972    1.478   .     S
C964   C986    1.416   .     A
C965   N1012   1.403   .     A
C965   C974    1.524   .     S
C966   N1011   1.393   .     A
C966   C976    1.548   .     S
C966   C583    1.447   1_565 S
C967   N1012   1.403   .     A
C967   C978    1.526   .     S
C968   N1011   1.393   .     A
C968   C980    1.551   .     S
C968   C581    1.449   1_565 S
C969   C986    1.456   .     S
C969   N1013   1.157   .     T
C970   C987    1.452   .     S
C970   N1014   1.158   .     T
C971   C988    1.456   .     S
C971   N1015   1.158   .     T
C972   O1018   1.322   .     A
C972   O1019   1.334   .     A
C973   N1016   1.157   .     T
C974   H1006   1.109   .     S
C974   H1005   1.104   .     S
C974   C975    1.554   .     S
C975   H991    1.103   .     S
C975   H1004   1.104   .     S
C975   H1002   1.110   .     S
C976   H992    1.099   .     S
C976   H1010   1.081   .     S
C976   C977    1.525   .     S
C977   H1008   1.103   .     S
C977   H1007   1.106   .     S
C977   H1009   1.113   .     S
C978   H997    1.110   .     S
C978   C979    1.554   .     S
C978   H996    1.104   .     S
C979   H995    1.104   .     S
C979   H993    1.103   .     S
C979   H994    1.108   .     S
C980   H1001   1.081   .     S
C980   H1003   1.101   .     S
C980   C981    1.526   .     S
C981   H999    1.104   .     S
C981   H1000   1.099   .     S
C981   H998    1.114   .     S
C982   O1021   1.313   .     A
C982   C984    1.395   .     S
C982   O1024   1.320   .     A
C983   O1023   1.313   .     A
C983   C985    1.395   .     S
C983   O1022   1.320   .     A
C985   C1560   1.182   .     S
C986   C1116   1.401   1_455 S
C987   C1026   1.388   .     S
C988   C1050   1.401   .     S
Cu989  O1023   1.905   .     S
Cu989  O1021   1.905   .     S
Cu989  O1017   1.979   .     S
Cu989  N1011   2.092   .     S
Cu989  O1019   1.976   .     S
Cu990  O1024   1.905   .     S
Cu990  O1018   1.979   .     S
Cu990  O1022   1.905   .     S
Cu990  N1012   2.092   .     S
Cu990  O1020   1.976   .     S
C1025  O1081   1.331   .     A
C1025  C1028   1.477   .     S
C1025  O1084   1.325   .     A
C1026  C1028   1.406   .     A
C1026  C1037   1.449   .     S
C1027  C1051   1.413   .     A
C1027  C1052   1.427   .     A
C1027  C1036   1.478   .     S
C1028  C1050   1.416   .     A
C1029  N1076   1.403   .     A
C1029  C1038   1.524   .     S
C1030  N1075   1.393   .     A
C1030  C1040   1.548   .     S
C1030  C647    1.447   1_565 S
C1031  N1076   1.403   .     A
C1031  C1042   1.526   .     S
C1032  N1075   1.393   .     A
C1032  C1044   1.551   .     S
C1032  C645    1.449   1_565 S
C1033  C1050   1.456   .     S
C1033  N1077   1.157   .     T
C1034  C1051   1.452   .     S
C1034  N1078   1.158   .     T
C1035  C1052   1.456   .     S
C1035  N1079   1.158   .     T
C1036  O1082   1.322   .     A
C1036  O1083   1.334   .     A
C1037  N1080   1.157   .     T
C1038  H1070   1.109   .     S
C1038  H1069   1.104   .     S
C1038  C1039   1.554   .     S
C1039  H1055   1.103   .     S
C1039  H1068   1.104   .     S
C1039  H1066   1.110   .     S
C1040  H1056   1.099   .     S
C1040  H1074   1.081   .     S
C1040  C1041   1.525   .     S
C1041  H1072   1.103   .     S
C1041  H1071   1.106   .     S
C1041  H1073   1.113   .     S
C1042  H1061   1.110   .     S
C1042  C1043   1.554   .     S
C1042  H1060   1.104   .     S
C1043  H1059   1.104   .     S
C1043  H1057   1.103   .     S
C1043  H1058   1.108   .     S
C1044  H1065   1.081   .     S
C1044  H1067   1.101   .     S
C1044  C1045   1.526   .     S
C1045  H1063   1.104   .     S
C1045  H1064   1.099   .     S
C1045  H1062   1.114   .     S
C1046  O1085   1.313   .     A
C1046  C1048   1.395   .     S
C1046  O1088   1.320   .     A
C1047  O1087   1.313   .     A
C1047  C1049   1.395   .     S
C1047  O1086   1.320   .     A
C1049  C1624   1.182   .     S
C1051  C1090   1.388   .     S
C1052  C1114   1.401   .     S
Cu1053 O1087   1.905   .     S
Cu1053 O1085   1.905   .     S
Cu1053 O1081   1.979   .     S
Cu1053 N1075   2.092   .     S
Cu1053 O1083   1.976   .     S
Cu1054 O1088   1.905   .     S
Cu1054 O1082   1.979   .     S
Cu1054 O1086   1.905   .     S
Cu1054 N1076   2.092   .     S
Cu1054 O1084   1.976   .     S
C1089  O1145   1.331   .     A
C1089  C1092   1.477   .     S
C1089  O1148   1.325   .     A
C1090  C1092   1.406   .     A
C1090  C1101   1.449   .     S
C1091  C1115   1.413   .     A
C1091  C1116   1.427   .     A
C1091  C1100   1.478   .     S
C1092  C1114   1.416   .     A
C1093  N1140   1.403   .     A
C1093  C1102   1.524   .     S
C1094  N1139   1.393   .     A
C1094  C1104   1.548   .     S
C1094  C711    1.447   1_565 S
C1095  N1140   1.403   .     A
C1095  C1106   1.526   .     S
C1096  N1139   1.393   .     A
C1096  C1108   1.551   .     S
C1096  C709    1.449   1_565 S
C1097  C1114   1.456   .     S
C1097  N1141   1.157   .     T
C1098  C1115   1.452   .     S
C1098  N1142   1.158   .     T
C1099  C1116   1.456   .     S
C1099  N1143   1.158   .     T
C1100  O1146   1.322   .     A
C1100  O1147   1.334   .     A
C1101  N1144   1.157   .     T
C1102  H1134   1.109   .     S
C1102  H1133   1.104   .     S
C1102  C1103   1.554   .     S
C1103  H1119   1.103   .     S
C1103  H1132   1.104   .     S
C1103  H1130   1.110   .     S
C1104  H1120   1.099   .     S
C1104  H1138   1.081   .     S
C1104  C1105   1.525   .     S
C1105  H1136   1.103   .     S
C1105  H1135   1.106   .     S
C1105  H1137   1.113   .     S
C1106  H1125   1.110   .     S
C1106  C1107   1.554   .     S
C1106  H1124   1.104   .     S
C1107  H1123   1.104   .     S
C1107  H1121   1.103   .     S
C1107  H1122   1.108   .     S
C1108  H1129   1.081   .     S
C1108  H1131   1.101   .     S
C1108  C1109   1.526   .     S
C1109  H1127   1.104   .     S
C1109  H1128   1.099   .     S
C1109  H1126   1.114   .     S
C1110  O1149   1.313   .     A
C1110  C1112   1.395   .     S
C1110  O1152   1.320   .     A
C1111  O1151   1.313   .     A
C1111  C1113   1.395   .     S
C1111  O1150   1.320   .     A
C1113  C1688   1.182   .     S
C1115  C962    1.388   1_655 S
C1116  C986    1.401   1_655 S
Cu1117 O1151   1.905   .     S
Cu1117 O1149   1.905   .     S
Cu1117 O1145   1.979   .     S
Cu1117 N1139   2.092   .     S
Cu1117 O1147   1.976   .     S
Cu1118 O1152   1.905   .     S
Cu1118 O1146   1.979   .     S
Cu1118 O1150   1.905   .     S
Cu1118 N1140   2.092   .     S
Cu1118 O1148   1.976   .     S
C1153  O1209   1.331   .     A
C1153  C1156   1.477   .     S
C1153  O1212   1.325   .     A
C1154  C1156   1.406   .     A
C1154  C1165   1.449   .     S
C1154  C1307   1.388   1_455 S
C1155  C1179   1.413   .     A
C1155  C1180   1.427   .     A
C1155  C1164   1.478   .     S
C1156  C1178   1.416   .     A
C1157  N1204   1.403   .     A
C1157  C1166   1.524   .     S
C1157  C1544   1.449   1_545 S
C1158  N1203   1.393   .     A
C1158  C1168   1.548   .     S
C1158  C1351   1.447   .     S
C1159  N1204   1.403   .     A
C1159  C1170   1.526   .     S
C1159  C1542   1.447   1_545 S
C1160  N1203   1.393   .     A
C1160  C1172   1.551   .     S
C1160  C1349   1.449   .     S
C1161  C1178   1.456   .     S
C1161  N1205   1.157   .     T
C1162  C1179   1.452   .     S
C1162  N1206   1.158   .     T
C1163  C1180   1.456   .     S
C1163  N1207   1.158   .     T
C1164  O1210   1.322   .     A
C1164  O1211   1.334   .     A
C1165  N1208   1.157   .     T
C1166  H1198   1.109   .     S
C1166  H1197   1.104   .     S
C1166  C1167   1.554   .     S
C1167  H1183   1.103   .     S
C1167  H1196   1.104   .     S
C1167  H1194   1.110   .     S
C1168  H1184   1.099   .     S
C1168  H1202   1.081   .     S
C1168  C1169   1.525   .     S
C1169  H1200   1.103   .     S
C1169  H1199   1.106   .     S
C1169  H1201   1.113   .     S
C1170  H1189   1.110   .     S
C1170  C1171   1.554   .     S
C1170  H1188   1.104   .     S
C1171  H1187   1.104   .     S
C1171  H1185   1.103   .     S
C1171  H1186   1.108   .     S
C1172  H1193   1.081   .     S
C1172  H1195   1.101   .     S
C1172  C1173   1.526   .     S
C1173  H1191   1.104   .     S
C1173  H1192   1.099   .     S
C1173  H1190   1.114   .     S
C1174  O1213   1.313   .     A
C1174  C1176   1.395   .     S
C1174  O1216   1.320   .     A
C1175  O1215   1.313   .     A
C1175  C1177   1.395   .     S
C1175  O1214   1.320   .     A
C1177  C24     1.182   1_556 S
C1178  C1308   1.401   1_455 S
C1179  C1218   1.388   .     S
C1180  C1242   1.401   .     S
Cu1181 O1215   1.905   .     S
Cu1181 O1213   1.905   .     S
Cu1181 O1209   1.979   .     S
Cu1181 N1203   2.092   .     S
Cu1181 O1211   1.976   .     S
Cu1182 O1216   1.905   .     S
Cu1182 O1210   1.979   .     S
Cu1182 O1214   1.905   .     S
Cu1182 N1204   2.092   .     S
Cu1182 O1212   1.976   .     S
C1217  O1273   1.331   .     A
C1217  C1220   1.477   .     S
C1217  O1276   1.325   .     A
C1218  C1220   1.406   .     A
C1218  C1229   1.449   .     S
C1219  C1243   1.413   .     A
C1219  C1244   1.427   .     A
C1219  C1228   1.478   .     S
C1220  C1242   1.416   .     A
C1221  N1268   1.403   .     A
C1221  C1230   1.524   .     S
C1221  C1608   1.449   1_545 S
C1222  N1267   1.393   .     A
C1222  C1232   1.548   .     S
C1222  C1415   1.447   .     S
C1223  N1268   1.403   .     A
C1223  C1234   1.526   .     S
C1223  C1606   1.447   1_545 S
C1224  N1267   1.393   .     A
C1224  C1236   1.551   .     S
C1224  C1413   1.449   .     S
C1225  C1242   1.456   .     S
C1225  N1269   1.157   .     T
C1226  C1243   1.452   .     S
C1226  N1270   1.158   .     T
C1227  C1244   1.456   .     S
C1227  N1271   1.158   .     T
C1228  O1274   1.322   .     A
C1228  O1275   1.334   .     A
C1229  N1272   1.157   .     T
C1230  H1262   1.109   .     S
C1230  H1261   1.104   .     S
C1230  C1231   1.554   .     S
C1231  H1247   1.103   .     S
C1231  H1260   1.104   .     S
C1231  H1258   1.110   .     S
C1232  H1248   1.099   .     S
C1232  H1266   1.081   .     S
C1232  C1233   1.525   .     S
C1233  H1264   1.103   .     S
C1233  H1263   1.106   .     S
C1233  H1265   1.113   .     S
C1234  H1253   1.110   .     S
C1234  C1235   1.554   .     S
C1234  H1252   1.104   .     S
C1235  H1251   1.104   .     S
C1235  H1249   1.103   .     S
C1235  H1250   1.108   .     S
C1236  H1257   1.081   .     S
C1236  H1259   1.101   .     S
C1236  C1237   1.526   .     S
C1237  H1255   1.104   .     S
C1237  H1256   1.099   .     S
C1237  H1254   1.114   .     S
C1238  O1277   1.313   .     A
C1238  C1240   1.395   .     S
C1238  O1280   1.320   .     A
C1239  O1279   1.313   .     A
C1239  C1241   1.395   .     S
C1239  O1278   1.320   .     A
C1241  C88     1.182   1_556 S
C1243  C1282   1.388   .     S
C1244  C1306   1.401   .     S
Cu1245 O1279   1.905   .     S
Cu1245 O1277   1.905   .     S
Cu1245 O1273   1.979   .     S
Cu1245 N1267   2.092   .     S
Cu1245 O1275   1.976   .     S
Cu1246 O1280   1.905   .     S
Cu1246 O1274   1.979   .     S
Cu1246 O1278   1.905   .     S
Cu1246 N1268   2.092   .     S
Cu1246 O1276   1.976   .     S
C1281  O1337   1.331   .     A
C1281  C1284   1.477   .     S
C1281  O1340   1.325   .     A
C1282  C1284   1.406   .     A
C1282  C1293   1.449   .     S
C1283  C1307   1.413   .     A
C1283  C1308   1.427   .     A
C1283  C1292   1.478   .     S
C1284  C1306   1.416   .     A
C1285  N1332   1.403   .     A
C1285  C1294   1.524   .     S
C1285  C1672   1.449   1_545 S
C1286  N1331   1.393   .     A
C1286  C1296   1.548   .     S
C1286  C1479   1.447   .     S
C1287  N1332   1.403   .     A
C1287  C1298   1.526   .     S
C1287  C1670   1.447   1_545 S
C1288  N1331   1.393   .     A
C1288  C1300   1.551   .     S
C1288  C1477   1.449   .     S
C1289  C1306   1.456   .     S
C1289  N1333   1.157   .     T
C1290  C1307   1.452   .     S
C1290  N1334   1.158   .     T
C1291  C1308   1.456   .     S
C1291  N1335   1.158   .     T
C1292  O1338   1.322   .     A
C1292  O1339   1.334   .     A
C1293  N1336   1.157   .     T
C1294  H1326   1.109   .     S
C1294  H1325   1.104   .     S
C1294  C1295   1.554   .     S
C1295  H1311   1.103   .     S
C1295  H1324   1.104   .     S
C1295  H1322   1.110   .     S
C1296  H1312   1.099   .     S
C1296  H1330   1.081   .     S
C1296  C1297   1.525   .     S
C1297  H1328   1.103   .     S
C1297  H1327   1.106   .     S
C1297  H1329   1.113   .     S
C1298  H1317   1.110   .     S
C1298  C1299   1.554   .     S
C1298  H1316   1.104   .     S
C1299  H1315   1.104   .     S
C1299  H1313   1.103   .     S
C1299  H1314   1.108   .     S
C1300  H1321   1.081   .     S
C1300  H1323   1.101   .     S
C1300  C1301   1.526   .     S
C1301  H1319   1.104   .     S
C1301  H1320   1.099   .     S
C1301  H1318   1.114   .     S
C1302  O1341   1.313   .     A
C1302  C1304   1.395   .     S
C1302  O1344   1.320   .     A
C1303  O1343   1.313   .     A
C1303  C1305   1.395   .     S
C1303  O1342   1.320   .     A
C1305  C152    1.182   1_556 S
C1307  C1154   1.388   1_655 S
C1308  C1178   1.401   1_655 S
Cu1309 O1343   1.905   .     S
Cu1309 O1341   1.905   .     S
Cu1309 O1337   1.979   .     S
Cu1309 N1331   2.092   .     S
Cu1309 O1339   1.976   .     S
Cu1310 O1344   1.905   .     S
Cu1310 O1338   1.979   .     S
Cu1310 O1342   1.905   .     S
Cu1310 N1332   2.092   .     S
Cu1310 O1340   1.976   .     S
C1345  O1401   1.331   .     A
C1345  C1348   1.477   .     S
C1345  O1404   1.325   .     A
C1346  C1348   1.406   .     A
C1346  C1357   1.449   .     S
C1346  C1499   1.388   1_455 S
C1347  C1371   1.413   .     A
C1347  C1372   1.427   .     A
C1347  C1356   1.478   .     S
C1348  C1370   1.416   .     A
C1349  N1396   1.403   .     A
C1349  C1358   1.524   .     S
C1350  N1395   1.393   .     A
C1350  C1360   1.548   .     S
C1350  C1543   1.447   .     S
C1351  N1396   1.403   .     A
C1351  C1362   1.526   .     S
C1352  N1395   1.393   .     A
C1352  C1364   1.551   .     S
C1352  C1541   1.449   .     S
C1353  C1370   1.456   .     S
C1353  N1397   1.157   .     T
C1354  C1371   1.452   .     S
C1354  N1398   1.158   .     T
C1355  C1372   1.456   .     S
C1355  N1399   1.158   .     T
C1356  O1402   1.322   .     A
C1356  O1403   1.334   .     A
C1357  N1400   1.157   .     T
C1358  H1390   1.109   .     S
C1358  H1389   1.104   .     S
C1358  C1359   1.554   .     S
C1359  H1375   1.103   .     S
C1359  H1388   1.104   .     S
C1359  H1386   1.110   .     S
C1360  H1376   1.099   .     S
C1360  H1394   1.081   .     S
C1360  C1361   1.525   .     S
C1361  H1392   1.103   .     S
C1361  H1391   1.106   .     S
C1361  H1393   1.113   .     S
C1362  H1381   1.110   .     S
C1362  C1363   1.554   .     S
C1362  H1380   1.104   .     S
C1363  H1379   1.104   .     S
C1363  H1377   1.103   .     S
C1363  H1378   1.108   .     S
C1364  H1385   1.081   .     S
C1364  H1387   1.101   .     S
C1364  C1365   1.526   .     S
C1365  H1383   1.104   .     S
C1365  H1384   1.099   .     S
C1365  H1382   1.114   .     S
C1366  O1405   1.313   .     A
C1366  C1368   1.395   .     S
C1366  O1408   1.320   .     A
C1367  O1407   1.313   .     A
C1367  C1369   1.395   .     S
C1367  O1406   1.320   .     A
C1369  C216    1.182   1_556 S
C1370  C1500   1.401   1_455 S
C1371  C1410   1.388   .     S
C1372  C1434   1.401   .     S
Cu1373 O1407   1.905   .     S
Cu1373 O1405   1.905   .     S
Cu1373 O1401   1.979   .     S
Cu1373 N1395   2.092   .     S
Cu1373 O1403   1.976   .     S
Cu1374 O1408   1.905   .     S
Cu1374 O1402   1.979   .     S
Cu1374 O1406   1.905   .     S
Cu1374 N1396   2.092   .     S
Cu1374 O1404   1.976   .     S
C1409  O1465   1.331   .     A
C1409  C1412   1.477   .     S
C1409  O1468   1.325   .     A
C1410  C1412   1.406   .     A
C1410  C1421   1.449   .     S
C1411  C1435   1.413   .     A
C1411  C1436   1.427   .     A
C1411  C1420   1.478   .     S
C1412  C1434   1.416   .     A
C1413  N1460   1.403   .     A
C1413  C1422   1.524   .     S
C1414  N1459   1.393   .     A
C1414  C1424   1.548   .     S
C1414  C1607   1.447   .     S
C1415  N1460   1.403   .     A
C1415  C1426   1.526   .     S
C1416  N1459   1.393   .     A
C1416  C1428   1.551   .     S
C1416  C1605   1.449   .     S
C1417  C1434   1.456   .     S
C1417  N1461   1.157   .     T
C1418  C1435   1.452   .     S
C1418  N1462   1.158   .     T
C1419  C1436   1.456   .     S
C1419  N1463   1.158   .     T
C1420  O1466   1.322   .     A
C1420  O1467   1.334   .     A
C1421  N1464   1.157   .     T
C1422  H1454   1.109   .     S
C1422  H1453   1.104   .     S
C1422  C1423   1.554   .     S
C1423  H1439   1.103   .     S
C1423  H1452   1.104   .     S
C1423  H1450   1.110   .     S
C1424  H1440   1.099   .     S
C1424  H1458   1.081   .     S
C1424  C1425   1.525   .     S
C1425  H1456   1.103   .     S
C1425  H1455   1.106   .     S
C1425  H1457   1.113   .     S
C1426  H1445   1.110   .     S
C1426  C1427   1.554   .     S
C1426  H1444   1.104   .     S
C1427  H1443   1.104   .     S
C1427  H1441   1.103   .     S
C1427  H1442   1.108   .     S
C1428  H1449   1.081   .     S
C1428  H1451   1.101   .     S
C1428  C1429   1.526   .     S
C1429  H1447   1.104   .     S
C1429  H1448   1.099   .     S
C1429  H1446   1.114   .     S
C1430  O1469   1.313   .     A
C1430  C1432   1.395   .     S
C1430  O1472   1.320   .     A
C1431  O1471   1.313   .     A
C1431  C1433   1.395   .     S
C1431  O1470   1.320   .     A
C1433  C280    1.182   1_556 S
C1435  C1474   1.388   .     S
C1436  C1498   1.401   .     S
Cu1437 O1471   1.905   .     S
Cu1437 O1469   1.905   .     S
Cu1437 O1465   1.979   .     S
Cu1437 N1459   2.092   .     S
Cu1437 O1467   1.976   .     S
Cu1438 O1472   1.905   .     S
Cu1438 O1466   1.979   .     S
Cu1438 O1470   1.905   .     S
Cu1438 N1460   2.092   .     S
Cu1438 O1468   1.976   .     S
C1473  O1529   1.331   .     A
C1473  C1476   1.477   .     S
C1473  O1532   1.325   .     A
C1474  C1476   1.406   .     A
C1474  C1485   1.449   .     S
C1475  C1499   1.413   .     A
C1475  C1500   1.427   .     A
C1475  C1484   1.478   .     S
C1476  C1498   1.416   .     A
C1477  N1524   1.403   .     A
C1477  C1486   1.524   .     S
C1478  N1523   1.393   .     A
C1478  C1488   1.548   .     S
C1478  C1671   1.447   .     S
C1479  N1524   1.403   .     A
C1479  C1490   1.526   .     S
C1480  N1523   1.393   .     A
C1480  C1492   1.551   .     S
C1480  C1669   1.449   .     S
C1481  C1498   1.456   .     S
C1481  N1525   1.157   .     T
C1482  C1499   1.452   .     S
C1482  N1526   1.158   .     T
C1483  C1500   1.456   .     S
C1483  N1527   1.158   .     T
C1484  O1530   1.322   .     A
C1484  O1531   1.334   .     A
C1485  N1528   1.157   .     T
C1486  H1518   1.109   .     S
C1486  H1517   1.104   .     S
C1486  C1487   1.554   .     S
C1487  H1503   1.103   .     S
C1487  H1516   1.104   .     S
C1487  H1514   1.110   .     S
C1488  H1504   1.099   .     S
C1488  H1522   1.081   .     S
C1488  C1489   1.525   .     S
C1489  H1520   1.103   .     S
C1489  H1519   1.106   .     S
C1489  H1521   1.113   .     S
C1490  H1509   1.110   .     S
C1490  C1491   1.554   .     S
C1490  H1508   1.104   .     S
C1491  H1507   1.104   .     S
C1491  H1505   1.103   .     S
C1491  H1506   1.108   .     S
C1492  H1513   1.081   .     S
C1492  H1515   1.101   .     S
C1492  C1493   1.526   .     S
C1493  H1511   1.104   .     S
C1493  H1512   1.099   .     S
C1493  H1510   1.114   .     S
C1494  O1533   1.313   .     A
C1494  C1496   1.395   .     S
C1494  O1536   1.320   .     A
C1495  O1535   1.313   .     A
C1495  C1497   1.395   .     S
C1495  O1534   1.320   .     A
C1497  C344    1.182   1_556 S
C1499  C1346   1.388   1_655 S
C1500  C1370   1.401   1_655 S
Cu1501 O1535   1.905   .     S
Cu1501 O1533   1.905   .     S
Cu1501 O1529   1.979   .     S
Cu1501 N1523   2.092   .     S
Cu1501 O1531   1.976   .     S
Cu1502 O1536   1.905   .     S
Cu1502 O1530   1.979   .     S
Cu1502 O1534   1.905   .     S
Cu1502 N1524   2.092   .     S
Cu1502 O1532   1.976   .     S
C1537  O1593   1.331   .     A
C1537  C1540   1.477   .     S
C1537  O1596   1.325   .     A
C1538  C1540   1.406   .     A
C1538  C1549   1.449   .     S
C1538  C1691   1.388   1_455 S
C1539  C1563   1.413   .     A
C1539  C1564   1.427   .     A
C1539  C1548   1.478   .     S
C1540  C1562   1.416   .     A
C1541  N1588   1.403   .     A
C1541  C1550   1.524   .     S
C1542  N1587   1.393   .     A
C1542  C1552   1.548   .     S
C1542  C1159   1.447   1_565 S
C1543  N1588   1.403   .     A
C1543  C1554   1.526   .     S
C1544  N1587   1.393   .     A
C1544  C1556   1.551   .     S
C1544  C1157   1.449   1_565 S
C1545  C1562   1.456   .     S
C1545  N1589   1.157   .     T
C1546  C1563   1.452   .     S
C1546  N1590   1.158   .     T
C1547  C1564   1.456   .     S
C1547  N1591   1.158   .     T
C1548  O1594   1.322   .     A
C1548  O1595   1.334   .     A
C1549  N1592   1.157   .     T
C1550  H1582   1.109   .     S
C1550  H1581   1.104   .     S
C1550  C1551   1.554   .     S
C1551  H1567   1.103   .     S
C1551  H1580   1.104   .     S
C1551  H1578   1.110   .     S
C1552  H1568   1.099   .     S
C1552  H1586   1.081   .     S
C1552  C1553   1.525   .     S
C1553  H1584   1.103   .     S
C1553  H1583   1.106   .     S
C1553  H1585   1.113   .     S
C1554  H1573   1.110   .     S
C1554  C1555   1.554   .     S
C1554  H1572   1.104   .     S
C1555  H1571   1.104   .     S
C1555  H1569   1.103   .     S
C1555  H1570   1.108   .     S
C1556  H1577   1.081   .     S
C1556  H1579   1.101   .     S
C1556  C1557   1.526   .     S
C1557  H1575   1.104   .     S
C1557  H1576   1.099   .     S
C1557  H1574   1.114   .     S
C1558  O1597   1.313   .     A
C1558  C1560   1.395   .     S
C1558  O1600   1.320   .     A
C1559  O1599   1.313   .     A
C1559  C1561   1.395   .     S
C1559  O1598   1.320   .     A
C1561  C408    1.182   1_556 S
C1562  C1692   1.401   1_455 S
C1563  C1602   1.388   .     S
C1564  C1626   1.401   .     S
Cu1565 O1599   1.905   .     S
Cu1565 O1597   1.905   .     S
Cu1565 O1593   1.979   .     S
Cu1565 N1587   2.092   .     S
Cu1565 O1595   1.976   .     S
Cu1566 O1600   1.905   .     S
Cu1566 O1594   1.979   .     S
Cu1566 O1598   1.905   .     S
Cu1566 N1588   2.092   .     S
Cu1566 O1596   1.976   .     S
C1601  O1657   1.331   .     A
C1601  C1604   1.477   .     S
C1601  O1660   1.325   .     A
C1602  C1604   1.406   .     A
C1602  C1613   1.449   .     S
C1603  C1627   1.413   .     A
C1603  C1628   1.427   .     A
C1603  C1612   1.478   .     S
C1604  C1626   1.416   .     A
C1605  N1652   1.403   .     A
C1605  C1614   1.524   .     S
C1606  N1651   1.393   .     A
C1606  C1616   1.548   .     S
C1606  C1223   1.447   1_565 S
C1607  N1652   1.403   .     A
C1607  C1618   1.526   .     S
C1608  N1651   1.393   .     A
C1608  C1620   1.551   .     S
C1608  C1221   1.449   1_565 S
C1609  C1626   1.456   .     S
C1609  N1653   1.157   .     T
C1610  C1627   1.452   .     S
C1610  N1654   1.158   .     T
C1611  C1628   1.456   .     S
C1611  N1655   1.158   .     T
C1612  O1658   1.322   .     A
C1612  O1659   1.334   .     A
C1613  N1656   1.157   .     T
C1614  H1646   1.109   .     S
C1614  H1645   1.104   .     S
C1614  C1615   1.554   .     S
C1615  H1631   1.103   .     S
C1615  H1644   1.104   .     S
C1615  H1642   1.110   .     S
C1616  H1632   1.099   .     S
C1616  H1650   1.081   .     S
C1616  C1617   1.525   .     S
C1617  H1648   1.103   .     S
C1617  H1647   1.106   .     S
C1617  H1649   1.113   .     S
C1618  H1637   1.110   .     S
C1618  C1619   1.554   .     S
C1618  H1636   1.104   .     S
C1619  H1635   1.104   .     S
C1619  H1633   1.103   .     S
C1619  H1634   1.108   .     S
C1620  H1641   1.081   .     S
C1620  H1643   1.101   .     S
C1620  C1621   1.526   .     S
C1621  H1639   1.104   .     S
C1621  H1640   1.099   .     S
C1621  H1638   1.114   .     S
C1622  O1661   1.313   .     A
C1622  C1624   1.395   .     S
C1622  O1664   1.320   .     A
C1623  O1663   1.313   .     A
C1623  C1625   1.395   .     S
C1623  O1662   1.320   .     A
C1625  C472    1.182   1_556 S
C1627  C1666   1.388   .     S
C1628  C1690   1.401   .     S
Cu1629 O1663   1.905   .     S
Cu1629 O1661   1.905   .     S
Cu1629 O1657   1.979   .     S
Cu1629 N1651   2.092   .     S
Cu1629 O1659   1.976   .     S
Cu1630 O1664   1.905   .     S
Cu1630 O1658   1.979   .     S
Cu1630 O1662   1.905   .     S
Cu1630 N1652   2.092   .     S
Cu1630 O1660   1.976   .     S
C1665  O1721   1.331   .     A
C1665  C1668   1.477   .     S
C1665  O1724   1.325   .     A
C1666  C1668   1.406   .     A
C1666  C1677   1.449   .     S
C1667  C1691   1.413   .     A
C1667  C1692   1.427   .     A
C1667  C1676   1.478   .     S
C1668  C1690   1.416   .     A
C1669  N1716   1.403   .     A
C1669  C1678   1.524   .     S
C1670  N1715   1.393   .     A
C1670  C1680   1.548   .     S
C1670  C1287   1.447   1_565 S
C1671  N1716   1.403   .     A
C1671  C1682   1.526   .     S
C1672  N1715   1.393   .     A
C1672  C1684   1.551   .     S
C1672  C1285   1.449   1_565 S
C1673  C1690   1.456   .     S
C1673  N1717   1.157   .     T
C1674  C1691   1.452   .     S
C1674  N1718   1.158   .     T
C1675  C1692   1.456   .     S
C1675  N1719   1.158   .     T
C1676  O1722   1.322   .     A
C1676  O1723   1.334   .     A
C1677  N1720   1.157   .     T
C1678  H1710   1.109   .     S
C1678  H1709   1.104   .     S
C1678  C1679   1.554   .     S
C1679  H1695   1.103   .     S
C1679  H1708   1.104   .     S
C1679  H1706   1.110   .     S
C1680  H1696   1.099   .     S
C1680  H1714   1.081   .     S
C1680  C1681   1.525   .     S
C1681  H1712   1.103   .     S
C1681  H1711   1.106   .     S
C1681  H1713   1.113   .     S
C1682  H1701   1.110   .     S
C1682  C1683   1.554   .     S
C1682  H1700   1.104   .     S
C1683  H1699   1.104   .     S
C1683  H1697   1.103   .     S
C1683  H1698   1.108   .     S
C1684  H1705   1.081   .     S
C1684  H1707   1.101   .     S
C1684  C1685   1.526   .     S
C1685  H1703   1.104   .     S
C1685  H1704   1.099   .     S
C1685  H1702   1.114   .     S
C1686  O1725   1.313   .     A
C1686  C1688   1.395   .     S
C1686  O1728   1.320   .     A
C1687  O1727   1.313   .     A
C1687  C1689   1.395   .     S
C1687  O1726   1.320   .     A
C1689  C536    1.182   1_556 S
C1691  C1538   1.388   1_655 S
C1692  C1562   1.401   1_655 S
Cu1693 O1727   1.905   .     S
Cu1693 O1725   1.905   .     S
Cu1693 O1721   1.979   .     S
Cu1693 N1715   2.092   .     S
Cu1693 O1723   1.976   .     S
Cu1694 O1728   1.905   .     S
Cu1694 O1722   1.979   .     S
Cu1694 O1726   1.905   .     S
Cu1694 N1716   2.092   .     S
Cu1694 O1724   1.976   .     S
