data_str_m3_o10_o16_pcu_sym.54
_audit_creation_date              2020-01-03
_audit_creation_method            'Materials Studio'
_symmetry_space_group_name_H-M    'P1'
_symmetry_Int_Tables_number       1
_symmetry_cell_setting            triclinic
loop_
_symmetry_equiv_pos_as_xyz
  x,y,z
_cell_length_a                    23.4797
_cell_length_b                    25.6256
_cell_length_c                    24.2392
_cell_angle_alpha                 91.6436
_cell_angle_beta                  101.3214
_cell_angle_gamma                 94.1847
loop_
_atom_site_label
_atom_site_type_symbol
_atom_site_fract_x
_atom_site_fract_y
_atom_site_fract_z
_atom_site_U_iso_or_equiv
_atom_site_adp_type
_atom_site_occupancy
O1     O     0.29769   0.24629   0.25357   0.00000  Uiso   1.00
O2     O     0.05742   0.23704   0.24423   0.00000  Uiso   1.00
C3     C     0.01597   0.26492   0.25279   0.00000  Uiso   1.00
O4     O     0.31490   0.17358   0.33380   0.00000  Uiso   1.00
O5     O     0.07463   0.16433   0.32446   0.00000  Uiso   1.00
C6     C     0.03556   0.16910   0.35517   0.00000  Uiso   1.00
Zn7    Zn    0.27119   0.17284   0.25623   0.00000  Uiso   1.00
Zn8    Zn    0.06214   0.16049   0.24376   0.00000  Uiso   1.00
O9     O     0.27592   0.09629   0.25576   0.00000  Uiso   1.00
O10    O     0.03565   0.08704   0.24642   0.00000  Uiso   1.00
O11    O     0.25870   0.16901   0.17554   0.00000  Uiso   1.00
O12    O     0.01843   0.15976   0.16620   0.00000  Uiso   1.00
C13    C     0.31999   0.06873   0.25596   0.00000  Uiso   1.00
C14    C     0.29733   0.16167   0.14491   0.00000  Uiso   1.00
C15    C     0.26011   0.08403   0.00825   0.00000  Uiso   1.00
H16    H     0.18406   0.04782   0.41620   0.00000  Uiso   1.00
H17    H     0.27377   0.05053   0.48764   0.00000  Uiso   1.00
C18    C     0.27643   0.14865   0.08549   0.00000  Uiso   1.00
C19    C     0.02852   0.20755   0.44748   0.00000  Uiso   1.00
C20    C     0.05420   0.22036   0.00328   0.00000  Uiso   1.00
C21    C     0.10696   0.20079   0.02661   0.00000  Uiso   1.00
C22    C     0.13290   0.16515   0.49506   0.00000  Uiso   1.00
C23    C     0.10208   0.14657   0.44157   0.00000  Uiso   1.00
C24    C     0.18832   0.14713   0.01474   0.00000  Uiso   1.00
C25    C     0.20686   0.10416   0.48658   0.00000  Uiso   1.00
C26    C     0.17167   0.08156   0.43753   0.00000  Uiso   1.00
C27    C     0.12060   0.10329   0.41443   0.00000  Uiso   1.00
C28    C     0.22598   0.17107   0.06145   0.00000  Uiso   1.00
C29    C     0.29512   0.10548   0.05814   0.00000  Uiso   1.00
C30    C     0.05378   0.17232   0.41598   0.00000  Uiso   1.00
H31    H     0.21546   0.20596   0.08215   0.00000  Uiso   1.00
H32    H     0.32371   0.22675   0.42832   0.00000  Uiso   1.00
H33    H     0.12539   0.21268   0.06987   0.00000  Uiso   1.00
H34    H     0.03457   0.24731   0.02777   0.00000  Uiso   1.00
H35    H     0.09526   0.08530   0.37553   0.00000  Uiso   1.00
C36    C     0.02391   0.31983   0.25472   0.00000  Uiso   1.00
H37    H     0.05612   0.00214   0.23153   0.00000  Uiso   1.00
C38    C     0.31879   0.01606   0.27317   0.00000  Uiso   1.00
N39    N     0.14493   0.15223   0.23542   0.00000  Uiso   1.00
H40    H     0.15667   0.12515   0.20839   0.00000  Uiso   1.00
N41    N     0.18840   0.18110   0.26457   0.00000  Uiso   1.00
H42    H     0.17668   0.20819   0.29162   0.00000  Uiso   1.00
N43    N     0.01344   0.08081   0.08191   0.00000  Uiso   1.00
O44    O     0.06375   0.10779   0.09206   0.00000  Uiso   1.00
O45    O     0.01196   0.02997   0.08268   0.00000  Uiso   1.00
C46    C     0.28038   0.33253   0.31483   0.00000  Uiso   1.00
C47    C     0.29117   0.03573   0.36729   0.00000  Uiso   1.00
H48    H     0.00512   0.04199   0.38552   0.00000  Uiso   1.00
H49    H     0.27286   0.07395   0.35788   0.00000  Uiso   1.00
H50    H     0.26952   0.01693   0.39911   0.00000  Uiso   1.00
H51    H     0.23373   0.33129   0.29376   0.00000  Uiso   1.00
H52    H     0.28935   0.29352   0.33148   0.00000  Uiso   1.00
O53    O     0.63102   0.24629   0.25357   0.00000  Uiso   1.00
O54    O     0.39075   0.23704   0.24423   0.00000  Uiso   1.00
C55    C     0.34931   0.26492   0.25279   0.00000  Uiso   1.00
O56    O     0.64823   0.17358   0.33380   0.00000  Uiso   1.00
O57    O     0.40796   0.16433   0.32446   0.00000  Uiso   1.00
C58    C     0.36889   0.16910   0.35517   0.00000  Uiso   1.00
Zn59   Zn    0.60453   0.17284   0.25623   0.00000  Uiso   1.00
Zn60   Zn    0.39547   0.16049   0.24376   0.00000  Uiso   1.00
O61    O     0.60925   0.09629   0.25576   0.00000  Uiso   1.00
O62    O     0.36898   0.08704   0.24642   0.00000  Uiso   1.00
O63    O     0.59204   0.16901   0.17554   0.00000  Uiso   1.00
O64    O     0.35177   0.15976   0.16620   0.00000  Uiso   1.00
C65    C     0.65332   0.06873   0.25596   0.00000  Uiso   1.00
C66    C     0.63066   0.16167   0.14491   0.00000  Uiso   1.00
C67    C     0.59344   0.08403   0.00825   0.00000  Uiso   1.00
H68    H     0.51739   0.04782   0.41620   0.00000  Uiso   1.00
H69    H     0.60710   0.05053   0.48764   0.00000  Uiso   1.00
C70    C     0.60976   0.14865   0.08549   0.00000  Uiso   1.00
C71    C     0.36185   0.20755   0.44748   0.00000  Uiso   1.00
C72    C     0.38753   0.22036   0.00328   0.00000  Uiso   1.00
C73    C     0.44029   0.20079   0.02661   0.00000  Uiso   1.00
C74    C     0.46624   0.16515   0.49506   0.00000  Uiso   1.00
C75    C     0.43542   0.14657   0.44157   0.00000  Uiso   1.00
C76    C     0.52165   0.14713   0.01474   0.00000  Uiso   1.00
C77    C     0.54019   0.10416   0.48658   0.00000  Uiso   1.00
C78    C     0.50500   0.08156   0.43753   0.00000  Uiso   1.00
C79    C     0.45393   0.10329   0.41443   0.00000  Uiso   1.00
C80    C     0.55931   0.17107   0.06145   0.00000  Uiso   1.00
C81    C     0.62846   0.10548   0.05814   0.00000  Uiso   1.00
C82    C     0.38711   0.17232   0.41598   0.00000  Uiso   1.00
H83    H     0.54880   0.20596   0.08215   0.00000  Uiso   1.00
H84    H     0.65704   0.22675   0.42832   0.00000  Uiso   1.00
H85    H     0.45873   0.21268   0.06987   0.00000  Uiso   1.00
H86    H     0.36790   0.24731   0.02777   0.00000  Uiso   1.00
H87    H     0.42859   0.08530   0.37553   0.00000  Uiso   1.00
C88    C     0.35724   0.31983   0.25472   0.00000  Uiso   1.00
H89    H     0.38945   0.00214   0.23153   0.00000  Uiso   1.00
C90    C     0.65213   0.01606   0.27317   0.00000  Uiso   1.00
N91    N     0.47827   0.15223   0.23542   0.00000  Uiso   1.00
H92    H     0.49000   0.12515   0.20839   0.00000  Uiso   1.00
N93    N     0.52173   0.18110   0.26457   0.00000  Uiso   1.00
H94    H     0.51001   0.20819   0.29162   0.00000  Uiso   1.00
N95    N     0.34677   0.08081   0.08191   0.00000  Uiso   1.00
O96    O     0.39709   0.10779   0.09206   0.00000  Uiso   1.00
O97    O     0.34529   0.02997   0.08268   0.00000  Uiso   1.00
C98    C     0.61371   0.33253   0.31483   0.00000  Uiso   1.00
C99    C     0.62451   0.03573   0.36729   0.00000  Uiso   1.00
H100   H     0.33846   0.04199   0.38552   0.00000  Uiso   1.00
H101   H     0.60620   0.07395   0.35788   0.00000  Uiso   1.00
H102   H     0.60285   0.01693   0.39911   0.00000  Uiso   1.00
H103   H     0.56707   0.33129   0.29376   0.00000  Uiso   1.00
H104   H     0.62269   0.29352   0.33148   0.00000  Uiso   1.00
O105   O     0.96435   0.24629   0.25357   0.00000  Uiso   1.00
O106   O     0.72408   0.23704   0.24423   0.00000  Uiso   1.00
C107   C     0.68264   0.26492   0.25279   0.00000  Uiso   1.00
O108   O     0.98157   0.17358   0.33380   0.00000  Uiso   1.00
O109   O     0.74130   0.16433   0.32446   0.00000  Uiso   1.00
C110   C     0.70223   0.16910   0.35517   0.00000  Uiso   1.00
Zn111  Zn    0.93786   0.17284   0.25623   0.00000  Uiso   1.00
Zn112  Zn    0.72881   0.16049   0.24376   0.00000  Uiso   1.00
O113   O     0.94258   0.09629   0.25576   0.00000  Uiso   1.00
O114   O     0.70231   0.08704   0.24642   0.00000  Uiso   1.00
O115   O     0.92537   0.16901   0.17554   0.00000  Uiso   1.00
O116   O     0.68510   0.15976   0.16620   0.00000  Uiso   1.00
C117   C     0.98665   0.06873   0.25596   0.00000  Uiso   1.00
C118   C     0.96400   0.16167   0.14491   0.00000  Uiso   1.00
C119   C     0.92677   0.08403   0.00825   0.00000  Uiso   1.00
H120   H     0.85072   0.04782   0.41620   0.00000  Uiso   1.00
H121   H     0.94043   0.05053   0.48764   0.00000  Uiso   1.00
C122   C     0.94310   0.14865   0.08549   0.00000  Uiso   1.00
C123   C     0.69518   0.20755   0.44748   0.00000  Uiso   1.00
C124   C     0.72086   0.22036   0.00328   0.00000  Uiso   1.00
C125   C     0.77362   0.20079   0.02661   0.00000  Uiso   1.00
C126   C     0.79957   0.16515   0.49506   0.00000  Uiso   1.00
C127   C     0.76875   0.14657   0.44157   0.00000  Uiso   1.00
C128   C     0.85498   0.14713   0.01474   0.00000  Uiso   1.00
C129   C     0.87352   0.10416   0.48658   0.00000  Uiso   1.00
C130   C     0.83833   0.08156   0.43753   0.00000  Uiso   1.00
C131   C     0.78726   0.10329   0.41443   0.00000  Uiso   1.00
C132   C     0.89265   0.17107   0.06145   0.00000  Uiso   1.00
C133   C     0.96179   0.10548   0.05814   0.00000  Uiso   1.00
C134   C     0.72044   0.17232   0.41598   0.00000  Uiso   1.00
H135   H     0.88213   0.20596   0.08215   0.00000  Uiso   1.00
H136   H     0.99037   0.22675   0.42832   0.00000  Uiso   1.00
H137   H     0.79206   0.21268   0.06987   0.00000  Uiso   1.00
H138   H     0.70123   0.24731   0.02777   0.00000  Uiso   1.00
H139   H     0.76192   0.08530   0.37553   0.00000  Uiso   1.00
C140   C     0.69057   0.31983   0.25472   0.00000  Uiso   1.00
H141   H     0.72279   0.00214   0.23153   0.00000  Uiso   1.00
C142   C     0.98546   0.01606   0.27317   0.00000  Uiso   1.00
N143   N     0.81160   0.15223   0.23542   0.00000  Uiso   1.00
H144   H     0.82333   0.12515   0.20839   0.00000  Uiso   1.00
N145   N     0.85507   0.18110   0.26457   0.00000  Uiso   1.00
H146   H     0.84335   0.20819   0.29162   0.00000  Uiso   1.00
N147   N     0.68010   0.08081   0.08191   0.00000  Uiso   1.00
O148   O     0.73042   0.10779   0.09206   0.00000  Uiso   1.00
O149   O     0.67862   0.02997   0.08268   0.00000  Uiso   1.00
C150   C     0.94704   0.33253   0.31483   0.00000  Uiso   1.00
C151   C     0.95784   0.03573   0.36729   0.00000  Uiso   1.00
H152   H     0.67179   0.04199   0.38552   0.00000  Uiso   1.00
H153   H     0.93953   0.07395   0.35788   0.00000  Uiso   1.00
H154   H     0.93618   0.01693   0.39911   0.00000  Uiso   1.00
H155   H     0.90040   0.33129   0.29376   0.00000  Uiso   1.00
H156   H     0.95602   0.29352   0.33148   0.00000  Uiso   1.00
O157   O     0.29769   0.57963   0.25357   0.00000  Uiso   1.00
O158   O     0.05742   0.57038   0.24423   0.00000  Uiso   1.00
C159   C     0.01597   0.59825   0.25279   0.00000  Uiso   1.00
O160   O     0.31490   0.50691   0.33380   0.00000  Uiso   1.00
O161   O     0.07463   0.49766   0.32446   0.00000  Uiso   1.00
C162   C     0.03556   0.50243   0.35517   0.00000  Uiso   1.00
Zn163  Zn    0.27119   0.50618   0.25623   0.00000  Uiso   1.00
Zn164  Zn    0.06214   0.49382   0.24376   0.00000  Uiso   1.00
O165   O     0.27592   0.42962   0.25576   0.00000  Uiso   1.00
O166   O     0.03565   0.42037   0.24642   0.00000  Uiso   1.00
O167   O     0.25870   0.50234   0.17554   0.00000  Uiso   1.00
O168   O     0.01843   0.49309   0.16620   0.00000  Uiso   1.00
C169   C     0.31999   0.40206   0.25596   0.00000  Uiso   1.00
C170   C     0.29733   0.49500   0.14491   0.00000  Uiso   1.00
C171   C     0.26011   0.41737   0.00825   0.00000  Uiso   1.00
H172   H     0.18406   0.38115   0.41620   0.00000  Uiso   1.00
H173   H     0.27377   0.38386   0.48764   0.00000  Uiso   1.00
C174   C     0.27643   0.48198   0.08549   0.00000  Uiso   1.00
C175   C     0.02852   0.54088   0.44748   0.00000  Uiso   1.00
C176   C     0.05420   0.55369   0.00328   0.00000  Uiso   1.00
C177   C     0.10696   0.53413   0.02661   0.00000  Uiso   1.00
C178   C     0.13290   0.49849   0.49506   0.00000  Uiso   1.00
C179   C     0.10208   0.47990   0.44157   0.00000  Uiso   1.00
C180   C     0.18832   0.48046   0.01474   0.00000  Uiso   1.00
C181   C     0.20686   0.43750   0.48658   0.00000  Uiso   1.00
C182   C     0.17167   0.41489   0.43753   0.00000  Uiso   1.00
C183   C     0.12060   0.43662   0.41443   0.00000  Uiso   1.00
C184   C     0.22598   0.50441   0.06145   0.00000  Uiso   1.00
C185   C     0.29512   0.43882   0.05814   0.00000  Uiso   1.00
C186   C     0.05378   0.50565   0.41598   0.00000  Uiso   1.00
H187   H     0.21546   0.53929   0.08215   0.00000  Uiso   1.00
H188   H     0.32371   0.56009   0.42832   0.00000  Uiso   1.00
H189   H     0.12539   0.54601   0.06987   0.00000  Uiso   1.00
H190   H     0.03457   0.58065   0.02777   0.00000  Uiso   1.00
H191   H     0.09526   0.41863   0.37553   0.00000  Uiso   1.00
C192   C     0.02391   0.65316   0.25472   0.00000  Uiso   1.00
H193   H     0.05612   0.33547   0.23153   0.00000  Uiso   1.00
C194   C     0.31879   0.34940   0.27317   0.00000  Uiso   1.00
N195   N     0.14493   0.48556   0.23542   0.00000  Uiso   1.00
H196   H     0.15667   0.45849   0.20839   0.00000  Uiso   1.00
N197   N     0.18840   0.51444   0.26457   0.00000  Uiso   1.00
H198   H     0.17668   0.54152   0.29162   0.00000  Uiso   1.00
N199   N     0.01344   0.41414   0.08191   0.00000  Uiso   1.00
O200   O     0.06375   0.44112   0.09206   0.00000  Uiso   1.00
O201   O     0.01196   0.36331   0.08268   0.00000  Uiso   1.00
C202   C     0.28038   0.66587   0.31483   0.00000  Uiso   1.00
C203   C     0.29117   0.36907   0.36729   0.00000  Uiso   1.00
H204   H     0.00512   0.37532   0.38552   0.00000  Uiso   1.00
H205   H     0.27286   0.40728   0.35788   0.00000  Uiso   1.00
H206   H     0.26952   0.35026   0.39911   0.00000  Uiso   1.00
H207   H     0.23373   0.66462   0.29376   0.00000  Uiso   1.00
H208   H     0.28935   0.62685   0.33148   0.00000  Uiso   1.00
O209   O     0.63102   0.57963   0.25357   0.00000  Uiso   1.00
O210   O     0.39075   0.57038   0.24423   0.00000  Uiso   1.00
C211   C     0.34931   0.59825   0.25279   0.00000  Uiso   1.00
O212   O     0.64823   0.50691   0.33380   0.00000  Uiso   1.00
O213   O     0.40796   0.49766   0.32446   0.00000  Uiso   1.00
C214   C     0.36889   0.50243   0.35517   0.00000  Uiso   1.00
Zn215  Zn    0.60453   0.50618   0.25623   0.00000  Uiso   1.00
Zn216  Zn    0.39547   0.49382   0.24376   0.00000  Uiso   1.00
O217   O     0.60925   0.42962   0.25576   0.00000  Uiso   1.00
O218   O     0.36898   0.42037   0.24642   0.00000  Uiso   1.00
O219   O     0.59204   0.50234   0.17554   0.00000  Uiso   1.00
O220   O     0.35177   0.49309   0.16620   0.00000  Uiso   1.00
C221   C     0.65332   0.40206   0.25596   0.00000  Uiso   1.00
C222   C     0.63066   0.49500   0.14491   0.00000  Uiso   1.00
C223   C     0.59344   0.41737   0.00825   0.00000  Uiso   1.00
H224   H     0.51739   0.38115   0.41620   0.00000  Uiso   1.00
H225   H     0.60710   0.38386   0.48764   0.00000  Uiso   1.00
C226   C     0.60976   0.48198   0.08549   0.00000  Uiso   1.00
C227   C     0.36185   0.54088   0.44748   0.00000  Uiso   1.00
C228   C     0.38753   0.55369   0.00328   0.00000  Uiso   1.00
C229   C     0.44029   0.53413   0.02661   0.00000  Uiso   1.00
C230   C     0.46624   0.49849   0.49506   0.00000  Uiso   1.00
C231   C     0.43542   0.47990   0.44157   0.00000  Uiso   1.00
C232   C     0.52165   0.48046   0.01474   0.00000  Uiso   1.00
C233   C     0.54019   0.43750   0.48658   0.00000  Uiso   1.00
C234   C     0.50500   0.41489   0.43753   0.00000  Uiso   1.00
C235   C     0.45393   0.43662   0.41443   0.00000  Uiso   1.00
C236   C     0.55931   0.50441   0.06145   0.00000  Uiso   1.00
C237   C     0.62846   0.43882   0.05814   0.00000  Uiso   1.00
C238   C     0.38711   0.50565   0.41598   0.00000  Uiso   1.00
H239   H     0.54880   0.53929   0.08215   0.00000  Uiso   1.00
H240   H     0.65704   0.56009   0.42832   0.00000  Uiso   1.00
H241   H     0.45873   0.54601   0.06987   0.00000  Uiso   1.00
H242   H     0.36790   0.58065   0.02777   0.00000  Uiso   1.00
H243   H     0.42859   0.41863   0.37553   0.00000  Uiso   1.00
C244   C     0.35724   0.65316   0.25472   0.00000  Uiso   1.00
H245   H     0.38945   0.33547   0.23153   0.00000  Uiso   1.00
C246   C     0.65213   0.34940   0.27317   0.00000  Uiso   1.00
N247   N     0.47827   0.48556   0.23542   0.00000  Uiso   1.00
H248   H     0.49000   0.45849   0.20839   0.00000  Uiso   1.00
N249   N     0.52173   0.51444   0.26457   0.00000  Uiso   1.00
H250   H     0.51001   0.54152   0.29162   0.00000  Uiso   1.00
N251   N     0.34677   0.41414   0.08191   0.00000  Uiso   1.00
O252   O     0.39709   0.44112   0.09206   0.00000  Uiso   1.00
O253   O     0.34529   0.36331   0.08268   0.00000  Uiso   1.00
C254   C     0.61371   0.66587   0.31483   0.00000  Uiso   1.00
C255   C     0.62451   0.36907   0.36729   0.00000  Uiso   1.00
H256   H     0.33846   0.37532   0.38552   0.00000  Uiso   1.00
H257   H     0.60620   0.40728   0.35788   0.00000  Uiso   1.00
H258   H     0.60285   0.35026   0.39911   0.00000  Uiso   1.00
H259   H     0.56707   0.66462   0.29376   0.00000  Uiso   1.00
H260   H     0.62269   0.62685   0.33148   0.00000  Uiso   1.00
O261   O     0.96435   0.57963   0.25357   0.00000  Uiso   1.00
O262   O     0.72408   0.57038   0.24423   0.00000  Uiso   1.00
C263   C     0.68264   0.59825   0.25279   0.00000  Uiso   1.00
O264   O     0.98157   0.50691   0.33380   0.00000  Uiso   1.00
O265   O     0.74130   0.49766   0.32446   0.00000  Uiso   1.00
C266   C     0.70223   0.50243   0.35517   0.00000  Uiso   1.00
Zn267  Zn    0.93786   0.50618   0.25623   0.00000  Uiso   1.00
Zn268  Zn    0.72881   0.49382   0.24376   0.00000  Uiso   1.00
O269   O     0.94258   0.42962   0.25576   0.00000  Uiso   1.00
O270   O     0.70231   0.42037   0.24642   0.00000  Uiso   1.00
O271   O     0.92537   0.50234   0.17554   0.00000  Uiso   1.00
O272   O     0.68510   0.49309   0.16620   0.00000  Uiso   1.00
C273   C     0.98665   0.40206   0.25596   0.00000  Uiso   1.00
C274   C     0.96400   0.49500   0.14491   0.00000  Uiso   1.00
C275   C     0.92677   0.41737   0.00825   0.00000  Uiso   1.00
H276   H     0.85072   0.38115   0.41620   0.00000  Uiso   1.00
H277   H     0.94043   0.38386   0.48764   0.00000  Uiso   1.00
C278   C     0.94310   0.48198   0.08549   0.00000  Uiso   1.00
C279   C     0.69518   0.54088   0.44748   0.00000  Uiso   1.00
C280   C     0.72086   0.55369   0.00328   0.00000  Uiso   1.00
C281   C     0.77362   0.53413   0.02661   0.00000  Uiso   1.00
C282   C     0.79957   0.49849   0.49506   0.00000  Uiso   1.00
C283   C     0.76875   0.47990   0.44157   0.00000  Uiso   1.00
C284   C     0.85498   0.48046   0.01474   0.00000  Uiso   1.00
C285   C     0.87352   0.43750   0.48658   0.00000  Uiso   1.00
C286   C     0.83833   0.41489   0.43753   0.00000  Uiso   1.00
C287   C     0.78726   0.43662   0.41443   0.00000  Uiso   1.00
C288   C     0.89265   0.50441   0.06145   0.00000  Uiso   1.00
C289   C     0.96179   0.43882   0.05814   0.00000  Uiso   1.00
C290   C     0.72044   0.50565   0.41598   0.00000  Uiso   1.00
H291   H     0.88213   0.53929   0.08215   0.00000  Uiso   1.00
H292   H     0.99037   0.56009   0.42832   0.00000  Uiso   1.00
H293   H     0.79206   0.54601   0.06987   0.00000  Uiso   1.00
H294   H     0.70123   0.58065   0.02777   0.00000  Uiso   1.00
H295   H     0.76192   0.41863   0.37553   0.00000  Uiso   1.00
C296   C     0.69057   0.65316   0.25472   0.00000  Uiso   1.00
H297   H     0.72279   0.33547   0.23153   0.00000  Uiso   1.00
C298   C     0.98546   0.34940   0.27317   0.00000  Uiso   1.00
N299   N     0.81160   0.48556   0.23542   0.00000  Uiso   1.00
H300   H     0.82333   0.45849   0.20839   0.00000  Uiso   1.00
N301   N     0.85507   0.51444   0.26457   0.00000  Uiso   1.00
H302   H     0.84335   0.54152   0.29162   0.00000  Uiso   1.00
N303   N     0.68010   0.41414   0.08191   0.00000  Uiso   1.00
O304   O     0.73042   0.44112   0.09206   0.00000  Uiso   1.00
O305   O     0.67862   0.36331   0.08268   0.00000  Uiso   1.00
C306   C     0.94704   0.66587   0.31483   0.00000  Uiso   1.00
C307   C     0.95784   0.36907   0.36729   0.00000  Uiso   1.00
H308   H     0.67179   0.37532   0.38552   0.00000  Uiso   1.00
H309   H     0.93953   0.40728   0.35788   0.00000  Uiso   1.00
H310   H     0.93618   0.35026   0.39911   0.00000  Uiso   1.00
H311   H     0.90040   0.66462   0.29376   0.00000  Uiso   1.00
H312   H     0.95602   0.62685   0.33148   0.00000  Uiso   1.00
O313   O     0.29769   0.91296   0.25357   0.00000  Uiso   1.00
O314   O     0.05742   0.90371   0.24423   0.00000  Uiso   1.00
C315   C     0.01597   0.93159   0.25279   0.00000  Uiso   1.00
O316   O     0.31490   0.84024   0.33380   0.00000  Uiso   1.00
O317   O     0.07463   0.83099   0.32446   0.00000  Uiso   1.00
C318   C     0.03556   0.83576   0.35517   0.00000  Uiso   1.00
Zn319  Zn    0.27119   0.83951   0.25623   0.00000  Uiso   1.00
Zn320  Zn    0.06214   0.82716   0.24376   0.00000  Uiso   1.00
O321   O     0.27592   0.76296   0.25576   0.00000  Uiso   1.00
O322   O     0.03565   0.75371   0.24642   0.00000  Uiso   1.00
O323   O     0.25870   0.83567   0.17554   0.00000  Uiso   1.00
O324   O     0.01843   0.82642   0.16620   0.00000  Uiso   1.00
C325   C     0.31999   0.73539   0.25596   0.00000  Uiso   1.00
C326   C     0.29733   0.82834   0.14491   0.00000  Uiso   1.00
C327   C     0.26011   0.75070   0.00825   0.00000  Uiso   1.00
H328   H     0.18406   0.71449   0.41620   0.00000  Uiso   1.00
H329   H     0.27377   0.71719   0.48764   0.00000  Uiso   1.00
C330   C     0.27643   0.81531   0.08549   0.00000  Uiso   1.00
C331   C     0.02852   0.87422   0.44748   0.00000  Uiso   1.00
C332   C     0.05420   0.88702   0.00328   0.00000  Uiso   1.00
C333   C     0.10696   0.86746   0.02661   0.00000  Uiso   1.00
C334   C     0.13290   0.83182   0.49506   0.00000  Uiso   1.00
C335   C     0.10208   0.81324   0.44157   0.00000  Uiso   1.00
C336   C     0.18832   0.81380   0.01474   0.00000  Uiso   1.00
C337   C     0.20686   0.77083   0.48658   0.00000  Uiso   1.00
C338   C     0.17167   0.74822   0.43753   0.00000  Uiso   1.00
C339   C     0.12060   0.76996   0.41443   0.00000  Uiso   1.00
C340   C     0.22598   0.83774   0.06145   0.00000  Uiso   1.00
C341   C     0.29512   0.77215   0.05814   0.00000  Uiso   1.00
C342   C     0.05378   0.83899   0.41598   0.00000  Uiso   1.00
H343   H     0.21546   0.87262   0.08215   0.00000  Uiso   1.00
H344   H     0.32371   0.89342   0.42832   0.00000  Uiso   1.00
H345   H     0.12539   0.87934   0.06987   0.00000  Uiso   1.00
H346   H     0.03457   0.91398   0.02777   0.00000  Uiso   1.00
H347   H     0.09526   0.75197   0.37553   0.00000  Uiso   1.00
C348   C     0.02391   0.98650   0.25472   0.00000  Uiso   1.00
H349   H     0.05612   0.66880   0.23153   0.00000  Uiso   1.00
C350   C     0.31879   0.68273   0.27317   0.00000  Uiso   1.00
N351   N     0.14493   0.81890   0.23542   0.00000  Uiso   1.00
H352   H     0.15667   0.79182   0.20839   0.00000  Uiso   1.00
N353   N     0.18840   0.84777   0.26457   0.00000  Uiso   1.00
H354   H     0.17668   0.87485   0.29162   0.00000  Uiso   1.00
N355   N     0.01344   0.74748   0.08191   0.00000  Uiso   1.00
O356   O     0.06375   0.77446   0.09206   0.00000  Uiso   1.00
O357   O     0.01196   0.69664   0.08268   0.00000  Uiso   1.00
C358   C     0.28038   0.99920   0.31483   0.00000  Uiso   1.00
C359   C     0.29117   0.70240   0.36729   0.00000  Uiso   1.00
H360   H     0.00512   0.70865   0.38552   0.00000  Uiso   1.00
H361   H     0.27286   0.74062   0.35788   0.00000  Uiso   1.00
H362   H     0.26952   0.68360   0.39911   0.00000  Uiso   1.00
H363   H     0.23373   0.99796   0.29376   0.00000  Uiso   1.00
H364   H     0.28935   0.96018   0.33148   0.00000  Uiso   1.00
O365   O     0.63102   0.91296   0.25357   0.00000  Uiso   1.00
O366   O     0.39075   0.90371   0.24423   0.00000  Uiso   1.00
C367   C     0.34931   0.93159   0.25279   0.00000  Uiso   1.00
O368   O     0.64823   0.84024   0.33380   0.00000  Uiso   1.00
O369   O     0.40796   0.83099   0.32446   0.00000  Uiso   1.00
C370   C     0.36889   0.83576   0.35517   0.00000  Uiso   1.00
Zn371  Zn    0.60453   0.83951   0.25623   0.00000  Uiso   1.00
Zn372  Zn    0.39547   0.82716   0.24376   0.00000  Uiso   1.00
O373   O     0.60925   0.76296   0.25576   0.00000  Uiso   1.00
O374   O     0.36898   0.75371   0.24642   0.00000  Uiso   1.00
O375   O     0.59204   0.83567   0.17554   0.00000  Uiso   1.00
O376   O     0.35177   0.82642   0.16620   0.00000  Uiso   1.00
C377   C     0.65332   0.73539   0.25596   0.00000  Uiso   1.00
C378   C     0.63066   0.82834   0.14491   0.00000  Uiso   1.00
C379   C     0.59344   0.75070   0.00825   0.00000  Uiso   1.00
H380   H     0.51739   0.71449   0.41620   0.00000  Uiso   1.00
H381   H     0.60710   0.71719   0.48764   0.00000  Uiso   1.00
C382   C     0.60976   0.81531   0.08549   0.00000  Uiso   1.00
C383   C     0.36185   0.87422   0.44748   0.00000  Uiso   1.00
C384   C     0.38753   0.88702   0.00328   0.00000  Uiso   1.00
C385   C     0.44029   0.86746   0.02661   0.00000  Uiso   1.00
C386   C     0.46624   0.83182   0.49506   0.00000  Uiso   1.00
C387   C     0.43542   0.81324   0.44157   0.00000  Uiso   1.00
C388   C     0.52165   0.81380   0.01474   0.00000  Uiso   1.00
C389   C     0.54019   0.77083   0.48658   0.00000  Uiso   1.00
C390   C     0.50500   0.74822   0.43753   0.00000  Uiso   1.00
C391   C     0.45393   0.76996   0.41443   0.00000  Uiso   1.00
C392   C     0.55931   0.83774   0.06145   0.00000  Uiso   1.00
C393   C     0.62846   0.77215   0.05814   0.00000  Uiso   1.00
C394   C     0.38711   0.83899   0.41598   0.00000  Uiso   1.00
H395   H     0.54880   0.87262   0.08215   0.00000  Uiso   1.00
H396   H     0.65704   0.89342   0.42832   0.00000  Uiso   1.00
H397   H     0.45873   0.87934   0.06987   0.00000  Uiso   1.00
H398   H     0.36790   0.91398   0.02777   0.00000  Uiso   1.00
H399   H     0.42859   0.75197   0.37553   0.00000  Uiso   1.00
C400   C     0.35724   0.98650   0.25472   0.00000  Uiso   1.00
H401   H     0.38945   0.66880   0.23153   0.00000  Uiso   1.00
C402   C     0.65213   0.68273   0.27317   0.00000  Uiso   1.00
N403   N     0.47827   0.81890   0.23542   0.00000  Uiso   1.00
H404   H     0.49000   0.79182   0.20839   0.00000  Uiso   1.00
N405   N     0.52173   0.84777   0.26457   0.00000  Uiso   1.00
H406   H     0.51001   0.87485   0.29162   0.00000  Uiso   1.00
N407   N     0.34677   0.74748   0.08191   0.00000  Uiso   1.00
O408   O     0.39709   0.77446   0.09206   0.00000  Uiso   1.00
O409   O     0.34529   0.69664   0.08268   0.00000  Uiso   1.00
C410   C     0.61371   0.99920   0.31483   0.00000  Uiso   1.00
C411   C     0.62451   0.70240   0.36729   0.00000  Uiso   1.00
H412   H     0.33846   0.70865   0.38552   0.00000  Uiso   1.00
H413   H     0.60620   0.74062   0.35788   0.00000  Uiso   1.00
H414   H     0.60285   0.68360   0.39911   0.00000  Uiso   1.00
H415   H     0.56707   0.99796   0.29376   0.00000  Uiso   1.00
H416   H     0.62269   0.96018   0.33148   0.00000  Uiso   1.00
O417   O     0.96435   0.91296   0.25357   0.00000  Uiso   1.00
O418   O     0.72408   0.90371   0.24423   0.00000  Uiso   1.00
C419   C     0.68264   0.93159   0.25279   0.00000  Uiso   1.00
O420   O     0.98157   0.84024   0.33380   0.00000  Uiso   1.00
O421   O     0.74130   0.83099   0.32446   0.00000  Uiso   1.00
C422   C     0.70223   0.83576   0.35517   0.00000  Uiso   1.00
Zn423  Zn    0.93786   0.83951   0.25623   0.00000  Uiso   1.00
Zn424  Zn    0.72881   0.82716   0.24376   0.00000  Uiso   1.00
O425   O     0.94258   0.76296   0.25576   0.00000  Uiso   1.00
O426   O     0.70231   0.75371   0.24642   0.00000  Uiso   1.00
O427   O     0.92537   0.83567   0.17554   0.00000  Uiso   1.00
O428   O     0.68510   0.82642   0.16620   0.00000  Uiso   1.00
C429   C     0.98665   0.73539   0.25596   0.00000  Uiso   1.00
C430   C     0.96400   0.82834   0.14491   0.00000  Uiso   1.00
C431   C     0.92677   0.75070   0.00825   0.00000  Uiso   1.00
H432   H     0.85072   0.71449   0.41620   0.00000  Uiso   1.00
H433   H     0.94043   0.71719   0.48764   0.00000  Uiso   1.00
C434   C     0.94310   0.81531   0.08549   0.00000  Uiso   1.00
C435   C     0.69518   0.87422   0.44748   0.00000  Uiso   1.00
C436   C     0.72086   0.88702   0.00328   0.00000  Uiso   1.00
C437   C     0.77362   0.86746   0.02661   0.00000  Uiso   1.00
C438   C     0.79957   0.83182   0.49506   0.00000  Uiso   1.00
C439   C     0.76875   0.81324   0.44157   0.00000  Uiso   1.00
C440   C     0.85498   0.81380   0.01474   0.00000  Uiso   1.00
C441   C     0.87352   0.77083   0.48658   0.00000  Uiso   1.00
C442   C     0.83833   0.74822   0.43753   0.00000  Uiso   1.00
C443   C     0.78726   0.76996   0.41443   0.00000  Uiso   1.00
C444   C     0.89265   0.83774   0.06145   0.00000  Uiso   1.00
C445   C     0.96179   0.77215   0.05814   0.00000  Uiso   1.00
C446   C     0.72044   0.83899   0.41598   0.00000  Uiso   1.00
H447   H     0.88213   0.87262   0.08215   0.00000  Uiso   1.00
H448   H     0.99037   0.89342   0.42832   0.00000  Uiso   1.00
H449   H     0.79206   0.87934   0.06987   0.00000  Uiso   1.00
H450   H     0.70123   0.91398   0.02777   0.00000  Uiso   1.00
H451   H     0.76192   0.75197   0.37553   0.00000  Uiso   1.00
C452   C     0.69057   0.98650   0.25472   0.00000  Uiso   1.00
H453   H     0.72279   0.66880   0.23153   0.00000  Uiso   1.00
C454   C     0.98546   0.68273   0.27317   0.00000  Uiso   1.00
N455   N     0.81160   0.81890   0.23542   0.00000  Uiso   1.00
H456   H     0.82333   0.79182   0.20839   0.00000  Uiso   1.00
N457   N     0.85507   0.84777   0.26457   0.00000  Uiso   1.00
H458   H     0.84335   0.87485   0.29162   0.00000  Uiso   1.00
N459   N     0.68010   0.74748   0.08191   0.00000  Uiso   1.00
O460   O     0.73042   0.77446   0.09206   0.00000  Uiso   1.00
O461   O     0.67862   0.69664   0.08268   0.00000  Uiso   1.00
C462   C     0.94704   0.99920   0.31483   0.00000  Uiso   1.00
C463   C     0.95784   0.70240   0.36729   0.00000  Uiso   1.00
H464   H     0.67179   0.70865   0.38552   0.00000  Uiso   1.00
H465   H     0.93953   0.74062   0.35788   0.00000  Uiso   1.00
H466   H     0.93618   0.68360   0.39911   0.00000  Uiso   1.00
H467   H     0.90040   0.99796   0.29376   0.00000  Uiso   1.00
H468   H     0.95602   0.96018   0.33148   0.00000  Uiso   1.00
O469   O     0.29769   0.24629   0.75357   0.00000  Uiso   1.00
O470   O     0.05742   0.23704   0.74423   0.00000  Uiso   1.00
C471   C     0.01597   0.26492   0.75279   0.00000  Uiso   1.00
O472   O     0.31490   0.17358   0.83380   0.00000  Uiso   1.00
O473   O     0.07463   0.16433   0.82446   0.00000  Uiso   1.00
C474   C     0.03556   0.16910   0.85517   0.00000  Uiso   1.00
Zn475  Zn    0.27119   0.17284   0.75623   0.00000  Uiso   1.00
Zn476  Zn    0.06214   0.16049   0.74376   0.00000  Uiso   1.00
O477   O     0.27592   0.09629   0.75576   0.00000  Uiso   1.00
O478   O     0.03565   0.08704   0.74642   0.00000  Uiso   1.00
O479   O     0.25870   0.16901   0.67554   0.00000  Uiso   1.00
O480   O     0.01843   0.15976   0.66620   0.00000  Uiso   1.00
C481   C     0.31999   0.06873   0.75596   0.00000  Uiso   1.00
C482   C     0.29733   0.16167   0.64491   0.00000  Uiso   1.00
C483   C     0.26011   0.08403   0.50825   0.00000  Uiso   1.00
H484   H     0.18406   0.04782   0.91620   0.00000  Uiso   1.00
H485   H     0.27377   0.05053   0.98764   0.00000  Uiso   1.00
C486   C     0.27643   0.14865   0.58549   0.00000  Uiso   1.00
C487   C     0.02852   0.20755   0.94748   0.00000  Uiso   1.00
C488   C     0.05420   0.22036   0.50328   0.00000  Uiso   1.00
C489   C     0.10696   0.20079   0.52661   0.00000  Uiso   1.00
C490   C     0.13290   0.16515   0.99506   0.00000  Uiso   1.00
C491   C     0.10208   0.14657   0.94157   0.00000  Uiso   1.00
C492   C     0.18832   0.14713   0.51474   0.00000  Uiso   1.00
C493   C     0.20686   0.10416   0.98658   0.00000  Uiso   1.00
C494   C     0.17167   0.08156   0.93753   0.00000  Uiso   1.00
C495   C     0.12060   0.10329   0.91443   0.00000  Uiso   1.00
C496   C     0.22598   0.17107   0.56145   0.00000  Uiso   1.00
C497   C     0.29512   0.10548   0.55814   0.00000  Uiso   1.00
C498   C     0.05378   0.17232   0.91598   0.00000  Uiso   1.00
H499   H     0.21546   0.20596   0.58215   0.00000  Uiso   1.00
H500   H     0.32371   0.22675   0.92832   0.00000  Uiso   1.00
H501   H     0.12539   0.21268   0.56987   0.00000  Uiso   1.00
H502   H     0.03457   0.24731   0.52777   0.00000  Uiso   1.00
H503   H     0.09526   0.08530   0.87553   0.00000  Uiso   1.00
C504   C     0.02391   0.31983   0.75472   0.00000  Uiso   1.00
H505   H     0.05612   0.00214   0.73153   0.00000  Uiso   1.00
C506   C     0.31879   0.01606   0.77317   0.00000  Uiso   1.00
N507   N     0.14493   0.15223   0.73542   0.00000  Uiso   1.00
H508   H     0.15667   0.12515   0.70839   0.00000  Uiso   1.00
N509   N     0.18840   0.18110   0.76457   0.00000  Uiso   1.00
H510   H     0.17668   0.20819   0.79162   0.00000  Uiso   1.00
N511   N     0.01344   0.08081   0.58191   0.00000  Uiso   1.00
O512   O     0.06375   0.10779   0.59206   0.00000  Uiso   1.00
O513   O     0.01196   0.02997   0.58268   0.00000  Uiso   1.00
C514   C     0.28038   0.33253   0.81483   0.00000  Uiso   1.00
C515   C     0.29117   0.03573   0.86729   0.00000  Uiso   1.00
H516   H     0.00512   0.04199   0.88552   0.00000  Uiso   1.00
H517   H     0.27286   0.07395   0.85788   0.00000  Uiso   1.00
H518   H     0.26952   0.01693   0.89911   0.00000  Uiso   1.00
H519   H     0.23373   0.33129   0.79376   0.00000  Uiso   1.00
H520   H     0.28935   0.29352   0.83148   0.00000  Uiso   1.00
O521   O     0.63102   0.24629   0.75357   0.00000  Uiso   1.00
O522   O     0.39075   0.23704   0.74423   0.00000  Uiso   1.00
C523   C     0.34931   0.26492   0.75279   0.00000  Uiso   1.00
O524   O     0.64823   0.17358   0.83380   0.00000  Uiso   1.00
O525   O     0.40796   0.16433   0.82446   0.00000  Uiso   1.00
C526   C     0.36889   0.16910   0.85517   0.00000  Uiso   1.00
Zn527  Zn    0.60453   0.17284   0.75623   0.00000  Uiso   1.00
Zn528  Zn    0.39547   0.16049   0.74376   0.00000  Uiso   1.00
O529   O     0.60925   0.09629   0.75576   0.00000  Uiso   1.00
O530   O     0.36898   0.08704   0.74642   0.00000  Uiso   1.00
O531   O     0.59204   0.16901   0.67554   0.00000  Uiso   1.00
O532   O     0.35177   0.15976   0.66620   0.00000  Uiso   1.00
C533   C     0.65332   0.06873   0.75596   0.00000  Uiso   1.00
C534   C     0.63066   0.16167   0.64491   0.00000  Uiso   1.00
C535   C     0.59344   0.08403   0.50825   0.00000  Uiso   1.00
H536   H     0.51739   0.04782   0.91620   0.00000  Uiso   1.00
H537   H     0.60710   0.05053   0.98764   0.00000  Uiso   1.00
C538   C     0.60976   0.14865   0.58549   0.00000  Uiso   1.00
C539   C     0.36185   0.20755   0.94748   0.00000  Uiso   1.00
C540   C     0.38753   0.22036   0.50328   0.00000  Uiso   1.00
C541   C     0.44029   0.20079   0.52661   0.00000  Uiso   1.00
C542   C     0.46624   0.16515   0.99506   0.00000  Uiso   1.00
C543   C     0.43542   0.14657   0.94157   0.00000  Uiso   1.00
C544   C     0.52165   0.14713   0.51474   0.00000  Uiso   1.00
C545   C     0.54019   0.10416   0.98658   0.00000  Uiso   1.00
C546   C     0.50500   0.08156   0.93753   0.00000  Uiso   1.00
C547   C     0.45393   0.10329   0.91443   0.00000  Uiso   1.00
C548   C     0.55931   0.17107   0.56145   0.00000  Uiso   1.00
C549   C     0.62846   0.10548   0.55814   0.00000  Uiso   1.00
C550   C     0.38711   0.17232   0.91598   0.00000  Uiso   1.00
H551   H     0.54880   0.20596   0.58215   0.00000  Uiso   1.00
H552   H     0.65704   0.22675   0.92832   0.00000  Uiso   1.00
H553   H     0.45873   0.21268   0.56987   0.00000  Uiso   1.00
H554   H     0.36790   0.24731   0.52777   0.00000  Uiso   1.00
H555   H     0.42859   0.08530   0.87553   0.00000  Uiso   1.00
C556   C     0.35724   0.31983   0.75472   0.00000  Uiso   1.00
H557   H     0.38945   0.00214   0.73153   0.00000  Uiso   1.00
C558   C     0.65213   0.01606   0.77317   0.00000  Uiso   1.00
N559   N     0.47827   0.15223   0.73542   0.00000  Uiso   1.00
H560   H     0.49000   0.12515   0.70839   0.00000  Uiso   1.00
N561   N     0.52173   0.18110   0.76457   0.00000  Uiso   1.00
H562   H     0.51001   0.20819   0.79162   0.00000  Uiso   1.00
N563   N     0.34677   0.08081   0.58191   0.00000  Uiso   1.00
O564   O     0.39709   0.10779   0.59206   0.00000  Uiso   1.00
O565   O     0.34529   0.02997   0.58268   0.00000  Uiso   1.00
C566   C     0.61371   0.33253   0.81483   0.00000  Uiso   1.00
C567   C     0.62451   0.03573   0.86729   0.00000  Uiso   1.00
H568   H     0.33846   0.04199   0.88552   0.00000  Uiso   1.00
H569   H     0.60620   0.07395   0.85788   0.00000  Uiso   1.00
H570   H     0.60285   0.01693   0.89911   0.00000  Uiso   1.00
H571   H     0.56707   0.33129   0.79376   0.00000  Uiso   1.00
H572   H     0.62269   0.29352   0.83148   0.00000  Uiso   1.00
O573   O     0.96435   0.24629   0.75357   0.00000  Uiso   1.00
O574   O     0.72408   0.23704   0.74423   0.00000  Uiso   1.00
C575   C     0.68264   0.26492   0.75279   0.00000  Uiso   1.00
O576   O     0.98157   0.17358   0.83380   0.00000  Uiso   1.00
O577   O     0.74130   0.16433   0.82446   0.00000  Uiso   1.00
C578   C     0.70223   0.16910   0.85517   0.00000  Uiso   1.00
Zn579  Zn    0.93786   0.17284   0.75623   0.00000  Uiso   1.00
Zn580  Zn    0.72881   0.16049   0.74376   0.00000  Uiso   1.00
O581   O     0.94258   0.09629   0.75576   0.00000  Uiso   1.00
O582   O     0.70231   0.08704   0.74642   0.00000  Uiso   1.00
O583   O     0.92537   0.16901   0.67554   0.00000  Uiso   1.00
O584   O     0.68510   0.15976   0.66620   0.00000  Uiso   1.00
C585   C     0.98665   0.06873   0.75596   0.00000  Uiso   1.00
C586   C     0.96400   0.16167   0.64491   0.00000  Uiso   1.00
C587   C     0.92677   0.08403   0.50825   0.00000  Uiso   1.00
H588   H     0.85072   0.04782   0.91620   0.00000  Uiso   1.00
H589   H     0.94043   0.05053   0.98764   0.00000  Uiso   1.00
C590   C     0.94310   0.14865   0.58549   0.00000  Uiso   1.00
C591   C     0.69518   0.20755   0.94748   0.00000  Uiso   1.00
C592   C     0.72086   0.22036   0.50328   0.00000  Uiso   1.00
C593   C     0.77362   0.20079   0.52661   0.00000  Uiso   1.00
C594   C     0.79957   0.16515   0.99506   0.00000  Uiso   1.00
C595   C     0.76875   0.14657   0.94157   0.00000  Uiso   1.00
C596   C     0.85498   0.14713   0.51474   0.00000  Uiso   1.00
C597   C     0.87352   0.10416   0.98658   0.00000  Uiso   1.00
C598   C     0.83833   0.08156   0.93753   0.00000  Uiso   1.00
C599   C     0.78726   0.10329   0.91443   0.00000  Uiso   1.00
C600   C     0.89265   0.17107   0.56145   0.00000  Uiso   1.00
C601   C     0.96179   0.10548   0.55814   0.00000  Uiso   1.00
C602   C     0.72044   0.17232   0.91598   0.00000  Uiso   1.00
H603   H     0.88213   0.20596   0.58215   0.00000  Uiso   1.00
H604   H     0.99037   0.22675   0.92832   0.00000  Uiso   1.00
H605   H     0.79206   0.21268   0.56987   0.00000  Uiso   1.00
H606   H     0.70123   0.24731   0.52777   0.00000  Uiso   1.00
H607   H     0.76192   0.08530   0.87553   0.00000  Uiso   1.00
C608   C     0.69057   0.31983   0.75472   0.00000  Uiso   1.00
H609   H     0.72279   0.00214   0.73153   0.00000  Uiso   1.00
C610   C     0.98546   0.01606   0.77317   0.00000  Uiso   1.00
N611   N     0.81160   0.15223   0.73542   0.00000  Uiso   1.00
H612   H     0.82333   0.12515   0.70839   0.00000  Uiso   1.00
N613   N     0.85507   0.18110   0.76457   0.00000  Uiso   1.00
H614   H     0.84335   0.20819   0.79162   0.00000  Uiso   1.00
N615   N     0.68010   0.08081   0.58191   0.00000  Uiso   1.00
O616   O     0.73042   0.10779   0.59206   0.00000  Uiso   1.00
O617   O     0.67862   0.02997   0.58268   0.00000  Uiso   1.00
C618   C     0.94704   0.33253   0.81483   0.00000  Uiso   1.00
C619   C     0.95784   0.03573   0.86729   0.00000  Uiso   1.00
H620   H     0.67179   0.04199   0.88552   0.00000  Uiso   1.00
H621   H     0.93953   0.07395   0.85788   0.00000  Uiso   1.00
H622   H     0.93618   0.01693   0.89911   0.00000  Uiso   1.00
H623   H     0.90040   0.33129   0.79376   0.00000  Uiso   1.00
H624   H     0.95602   0.29352   0.83148   0.00000  Uiso   1.00
O625   O     0.29769   0.57963   0.75357   0.00000  Uiso   1.00
O626   O     0.05742   0.57038   0.74423   0.00000  Uiso   1.00
C627   C     0.01597   0.59825   0.75279   0.00000  Uiso   1.00
O628   O     0.31490   0.50691   0.83380   0.00000  Uiso   1.00
O629   O     0.07463   0.49766   0.82446   0.00000  Uiso   1.00
C630   C     0.03556   0.50243   0.85517   0.00000  Uiso   1.00
Zn631  Zn    0.27119   0.50618   0.75623   0.00000  Uiso   1.00
Zn632  Zn    0.06214   0.49382   0.74376   0.00000  Uiso   1.00
O633   O     0.27592   0.42962   0.75576   0.00000  Uiso   1.00
O634   O     0.03565   0.42037   0.74642   0.00000  Uiso   1.00
O635   O     0.25870   0.50234   0.67554   0.00000  Uiso   1.00
O636   O     0.01843   0.49309   0.66620   0.00000  Uiso   1.00
C637   C     0.31999   0.40206   0.75596   0.00000  Uiso   1.00
C638   C     0.29733   0.49500   0.64491   0.00000  Uiso   1.00
C639   C     0.26011   0.41737   0.50825   0.00000  Uiso   1.00
H640   H     0.18406   0.38115   0.91620   0.00000  Uiso   1.00
H641   H     0.27377   0.38386   0.98764   0.00000  Uiso   1.00
C642   C     0.27643   0.48198   0.58549   0.00000  Uiso   1.00
C643   C     0.02852   0.54088   0.94748   0.00000  Uiso   1.00
C644   C     0.05420   0.55369   0.50328   0.00000  Uiso   1.00
C645   C     0.10696   0.53413   0.52661   0.00000  Uiso   1.00
C646   C     0.13290   0.49849   0.99506   0.00000  Uiso   1.00
C647   C     0.10208   0.47990   0.94157   0.00000  Uiso   1.00
C648   C     0.18832   0.48046   0.51474   0.00000  Uiso   1.00
C649   C     0.20686   0.43750   0.98658   0.00000  Uiso   1.00
C650   C     0.17167   0.41489   0.93753   0.00000  Uiso   1.00
C651   C     0.12060   0.43662   0.91443   0.00000  Uiso   1.00
C652   C     0.22598   0.50441   0.56145   0.00000  Uiso   1.00
C653   C     0.29512   0.43882   0.55814   0.00000  Uiso   1.00
C654   C     0.05378   0.50565   0.91598   0.00000  Uiso   1.00
H655   H     0.21546   0.53929   0.58215   0.00000  Uiso   1.00
H656   H     0.32371   0.56009   0.92832   0.00000  Uiso   1.00
H657   H     0.12539   0.54601   0.56987   0.00000  Uiso   1.00
H658   H     0.03457   0.58065   0.52777   0.00000  Uiso   1.00
H659   H     0.09526   0.41863   0.87553   0.00000  Uiso   1.00
C660   C     0.02391   0.65316   0.75472   0.00000  Uiso   1.00
H661   H     0.05612   0.33547   0.73153   0.00000  Uiso   1.00
C662   C     0.31879   0.34940   0.77317   0.00000  Uiso   1.00
N663   N     0.14493   0.48556   0.73542   0.00000  Uiso   1.00
H664   H     0.15667   0.45849   0.70839   0.00000  Uiso   1.00
N665   N     0.18840   0.51444   0.76457   0.00000  Uiso   1.00
H666   H     0.17668   0.54152   0.79162   0.00000  Uiso   1.00
N667   N     0.01344   0.41414   0.58191   0.00000  Uiso   1.00
O668   O     0.06375   0.44112   0.59206   0.00000  Uiso   1.00
O669   O     0.01196   0.36331   0.58268   0.00000  Uiso   1.00
C670   C     0.28038   0.66587   0.81483   0.00000  Uiso   1.00
C671   C     0.29117   0.36907   0.86729   0.00000  Uiso   1.00
H672   H     0.00512   0.37532   0.88552   0.00000  Uiso   1.00
H673   H     0.27286   0.40728   0.85788   0.00000  Uiso   1.00
H674   H     0.26952   0.35026   0.89911   0.00000  Uiso   1.00
H675   H     0.23373   0.66462   0.79376   0.00000  Uiso   1.00
H676   H     0.28935   0.62685   0.83148   0.00000  Uiso   1.00
O677   O     0.63102   0.57963   0.75357   0.00000  Uiso   1.00
O678   O     0.39075   0.57038   0.74423   0.00000  Uiso   1.00
C679   C     0.34931   0.59825   0.75279   0.00000  Uiso   1.00
O680   O     0.64823   0.50691   0.83380   0.00000  Uiso   1.00
O681   O     0.40796   0.49766   0.82446   0.00000  Uiso   1.00
C682   C     0.36889   0.50243   0.85517   0.00000  Uiso   1.00
Zn683  Zn    0.60453   0.50618   0.75623   0.00000  Uiso   1.00
Zn684  Zn    0.39547   0.49382   0.74376   0.00000  Uiso   1.00
O685   O     0.60925   0.42962   0.75576   0.00000  Uiso   1.00
O686   O     0.36898   0.42037   0.74642   0.00000  Uiso   1.00
O687   O     0.59204   0.50234   0.67554   0.00000  Uiso   1.00
O688   O     0.35177   0.49309   0.66620   0.00000  Uiso   1.00
C689   C     0.65332   0.40206   0.75596   0.00000  Uiso   1.00
C690   C     0.63066   0.49500   0.64491   0.00000  Uiso   1.00
C691   C     0.59344   0.41737   0.50825   0.00000  Uiso   1.00
H692   H     0.51739   0.38115   0.91620   0.00000  Uiso   1.00
H693   H     0.60710   0.38386   0.98764   0.00000  Uiso   1.00
C694   C     0.60976   0.48198   0.58549   0.00000  Uiso   1.00
C695   C     0.36185   0.54088   0.94748   0.00000  Uiso   1.00
C696   C     0.38753   0.55369   0.50328   0.00000  Uiso   1.00
C697   C     0.44029   0.53413   0.52661   0.00000  Uiso   1.00
C698   C     0.46624   0.49849   0.99506   0.00000  Uiso   1.00
C699   C     0.43542   0.47990   0.94157   0.00000  Uiso   1.00
C700   C     0.52165   0.48046   0.51474   0.00000  Uiso   1.00
C701   C     0.54019   0.43750   0.98658   0.00000  Uiso   1.00
C702   C     0.50500   0.41489   0.93753   0.00000  Uiso   1.00
C703   C     0.45393   0.43662   0.91443   0.00000  Uiso   1.00
C704   C     0.55931   0.50441   0.56145   0.00000  Uiso   1.00
C705   C     0.62846   0.43882   0.55814   0.00000  Uiso   1.00
C706   C     0.38711   0.50565   0.91598   0.00000  Uiso   1.00
H707   H     0.54880   0.53929   0.58215   0.00000  Uiso   1.00
H708   H     0.65704   0.56009   0.92832   0.00000  Uiso   1.00
H709   H     0.45873   0.54601   0.56987   0.00000  Uiso   1.00
H710   H     0.36790   0.58065   0.52777   0.00000  Uiso   1.00
H711   H     0.42859   0.41863   0.87553   0.00000  Uiso   1.00
C712   C     0.35724   0.65316   0.75472   0.00000  Uiso   1.00
H713   H     0.38945   0.33547   0.73153   0.00000  Uiso   1.00
C714   C     0.65213   0.34940   0.77317   0.00000  Uiso   1.00
N715   N     0.47827   0.48556   0.73542   0.00000  Uiso   1.00
H716   H     0.49000   0.45849   0.70839   0.00000  Uiso   1.00
N717   N     0.52173   0.51444   0.76457   0.00000  Uiso   1.00
H718   H     0.51001   0.54152   0.79162   0.00000  Uiso   1.00
N719   N     0.34677   0.41414   0.58191   0.00000  Uiso   1.00
O720   O     0.39709   0.44112   0.59206   0.00000  Uiso   1.00
O721   O     0.34529   0.36331   0.58268   0.00000  Uiso   1.00
C722   C     0.61371   0.66587   0.81483   0.00000  Uiso   1.00
C723   C     0.62451   0.36907   0.86729   0.00000  Uiso   1.00
H724   H     0.33846   0.37532   0.88552   0.00000  Uiso   1.00
H725   H     0.60620   0.40728   0.85788   0.00000  Uiso   1.00
H726   H     0.60285   0.35026   0.89911   0.00000  Uiso   1.00
H727   H     0.56707   0.66462   0.79376   0.00000  Uiso   1.00
H728   H     0.62269   0.62685   0.83148   0.00000  Uiso   1.00
O729   O     0.96435   0.57963   0.75357   0.00000  Uiso   1.00
O730   O     0.72408   0.57038   0.74423   0.00000  Uiso   1.00
C731   C     0.68264   0.59825   0.75279   0.00000  Uiso   1.00
O732   O     0.98157   0.50691   0.83380   0.00000  Uiso   1.00
O733   O     0.74130   0.49766   0.82446   0.00000  Uiso   1.00
C734   C     0.70223   0.50243   0.85517   0.00000  Uiso   1.00
Zn735  Zn    0.93786   0.50618   0.75623   0.00000  Uiso   1.00
Zn736  Zn    0.72881   0.49382   0.74376   0.00000  Uiso   1.00
O737   O     0.94258   0.42962   0.75576   0.00000  Uiso   1.00
O738   O     0.70231   0.42037   0.74642   0.00000  Uiso   1.00
O739   O     0.92537   0.50234   0.67554   0.00000  Uiso   1.00
O740   O     0.68510   0.49309   0.66620   0.00000  Uiso   1.00
C741   C     0.98665   0.40206   0.75596   0.00000  Uiso   1.00
C742   C     0.96400   0.49500   0.64491   0.00000  Uiso   1.00
C743   C     0.92677   0.41737   0.50825   0.00000  Uiso   1.00
H744   H     0.85072   0.38115   0.91620   0.00000  Uiso   1.00
H745   H     0.94043   0.38386   0.98764   0.00000  Uiso   1.00
C746   C     0.94310   0.48198   0.58549   0.00000  Uiso   1.00
C747   C     0.69518   0.54088   0.94748   0.00000  Uiso   1.00
C748   C     0.72086   0.55369   0.50328   0.00000  Uiso   1.00
C749   C     0.77362   0.53413   0.52661   0.00000  Uiso   1.00
C750   C     0.79957   0.49849   0.99506   0.00000  Uiso   1.00
C751   C     0.76875   0.47990   0.94157   0.00000  Uiso   1.00
C752   C     0.85498   0.48046   0.51474   0.00000  Uiso   1.00
C753   C     0.87352   0.43750   0.98658   0.00000  Uiso   1.00
C754   C     0.83833   0.41489   0.93753   0.00000  Uiso   1.00
C755   C     0.78726   0.43662   0.91443   0.00000  Uiso   1.00
C756   C     0.89265   0.50441   0.56145   0.00000  Uiso   1.00
C757   C     0.96179   0.43882   0.55814   0.00000  Uiso   1.00
C758   C     0.72044   0.50565   0.91598   0.00000  Uiso   1.00
H759   H     0.88213   0.53929   0.58215   0.00000  Uiso   1.00
H760   H     0.99037   0.56009   0.92832   0.00000  Uiso   1.00
H761   H     0.79206   0.54601   0.56987   0.00000  Uiso   1.00
H762   H     0.70123   0.58065   0.52777   0.00000  Uiso   1.00
H763   H     0.76192   0.41863   0.87553   0.00000  Uiso   1.00
C764   C     0.69057   0.65316   0.75472   0.00000  Uiso   1.00
H765   H     0.72279   0.33547   0.73153   0.00000  Uiso   1.00
C766   C     0.98546   0.34940   0.77317   0.00000  Uiso   1.00
N767   N     0.81160   0.48556   0.73542   0.00000  Uiso   1.00
H768   H     0.82333   0.45849   0.70839   0.00000  Uiso   1.00
N769   N     0.85507   0.51444   0.76457   0.00000  Uiso   1.00
H770   H     0.84335   0.54152   0.79162   0.00000  Uiso   1.00
N771   N     0.68010   0.41414   0.58191   0.00000  Uiso   1.00
O772   O     0.73042   0.44112   0.59206   0.00000  Uiso   1.00
O773   O     0.67862   0.36331   0.58268   0.00000  Uiso   1.00
C774   C     0.94704   0.66587   0.81483   0.00000  Uiso   1.00
C775   C     0.95784   0.36907   0.86729   0.00000  Uiso   1.00
H776   H     0.67179   0.37532   0.88552   0.00000  Uiso   1.00
H777   H     0.93953   0.40728   0.85788   0.00000  Uiso   1.00
H778   H     0.93618   0.35026   0.89911   0.00000  Uiso   1.00
H779   H     0.90040   0.66462   0.79376   0.00000  Uiso   1.00
H780   H     0.95602   0.62685   0.83148   0.00000  Uiso   1.00
O781   O     0.29769   0.91296   0.75357   0.00000  Uiso   1.00
O782   O     0.05742   0.90371   0.74423   0.00000  Uiso   1.00
C783   C     0.01597   0.93159   0.75279   0.00000  Uiso   1.00
O784   O     0.31490   0.84024   0.83380   0.00000  Uiso   1.00
O785   O     0.07463   0.83099   0.82446   0.00000  Uiso   1.00
C786   C     0.03556   0.83576   0.85517   0.00000  Uiso   1.00
Zn787  Zn    0.27119   0.83951   0.75623   0.00000  Uiso   1.00
Zn788  Zn    0.06214   0.82716   0.74376   0.00000  Uiso   1.00
O789   O     0.27592   0.76296   0.75576   0.00000  Uiso   1.00
O790   O     0.03565   0.75371   0.74642   0.00000  Uiso   1.00
O791   O     0.25870   0.83567   0.67554   0.00000  Uiso   1.00
O792   O     0.01843   0.82642   0.66620   0.00000  Uiso   1.00
C793   C     0.31999   0.73539   0.75596   0.00000  Uiso   1.00
C794   C     0.29733   0.82834   0.64491   0.00000  Uiso   1.00
C795   C     0.26011   0.75070   0.50825   0.00000  Uiso   1.00
H796   H     0.18406   0.71449   0.91620   0.00000  Uiso   1.00
H797   H     0.27377   0.71719   0.98764   0.00000  Uiso   1.00
C798   C     0.27643   0.81531   0.58549   0.00000  Uiso   1.00
C799   C     0.02852   0.87422   0.94748   0.00000  Uiso   1.00
C800   C     0.05420   0.88702   0.50328   0.00000  Uiso   1.00
C801   C     0.10696   0.86746   0.52661   0.00000  Uiso   1.00
C802   C     0.13290   0.83182   0.99506   0.00000  Uiso   1.00
C803   C     0.10208   0.81324   0.94157   0.00000  Uiso   1.00
C804   C     0.18832   0.81380   0.51474   0.00000  Uiso   1.00
C805   C     0.20686   0.77083   0.98658   0.00000  Uiso   1.00
C806   C     0.17167   0.74822   0.93753   0.00000  Uiso   1.00
C807   C     0.12060   0.76996   0.91443   0.00000  Uiso   1.00
C808   C     0.22598   0.83774   0.56145   0.00000  Uiso   1.00
C809   C     0.29512   0.77215   0.55814   0.00000  Uiso   1.00
C810   C     0.05378   0.83899   0.91598   0.00000  Uiso   1.00
H811   H     0.21546   0.87262   0.58215   0.00000  Uiso   1.00
H812   H     0.32371   0.89342   0.92832   0.00000  Uiso   1.00
H813   H     0.12539   0.87934   0.56987   0.00000  Uiso   1.00
H814   H     0.03457   0.91398   0.52777   0.00000  Uiso   1.00
H815   H     0.09526   0.75197   0.87553   0.00000  Uiso   1.00
C816   C     0.02391   0.98650   0.75472   0.00000  Uiso   1.00
H817   H     0.05612   0.66880   0.73153   0.00000  Uiso   1.00
C818   C     0.31879   0.68273   0.77317   0.00000  Uiso   1.00
N819   N     0.14493   0.81890   0.73542   0.00000  Uiso   1.00
H820   H     0.15667   0.79182   0.70839   0.00000  Uiso   1.00
N821   N     0.18840   0.84777   0.76457   0.00000  Uiso   1.00
H822   H     0.17668   0.87485   0.79162   0.00000  Uiso   1.00
N823   N     0.01344   0.74748   0.58191   0.00000  Uiso   1.00
O824   O     0.06375   0.77446   0.59206   0.00000  Uiso   1.00
O825   O     0.01196   0.69664   0.58268   0.00000  Uiso   1.00
C826   C     0.28038   0.99920   0.81483   0.00000  Uiso   1.00
C827   C     0.29117   0.70240   0.86729   0.00000  Uiso   1.00
H828   H     0.00512   0.70865   0.88552   0.00000  Uiso   1.00
H829   H     0.27286   0.74062   0.85788   0.00000  Uiso   1.00
H830   H     0.26952   0.68360   0.89911   0.00000  Uiso   1.00
H831   H     0.23373   0.99796   0.79376   0.00000  Uiso   1.00
H832   H     0.28935   0.96018   0.83148   0.00000  Uiso   1.00
O833   O     0.63102   0.91296   0.75357   0.00000  Uiso   1.00
O834   O     0.39075   0.90371   0.74423   0.00000  Uiso   1.00
C835   C     0.34931   0.93159   0.75279   0.00000  Uiso   1.00
O836   O     0.64823   0.84024   0.83380   0.00000  Uiso   1.00
O837   O     0.40796   0.83099   0.82446   0.00000  Uiso   1.00
C838   C     0.36889   0.83576   0.85517   0.00000  Uiso   1.00
Zn839  Zn    0.60453   0.83951   0.75623   0.00000  Uiso   1.00
Zn840  Zn    0.39547   0.82716   0.74376   0.00000  Uiso   1.00
O841   O     0.60925   0.76296   0.75576   0.00000  Uiso   1.00
O842   O     0.36898   0.75371   0.74642   0.00000  Uiso   1.00
O843   O     0.59204   0.83567   0.67554   0.00000  Uiso   1.00
O844   O     0.35177   0.82642   0.66620   0.00000  Uiso   1.00
C845   C     0.65332   0.73539   0.75596   0.00000  Uiso   1.00
C846   C     0.63066   0.82834   0.64491   0.00000  Uiso   1.00
C847   C     0.59344   0.75070   0.50825   0.00000  Uiso   1.00
H848   H     0.51739   0.71449   0.91620   0.00000  Uiso   1.00
H849   H     0.60710   0.71719   0.98764   0.00000  Uiso   1.00
C850   C     0.60976   0.81531   0.58549   0.00000  Uiso   1.00
C851   C     0.36185   0.87422   0.94748   0.00000  Uiso   1.00
C852   C     0.38753   0.88702   0.50328   0.00000  Uiso   1.00
C853   C     0.44029   0.86746   0.52661   0.00000  Uiso   1.00
C854   C     0.46624   0.83182   0.99506   0.00000  Uiso   1.00
C855   C     0.43542   0.81324   0.94157   0.00000  Uiso   1.00
C856   C     0.52165   0.81380   0.51474   0.00000  Uiso   1.00
C857   C     0.54019   0.77083   0.98658   0.00000  Uiso   1.00
C858   C     0.50500   0.74822   0.93753   0.00000  Uiso   1.00
C859   C     0.45393   0.76996   0.91443   0.00000  Uiso   1.00
C860   C     0.55931   0.83774   0.56145   0.00000  Uiso   1.00
C861   C     0.62846   0.77215   0.55814   0.00000  Uiso   1.00
C862   C     0.38711   0.83899   0.91598   0.00000  Uiso   1.00
H863   H     0.54880   0.87262   0.58215   0.00000  Uiso   1.00
H864   H     0.65704   0.89342   0.92832   0.00000  Uiso   1.00
H865   H     0.45873   0.87934   0.56987   0.00000  Uiso   1.00
H866   H     0.36790   0.91398   0.52777   0.00000  Uiso   1.00
H867   H     0.42859   0.75197   0.87553   0.00000  Uiso   1.00
C868   C     0.35724   0.98650   0.75472   0.00000  Uiso   1.00
H869   H     0.38945   0.66880   0.73153   0.00000  Uiso   1.00
C870   C     0.65213   0.68273   0.77317   0.00000  Uiso   1.00
N871   N     0.47827   0.81890   0.73542   0.00000  Uiso   1.00
H872   H     0.49000   0.79182   0.70839   0.00000  Uiso   1.00
N873   N     0.52173   0.84777   0.76457   0.00000  Uiso   1.00
H874   H     0.51001   0.87485   0.79162   0.00000  Uiso   1.00
N875   N     0.34677   0.74748   0.58191   0.00000  Uiso   1.00
O876   O     0.39709   0.77446   0.59206   0.00000  Uiso   1.00
O877   O     0.34529   0.69664   0.58268   0.00000  Uiso   1.00
C878   C     0.61371   0.99920   0.81483   0.00000  Uiso   1.00
C879   C     0.62451   0.70240   0.86729   0.00000  Uiso   1.00
H880   H     0.33846   0.70865   0.88552   0.00000  Uiso   1.00
H881   H     0.60620   0.74062   0.85788   0.00000  Uiso   1.00
H882   H     0.60285   0.68360   0.89911   0.00000  Uiso   1.00
H883   H     0.56707   0.99796   0.79376   0.00000  Uiso   1.00
H884   H     0.62269   0.96018   0.83148   0.00000  Uiso   1.00
O885   O     0.96435   0.91296   0.75357   0.00000  Uiso   1.00
O886   O     0.72408   0.90371   0.74423   0.00000  Uiso   1.00
C887   C     0.68264   0.93159   0.75279   0.00000  Uiso   1.00
O888   O     0.98157   0.84024   0.83380   0.00000  Uiso   1.00
O889   O     0.74130   0.83099   0.82446   0.00000  Uiso   1.00
C890   C     0.70223   0.83576   0.85517   0.00000  Uiso   1.00
Zn891  Zn    0.93786   0.83951   0.75623   0.00000  Uiso   1.00
Zn892  Zn    0.72881   0.82716   0.74376   0.00000  Uiso   1.00
O893   O     0.94258   0.76296   0.75576   0.00000  Uiso   1.00
O894   O     0.70231   0.75371   0.74642   0.00000  Uiso   1.00
O895   O     0.92537   0.83567   0.67554   0.00000  Uiso   1.00
O896   O     0.68510   0.82642   0.66620   0.00000  Uiso   1.00
C897   C     0.98665   0.73539   0.75596   0.00000  Uiso   1.00
C898   C     0.96400   0.82834   0.64491   0.00000  Uiso   1.00
C899   C     0.92677   0.75070   0.50825   0.00000  Uiso   1.00
H900   H     0.85072   0.71449   0.91620   0.00000  Uiso   1.00
H901   H     0.94043   0.71719   0.98764   0.00000  Uiso   1.00
C902   C     0.94310   0.81531   0.58549   0.00000  Uiso   1.00
C903   C     0.69518   0.87422   0.94748   0.00000  Uiso   1.00
C904   C     0.72086   0.88702   0.50328   0.00000  Uiso   1.00
C905   C     0.77362   0.86746   0.52661   0.00000  Uiso   1.00
C906   C     0.79957   0.83182   0.99506   0.00000  Uiso   1.00
C907   C     0.76875   0.81324   0.94157   0.00000  Uiso   1.00
C908   C     0.85498   0.81380   0.51474   0.00000  Uiso   1.00
C909   C     0.87352   0.77083   0.98658   0.00000  Uiso   1.00
C910   C     0.83833   0.74822   0.93753   0.00000  Uiso   1.00
C911   C     0.78726   0.76996   0.91443   0.00000  Uiso   1.00
C912   C     0.89265   0.83774   0.56145   0.00000  Uiso   1.00
C913   C     0.96179   0.77215   0.55814   0.00000  Uiso   1.00
C914   C     0.72044   0.83899   0.91598   0.00000  Uiso   1.00
H915   H     0.88213   0.87262   0.58215   0.00000  Uiso   1.00
H916   H     0.99037   0.89342   0.92832   0.00000  Uiso   1.00
H917   H     0.79206   0.87934   0.56987   0.00000  Uiso   1.00
H918   H     0.70123   0.91398   0.52777   0.00000  Uiso   1.00
H919   H     0.76192   0.75197   0.87553   0.00000  Uiso   1.00
C920   C     0.69057   0.98650   0.75472   0.00000  Uiso   1.00
H921   H     0.72279   0.66880   0.73153   0.00000  Uiso   1.00
C922   C     0.98546   0.68273   0.77317   0.00000  Uiso   1.00
N923   N     0.81160   0.81890   0.73542   0.00000  Uiso   1.00
H924   H     0.82333   0.79182   0.70839   0.00000  Uiso   1.00
N925   N     0.85507   0.84777   0.76457   0.00000  Uiso   1.00
H926   H     0.84335   0.87485   0.79162   0.00000  Uiso   1.00
N927   N     0.68010   0.74748   0.58191   0.00000  Uiso   1.00
O928   O     0.73042   0.77446   0.59206   0.00000  Uiso   1.00
O929   O     0.67862   0.69664   0.58268   0.00000  Uiso   1.00
C930   C     0.94704   0.99920   0.81483   0.00000  Uiso   1.00
C931   C     0.95784   0.70240   0.86729   0.00000  Uiso   1.00
H932   H     0.67179   0.70865   0.88552   0.00000  Uiso   1.00
H933   H     0.93953   0.74062   0.85788   0.00000  Uiso   1.00
H934   H     0.93618   0.68360   0.89911   0.00000  Uiso   1.00
H935   H     0.90040   0.99796   0.79376   0.00000  Uiso   1.00
H936   H     0.95602   0.96018   0.83148   0.00000  Uiso   1.00
loop_
_geom_bond_atom_site_label_1
_geom_bond_atom_site_label_2
_geom_bond_distance
_geom_bond_site_symmetry_2
_ccdc_geom_bond_type
O1     Zn7     1.946   .     S
O1     C55     1.274   .     S
O2     C3      1.293   .     A
O2     Zn8     1.973   .     S
C3     C36     1.404   .     S
C3     O105    1.274   1_455 S
O4     Zn7     1.956   .     S
O4     C58     1.287   .     S
O5     Zn8     1.919   .     S
O5     C6      1.300   .     A
C6     C30     1.450   .     S
C6     O108    1.287   1_455 S
Zn7    O11     1.919   .     S
Zn7    N41     2.019   .     S
Zn7    O9      1.973   .     S
Zn8    N39     2.019   .     S
Zn8    O12     1.956   .     S
Zn8    O10     1.946   .     S
O9     C13     1.294   .     A
O10    C117    1.276   1_455 S
O11    C14     1.300   .     A
O12    C118    1.286   1_455 S
C13    C38     1.424   .     S
C13    O62     1.276   .     S
C14    C18     1.448   .     S
C14    O64     1.286   .     S
C15    C29     1.395   .     A
C15    H485    1.081   1_554 S
C15    C493    1.399   1_554 S
H16    C26     1.081   .     S
H17    C483    1.081   .     S
C18    C28     1.386   .     A
C18    C29     1.414   .     A
C19    C30     1.402   .     A
C19    C488    1.388   .     S
C19    H136    1.084   1_455 S
C20    H34     1.083   .     S
C20    C21     1.392   .     A
C20    C487    1.388   1_554 S
C21    H33     1.079   .     S
C21    C490    1.419   1_554 S
C22    C23     1.406   .     A
C22    C489    1.419   .     S
C22    C492    1.411   .     S
C23    C27     1.412   .     A
C23    C30     1.401   .     A
C24    C28     1.389   .     A
C24    C490    1.411   1_554 S
C24    C493    1.418   1_554 S
C25    C26     1.392   .     A
C25    C483    1.399   .     S
C25    C492    1.418   .     S
C26    C27     1.383   .     A
C27    H35     1.082   .     S
C28    H31     1.080   .     S
C29    N95     1.436   .     S
H32    C71     1.084   .     S
C36    H193    1.088   .     S
C36    C298    1.352   1_455 S
H37    C348    1.088   1_545 S
C38    C400    1.352   1_545 S
C38    C358    1.532   1_545 S
N39    N41     1.290   .     D
N39    H40     1.029   .     S
N41    H42     1.029   .     S
N43    O44     1.300   .     A
N43    O45     1.301   .     A
N43    C133    1.436   1_455 S
C46    H52     1.108   .     S
C46    H51     1.112   .     S
C46    C194    1.532   .     S
C46    C203    1.526   .     S
C47    H49     1.110   .     S
C47    H50     1.107   .     S
C47    C358    1.526   1_545 S
C47    H100    1.109   .     S
H48    C151    1.109   1_455 S
O53    Zn59    1.946   .     S
O53    C107    1.274   .     S
O54    C55     1.293   .     A
O54    Zn60    1.973   .     S
C55    C88     1.404   .     S
O56    Zn59    1.956   .     S
O56    C110    1.287   .     S
O57    Zn60    1.919   .     S
O57    C58     1.300   .     A
C58    C82     1.450   .     S
Zn59   O63     1.919   .     S
Zn59   N93     2.019   .     S
Zn59   O61     1.973   .     S
Zn60   N91     2.019   .     S
Zn60   O64     1.956   .     S
Zn60   O62     1.946   .     S
O61    C65     1.294   .     A
O63    C66     1.300   .     A
C65    C90     1.424   .     S
C65    O114    1.276   .     S
C66    C70     1.448   .     S
C66    O116    1.286   .     S
C67    C81     1.395   .     A
C67    H537    1.081   1_554 S
C67    C545    1.399   1_554 S
H68    C78     1.081   .     S
H69    C535    1.081   .     S
C70    C80     1.386   .     A
C70    C81     1.414   .     A
C71    C82     1.402   .     A
C71    C540    1.388   .     S
C72    H86     1.083   .     S
C72    C73     1.392   .     A
C72    C539    1.388   1_554 S
C73    H85     1.079   .     S
C73    C542    1.419   1_554 S
C74    C75     1.406   .     A
C74    C541    1.419   .     S
C74    C544    1.411   .     S
C75    C79     1.412   .     A
C75    C82     1.401   .     A
C76    C80     1.389   .     A
C76    C542    1.411   1_554 S
C76    C545    1.418   1_554 S
C77    C78     1.392   .     A
C77    C535    1.399   .     S
C77    C544    1.418   .     S
C78    C79     1.383   .     A
C79    H87     1.082   .     S
C80    H83     1.080   .     S
C81    N147    1.436   .     S
H84    C123    1.084   .     S
C88    H245    1.088   .     S
C88    C194    1.352   .     S
H89    C400    1.088   1_545 S
C90    C452    1.352   1_545 S
C90    C410    1.532   1_545 S
N91    N93     1.290   .     D
N91    H92     1.029   .     S
N93    H94     1.029   .     S
N95    O96     1.300   .     A
N95    O97     1.301   .     A
C98    H104    1.108   .     S
C98    H103    1.112   .     S
C98    C246    1.532   .     S
C98    C255    1.526   .     S
C99    H101    1.110   .     S
C99    H102    1.107   .     S
C99    C410    1.526   1_545 S
C99    H152    1.109   .     S
O105   Zn111   1.946   .     S
O105   C3      1.274   1_655 S
O106   C107    1.293   .     A
O106   Zn112   1.973   .     S
C107   C140    1.404   .     S
O108   Zn111   1.956   .     S
O108   C6      1.287   1_655 S
O109   Zn112   1.919   .     S
O109   C110    1.300   .     A
C110   C134    1.450   .     S
Zn111  O115    1.919   .     S
Zn111  N145    2.019   .     S
Zn111  O113    1.973   .     S
Zn112  N143    2.019   .     S
Zn112  O116    1.956   .     S
Zn112  O114    1.946   .     S
O113   C117    1.294   .     A
O115   C118    1.300   .     A
C117   C142    1.424   .     S
C117   O10     1.276   1_655 S
C118   C122    1.448   .     S
C118   O12     1.286   1_655 S
C119   C133    1.395   .     A
C119   H589    1.081   1_554 S
C119   C597    1.399   1_554 S
H120   C130    1.081   .     S
H121   C587    1.081   .     S
C122   C132    1.386   .     A
C122   C133    1.414   .     A
C123   C134    1.402   .     A
C123   C592    1.388   .     S
C124   H138    1.083   .     S
C124   C125    1.392   .     A
C124   C591    1.388   1_554 S
C125   H137    1.079   .     S
C125   C594    1.419   1_554 S
C126   C127    1.406   .     A
C126   C593    1.419   .     S
C126   C596    1.411   .     S
C127   C131    1.412   .     A
C127   C134    1.401   .     A
C128   C132    1.389   .     A
C128   C594    1.411   1_554 S
C128   C597    1.418   1_554 S
C129   C130    1.392   .     A
C129   C587    1.399   .     S
C129   C596    1.418   .     S
C130   C131    1.383   .     A
C131   H139    1.082   .     S
C132   H135    1.080   .     S
C133   N43     1.436   1_655 S
H136   C19     1.084   1_655 S
C140   H297    1.088   .     S
C140   C246    1.352   .     S
H141   C452    1.088   1_545 S
C142   C348    1.352   1_645 S
C142   C462    1.532   1_545 S
N143   N145    1.290   .     D
N143   H144    1.029   .     S
N145   H146    1.029   .     S
N147   O148    1.300   .     A
N147   O149    1.301   .     A
C150   H156    1.108   .     S
C150   H155    1.112   .     S
C150   C298    1.532   .     S
C150   C307    1.526   .     S
C151   H153    1.110   .     S
C151   H154    1.107   .     S
C151   C462    1.526   1_545 S
C151   H48     1.109   1_655 S
O157   Zn163   1.946   .     S
O157   C211    1.274   .     S
O158   C159    1.293   .     A
O158   Zn164   1.973   .     S
C159   C192    1.404   .     S
C159   O261    1.274   1_455 S
O160   Zn163   1.956   .     S
O160   C214    1.287   .     S
O161   Zn164   1.919   .     S
O161   C162    1.300   .     A
C162   C186    1.450   .     S
C162   O264    1.287   1_455 S
Zn163  O167    1.919   .     S
Zn163  N197    2.019   .     S
Zn163  O165    1.973   .     S
Zn164  N195    2.019   .     S
Zn164  O168    1.956   .     S
Zn164  O166    1.946   .     S
O165   C169    1.294   .     A
O166   C273    1.276   1_455 S
O167   C170    1.300   .     A
O168   C274    1.286   1_455 S
C169   C194    1.424   .     S
C169   O218    1.276   .     S
C170   C174    1.448   .     S
C170   O220    1.286   .     S
C171   C185    1.395   .     A
C171   H641    1.081   1_554 S
C171   C649    1.399   1_554 S
H172   C182    1.081   .     S
H173   C639    1.081   .     S
C174   C184    1.386   .     A
C174   C185    1.414   .     A
C175   C186    1.402   .     A
C175   C644    1.388   .     S
C175   H292    1.084   1_455 S
C176   H190    1.083   .     S
C176   C177    1.392   .     A
C176   C643    1.388   1_554 S
C177   H189    1.079   .     S
C177   C646    1.419   1_554 S
C178   C179    1.406   .     A
C178   C645    1.419   .     S
C178   C648    1.411   .     S
C179   C183    1.412   .     A
C179   C186    1.401   .     A
C180   C184    1.389   .     A
C180   C646    1.411   1_554 S
C180   C649    1.418   1_554 S
C181   C182    1.392   .     A
C181   C639    1.399   .     S
C181   C648    1.418   .     S
C182   C183    1.383   .     A
C183   H191    1.082   .     S
C184   H187    1.080   .     S
C185   N251    1.436   .     S
H188   C227    1.084   .     S
C192   H349    1.088   .     S
C192   C454    1.352   1_455 S
N195   N197    1.290   .     D
N195   H196    1.029   .     S
N197   H198    1.029   .     S
N199   O200    1.300   .     A
N199   O201    1.301   .     A
N199   C289    1.436   1_455 S
C202   H208    1.108   .     S
C202   H207    1.112   .     S
C202   C350    1.532   .     S
C202   C359    1.526   .     S
C203   H205    1.110   .     S
C203   H206    1.107   .     S
C203   H256    1.109   .     S
H204   C307    1.109   1_455 S
O209   Zn215   1.946   .     S
O209   C263    1.274   .     S
O210   C211    1.293   .     A
O210   Zn216   1.973   .     S
C211   C244    1.404   .     S
O212   Zn215   1.956   .     S
O212   C266    1.287   .     S
O213   Zn216   1.919   .     S
O213   C214    1.300   .     A
C214   C238    1.450   .     S
Zn215  O219    1.919   .     S
Zn215  N249    2.019   .     S
Zn215  O217    1.973   .     S
Zn216  N247    2.019   .     S
Zn216  O220    1.956   .     S
Zn216  O218    1.946   .     S
O217   C221    1.294   .     A
O219   C222    1.300   .     A
C221   C246    1.424   .     S
C221   O270    1.276   .     S
C222   C226    1.448   .     S
C222   O272    1.286   .     S
C223   C237    1.395   .     A
C223   H693    1.081   1_554 S
C223   C701    1.399   1_554 S
H224   C234    1.081   .     S
H225   C691    1.081   .     S
C226   C236    1.386   .     A
C226   C237    1.414   .     A
C227   C238    1.402   .     A
C227   C696    1.388   .     S
C228   H242    1.083   .     S
C228   C229    1.392   .     A
C228   C695    1.388   1_554 S
C229   H241    1.079   .     S
C229   C698    1.419   1_554 S
C230   C231    1.406   .     A
C230   C697    1.419   .     S
C230   C700    1.411   .     S
C231   C235    1.412   .     A
C231   C238    1.401   .     A
C232   C236    1.389   .     A
C232   C698    1.411   1_554 S
C232   C701    1.418   1_554 S
C233   C234    1.392   .     A
C233   C691    1.399   .     S
C233   C700    1.418   .     S
C234   C235    1.383   .     A
C235   H243    1.082   .     S
C236   H239    1.080   .     S
C237   N303    1.436   .     S
H240   C279    1.084   .     S
C244   H401    1.088   .     S
C244   C350    1.352   .     S
N247   N249    1.290   .     D
N247   H248    1.029   .     S
N249   H250    1.029   .     S
N251   O252    1.300   .     A
N251   O253    1.301   .     A
C254   H260    1.108   .     S
C254   H259    1.112   .     S
C254   C402    1.532   .     S
C254   C411    1.526   .     S
C255   H257    1.110   .     S
C255   H258    1.107   .     S
C255   H308    1.109   .     S
O261   Zn267   1.946   .     S
O261   C159    1.274   1_655 S
O262   C263    1.293   .     A
O262   Zn268   1.973   .     S
C263   C296    1.404   .     S
O264   Zn267   1.956   .     S
O264   C162    1.287   1_655 S
O265   Zn268   1.919   .     S
O265   C266    1.300   .     A
C266   C290    1.450   .     S
Zn267  O271    1.919   .     S
Zn267  N301    2.019   .     S
Zn267  O269    1.973   .     S
Zn268  N299    2.019   .     S
Zn268  O272    1.956   .     S
Zn268  O270    1.946   .     S
O269   C273    1.294   .     A
O271   C274    1.300   .     A
C273   C298    1.424   .     S
C273   O166    1.276   1_655 S
C274   C278    1.448   .     S
C274   O168    1.286   1_655 S
C275   C289    1.395   .     A
C275   H745    1.081   1_554 S
C275   C753    1.399   1_554 S
H276   C286    1.081   .     S
H277   C743    1.081   .     S
C278   C288    1.386   .     A
C278   C289    1.414   .     A
C279   C290    1.402   .     A
C279   C748    1.388   .     S
C280   H294    1.083   .     S
C280   C281    1.392   .     A
C280   C747    1.388   1_554 S
C281   H293    1.079   .     S
C281   C750    1.419   1_554 S
C282   C283    1.406   .     A
C282   C749    1.419   .     S
C282   C752    1.411   .     S
C283   C287    1.412   .     A
C283   C290    1.401   .     A
C284   C288    1.389   .     A
C284   C750    1.411   1_554 S
C284   C753    1.418   1_554 S
C285   C286    1.392   .     A
C285   C743    1.399   .     S
C285   C752    1.418   .     S
C286   C287    1.383   .     A
C287   H295    1.082   .     S
C288   H291    1.080   .     S
C289   N199    1.436   1_655 S
H292   C175    1.084   1_655 S
C296   H453    1.088   .     S
C296   C402    1.352   .     S
C298   C36     1.352   1_655 S
N299   N301    1.290   .     D
N299   H300    1.029   .     S
N301   H302    1.029   .     S
N303   O304    1.300   .     A
N303   O305    1.301   .     A
C306   H312    1.108   .     S
C306   H311    1.112   .     S
C306   C454    1.532   .     S
C306   C463    1.526   .     S
C307   H309    1.110   .     S
C307   H310    1.107   .     S
C307   H204    1.109   1_655 S
O313   Zn319   1.946   .     S
O313   C367    1.274   .     S
O314   C315    1.293   .     A
O314   Zn320   1.973   .     S
C315   C348    1.404   .     S
C315   O417    1.274   1_455 S
O316   Zn319   1.956   .     S
O316   C370    1.287   .     S
O317   Zn320   1.919   .     S
O317   C318    1.300   .     A
C318   C342    1.450   .     S
C318   O420    1.287   1_455 S
Zn319  O323    1.919   .     S
Zn319  N353    2.019   .     S
Zn319  O321    1.973   .     S
Zn320  N351    2.019   .     S
Zn320  O324    1.956   .     S
Zn320  O322    1.946   .     S
O321   C325    1.294   .     A
O322   C429    1.276   1_455 S
O323   C326    1.300   .     A
O324   C430    1.286   1_455 S
C325   C350    1.424   .     S
C325   O374    1.276   .     S
C326   C330    1.448   .     S
C326   O376    1.286   .     S
C327   C341    1.395   .     A
C327   H797    1.081   1_554 S
C327   C805    1.399   1_554 S
H328   C338    1.081   .     S
H329   C795    1.081   .     S
C330   C340    1.386   .     A
C330   C341    1.414   .     A
C331   C342    1.402   .     A
C331   C800    1.388   .     S
C331   H448    1.084   1_455 S
C332   H346    1.083   .     S
C332   C333    1.392   .     A
C332   C799    1.388   1_554 S
C333   H345    1.079   .     S
C333   C802    1.419   1_554 S
C334   C335    1.406   .     A
C334   C801    1.419   .     S
C334   C804    1.411   .     S
C335   C339    1.412   .     A
C335   C342    1.401   .     A
C336   C340    1.389   .     A
C336   C802    1.411   1_554 S
C336   C805    1.418   1_554 S
C337   C338    1.392   .     A
C337   C795    1.399   .     S
C337   C804    1.418   .     S
C338   C339    1.383   .     A
C339   H347    1.082   .     S
C340   H343    1.080   .     S
C341   N407    1.436   .     S
H344   C383    1.084   .     S
C348   H37     1.088   1_565 S
C348   C142    1.352   1_465 S
N351   N353    1.290   .     D
N351   H352    1.029   .     S
N353   H354    1.029   .     S
N355   O356    1.300   .     A
N355   O357    1.301   .     A
N355   C445    1.436   1_455 S
C358   H364    1.108   .     S
C358   H363    1.112   .     S
C358   C38     1.532   1_565 S
C358   C47     1.526   1_565 S
C359   H361    1.110   .     S
C359   H362    1.107   .     S
C359   H412    1.109   .     S
H360   C463    1.109   1_455 S
O365   Zn371   1.946   .     S
O365   C419    1.274   .     S
O366   C367    1.293   .     A
O366   Zn372   1.973   .     S
C367   C400    1.404   .     S
O368   Zn371   1.956   .     S
O368   C422    1.287   .     S
O369   Zn372   1.919   .     S
O369   C370    1.300   .     A
C370   C394    1.450   .     S
Zn371  O375    1.919   .     S
Zn371  N405    2.019   .     S
Zn371  O373    1.973   .     S
Zn372  N403    2.019   .     S
Zn372  O376    1.956   .     S
Zn372  O374    1.946   .     S
O373   C377    1.294   .     A
O375   C378    1.300   .     A
C377   C402    1.424   .     S
C377   O426    1.276   .     S
C378   C382    1.448   .     S
C378   O428    1.286   .     S
C379   C393    1.395   .     A
C379   H849    1.081   1_554 S
C379   C857    1.399   1_554 S
H380   C390    1.081   .     S
H381   C847    1.081   .     S
C382   C392    1.386   .     A
C382   C393    1.414   .     A
C383   C394    1.402   .     A
C383   C852    1.388   .     S
C384   H398    1.083   .     S
C384   C385    1.392   .     A
C384   C851    1.388   1_554 S
C385   H397    1.079   .     S
C385   C854    1.419   1_554 S
C386   C387    1.406   .     A
C386   C853    1.419   .     S
C386   C856    1.411   .     S
C387   C391    1.412   .     A
C387   C394    1.401   .     A
C388   C392    1.389   .     A
C388   C854    1.411   1_554 S
C388   C857    1.418   1_554 S
C389   C390    1.392   .     A
C389   C847    1.399   .     S
C389   C856    1.418   .     S
C390   C391    1.383   .     A
C391   H399    1.082   .     S
C392   H395    1.080   .     S
C393   N459    1.436   .     S
H396   C435    1.084   .     S
C400   H89     1.088   1_565 S
C400   C38     1.352   1_565 S
N403   N405    1.290   .     D
N403   H404    1.029   .     S
N405   H406    1.029   .     S
N407   O408    1.300   .     A
N407   O409    1.301   .     A
C410   H416    1.108   .     S
C410   H415    1.112   .     S
C410   C90     1.532   1_565 S
C410   C99     1.526   1_565 S
C411   H413    1.110   .     S
C411   H414    1.107   .     S
C411   H464    1.109   .     S
O417   Zn423   1.946   .     S
O417   C315    1.274   1_655 S
O418   C419    1.293   .     A
O418   Zn424   1.973   .     S
C419   C452    1.404   .     S
O420   Zn423   1.956   .     S
O420   C318    1.287   1_655 S
O421   Zn424   1.919   .     S
O421   C422    1.300   .     A
C422   C446    1.450   .     S
Zn423  O427    1.919   .     S
Zn423  N457    2.019   .     S
Zn423  O425    1.973   .     S
Zn424  N455    2.019   .     S
Zn424  O428    1.956   .     S
Zn424  O426    1.946   .     S
O425   C429    1.294   .     A
O427   C430    1.300   .     A
C429   C454    1.424   .     S
C429   O322    1.276   1_655 S
C430   C434    1.448   .     S
C430   O324    1.286   1_655 S
C431   C445    1.395   .     A
C431   H901    1.081   1_554 S
C431   C909    1.399   1_554 S
H432   C442    1.081   .     S
H433   C899    1.081   .     S
C434   C444    1.386   .     A
C434   C445    1.414   .     A
C435   C446    1.402   .     A
C435   C904    1.388   .     S
C436   H450    1.083   .     S
C436   C437    1.392   .     A
C436   C903    1.388   1_554 S
C437   H449    1.079   .     S
C437   C906    1.419   1_554 S
C438   C439    1.406   .     A
C438   C905    1.419   .     S
C438   C908    1.411   .     S
C439   C443    1.412   .     A
C439   C446    1.401   .     A
C440   C444    1.389   .     A
C440   C906    1.411   1_554 S
C440   C909    1.418   1_554 S
C441   C442    1.392   .     A
C441   C899    1.399   .     S
C441   C908    1.418   .     S
C442   C443    1.383   .     A
C443   H451    1.082   .     S
C444   H447    1.080   .     S
C445   N355    1.436   1_655 S
H448   C331    1.084   1_655 S
C452   H141    1.088   1_565 S
C452   C90     1.352   1_565 S
C454   C192    1.352   1_655 S
N455   N457    1.290   .     D
N455   H456    1.029   .     S
N457   H458    1.029   .     S
N459   O460    1.300   .     A
N459   O461    1.301   .     A
C462   H468    1.108   .     S
C462   H467    1.112   .     S
C462   C142    1.532   1_565 S
C462   C151    1.526   1_565 S
C463   H465    1.110   .     S
C463   H466    1.107   .     S
C463   H360    1.109   1_655 S
O469   Zn475   1.946   .     S
O469   C523    1.274   .     S
O470   C471    1.293   .     A
O470   Zn476   1.973   .     S
C471   C504    1.404   .     S
C471   O573    1.274   1_455 S
O472   Zn475   1.956   .     S
O472   C526    1.287   .     S
O473   Zn476   1.919   .     S
O473   C474    1.300   .     A
C474   C498    1.450   .     S
C474   O576    1.287   1_455 S
Zn475  O479    1.919   .     S
Zn475  N509    2.019   .     S
Zn475  O477    1.973   .     S
Zn476  N507    2.019   .     S
Zn476  O480    1.956   .     S
Zn476  O478    1.946   .     S
O477   C481    1.294   .     A
O478   C585    1.276   1_455 S
O479   C482    1.300   .     A
O480   C586    1.286   1_455 S
C481   C506    1.424   .     S
C481   O530    1.276   .     S
C482   C486    1.448   .     S
C482   O532    1.286   .     S
C483   C497    1.395   .     A
H484   C494    1.081   .     S
H485   C15     1.081   1_556 S
C486   C496    1.386   .     A
C486   C497    1.414   .     A
C487   C498    1.402   .     A
C487   C20     1.388   1_556 S
C487   H604    1.084   1_455 S
C488   H502    1.083   .     S
C488   C489    1.392   .     A
C489   H501    1.079   .     S
C490   C491    1.406   .     A
C490   C21     1.419   1_556 S
C490   C24     1.411   1_556 S
C491   C495    1.412   .     A
C491   C498    1.401   .     A
C492   C496    1.389   .     A
C493   C494    1.392   .     A
C493   C15     1.399   1_556 S
C493   C24     1.418   1_556 S
C494   C495    1.383   .     A
C495   H503    1.082   .     S
C496   H499    1.080   .     S
C497   N563    1.436   .     S
H500   C539    1.084   .     S
C504   H661    1.088   .     S
C504   C766    1.352   1_455 S
H505   C816    1.088   1_545 S
C506   C868    1.352   1_545 S
C506   C826    1.532   1_545 S
N507   N509    1.290   .     D
N507   H508    1.029   .     S
N509   H510    1.029   .     S
N511   O512    1.300   .     A
N511   O513    1.301   .     A
N511   C601    1.436   1_455 S
C514   H520    1.108   .     S
C514   H519    1.112   .     S
C514   C662    1.532   .     S
C514   C671    1.526   .     S
C515   H517    1.110   .     S
C515   H518    1.107   .     S
C515   C826    1.526   1_545 S
C515   H568    1.109   .     S
H516   C619    1.109   1_455 S
O521   Zn527   1.946   .     S
O521   C575    1.274   .     S
O522   C523    1.293   .     A
O522   Zn528   1.973   .     S
C523   C556    1.404   .     S
O524   Zn527   1.956   .     S
O524   C578    1.287   .     S
O525   Zn528   1.919   .     S
O525   C526    1.300   .     A
C526   C550    1.450   .     S
Zn527  O531    1.919   .     S
Zn527  N561    2.019   .     S
Zn527  O529    1.973   .     S
Zn528  N559    2.019   .     S
Zn528  O532    1.956   .     S
Zn528  O530    1.946   .     S
O529   C533    1.294   .     A
O531   C534    1.300   .     A
C533   C558    1.424   .     S
C533   O582    1.276   .     S
C534   C538    1.448   .     S
C534   O584    1.286   .     S
C535   C549    1.395   .     A
H536   C546    1.081   .     S
H537   C67     1.081   1_556 S
C538   C548    1.386   .     A
C538   C549    1.414   .     A
C539   C550    1.402   .     A
C539   C72     1.388   1_556 S
C540   H554    1.083   .     S
C540   C541    1.392   .     A
C541   H553    1.079   .     S
C542   C543    1.406   .     A
C542   C73     1.419   1_556 S
C542   C76     1.411   1_556 S
C543   C547    1.412   .     A
C543   C550    1.401   .     A
C544   C548    1.389   .     A
C545   C546    1.392   .     A
C545   C67     1.399   1_556 S
C545   C76     1.418   1_556 S
C546   C547    1.383   .     A
C547   H555    1.082   .     S
C548   H551    1.080   .     S
C549   N615    1.436   .     S
H552   C591    1.084   .     S
C556   H713    1.088   .     S
C556   C662    1.352   .     S
H557   C868    1.088   1_545 S
C558   C920    1.352   1_545 S
C558   C878    1.532   1_545 S
N559   N561    1.290   .     D
N559   H560    1.029   .     S
N561   H562    1.029   .     S
N563   O564    1.300   .     A
N563   O565    1.301   .     A
C566   H572    1.108   .     S
C566   H571    1.112   .     S
C566   C714    1.532   .     S
C566   C723    1.526   .     S
C567   H569    1.110   .     S
C567   H570    1.107   .     S
C567   C878    1.526   1_545 S
C567   H620    1.109   .     S
O573   Zn579   1.946   .     S
O573   C471    1.274   1_655 S
O574   C575    1.293   .     A
O574   Zn580   1.973   .     S
C575   C608    1.404   .     S
O576   Zn579   1.956   .     S
O576   C474    1.287   1_655 S
O577   Zn580   1.919   .     S
O577   C578    1.300   .     A
C578   C602    1.450   .     S
Zn579  O583    1.919   .     S
Zn579  N613    2.019   .     S
Zn579  O581    1.973   .     S
Zn580  N611    2.019   .     S
Zn580  O584    1.956   .     S
Zn580  O582    1.946   .     S
O581   C585    1.294   .     A
O583   C586    1.300   .     A
C585   C610    1.424   .     S
C585   O478    1.276   1_655 S
C586   C590    1.448   .     S
C586   O480    1.286   1_655 S
C587   C601    1.395   .     A
H588   C598    1.081   .     S
H589   C119    1.081   1_556 S
C590   C600    1.386   .     A
C590   C601    1.414   .     A
C591   C602    1.402   .     A
C591   C124    1.388   1_556 S
C592   H606    1.083   .     S
C592   C593    1.392   .     A
C593   H605    1.079   .     S
C594   C595    1.406   .     A
C594   C125    1.419   1_556 S
C594   C128    1.411   1_556 S
C595   C599    1.412   .     A
C595   C602    1.401   .     A
C596   C600    1.389   .     A
C597   C598    1.392   .     A
C597   C119    1.399   1_556 S
C597   C128    1.418   1_556 S
C598   C599    1.383   .     A
C599   H607    1.082   .     S
C600   H603    1.080   .     S
C601   N511    1.436   1_655 S
H604   C487    1.084   1_655 S
C608   H765    1.088   .     S
C608   C714    1.352   .     S
H609   C920    1.088   1_545 S
C610   C816    1.352   1_645 S
C610   C930    1.532   1_545 S
N611   N613    1.290   .     D
N611   H612    1.029   .     S
N613   H614    1.029   .     S
N615   O616    1.300   .     A
N615   O617    1.301   .     A
C618   H624    1.108   .     S
C618   H623    1.112   .     S
C618   C766    1.532   .     S
C618   C775    1.526   .     S
C619   H621    1.110   .     S
C619   H622    1.107   .     S
C619   C930    1.526   1_545 S
C619   H516    1.109   1_655 S
O625   Zn631   1.946   .     S
O625   C679    1.274   .     S
O626   C627    1.293   .     A
O626   Zn632   1.973   .     S
C627   C660    1.404   .     S
C627   O729    1.274   1_455 S
O628   Zn631   1.956   .     S
O628   C682    1.287   .     S
O629   Zn632   1.919   .     S
O629   C630    1.300   .     A
C630   C654    1.450   .     S
C630   O732    1.287   1_455 S
Zn631  O635    1.919   .     S
Zn631  N665    2.019   .     S
Zn631  O633    1.973   .     S
Zn632  N663    2.019   .     S
Zn632  O636    1.956   .     S
Zn632  O634    1.946   .     S
O633   C637    1.294   .     A
O634   C741    1.276   1_455 S
O635   C638    1.300   .     A
O636   C742    1.286   1_455 S
C637   C662    1.424   .     S
C637   O686    1.276   .     S
C638   C642    1.448   .     S
C638   O688    1.286   .     S
C639   C653    1.395   .     A
H640   C650    1.081   .     S
H641   C171    1.081   1_556 S
C642   C652    1.386   .     A
C642   C653    1.414   .     A
C643   C654    1.402   .     A
C643   C176    1.388   1_556 S
C643   H760    1.084   1_455 S
C644   H658    1.083   .     S
C644   C645    1.392   .     A
C645   H657    1.079   .     S
C646   C647    1.406   .     A
C646   C177    1.419   1_556 S
C646   C180    1.411   1_556 S
C647   C651    1.412   .     A
C647   C654    1.401   .     A
C648   C652    1.389   .     A
C649   C650    1.392   .     A
C649   C171    1.399   1_556 S
C649   C180    1.418   1_556 S
C650   C651    1.383   .     A
C651   H659    1.082   .     S
C652   H655    1.080   .     S
C653   N719    1.436   .     S
H656   C695    1.084   .     S
C660   H817    1.088   .     S
C660   C922    1.352   1_455 S
N663   N665    1.290   .     D
N663   H664    1.029   .     S
N665   H666    1.029   .     S
N667   O668    1.300   .     A
N667   O669    1.301   .     A
N667   C757    1.436   1_455 S
C670   H676    1.108   .     S
C670   H675    1.112   .     S
C670   C818    1.532   .     S
C670   C827    1.526   .     S
C671   H673    1.110   .     S
C671   H674    1.107   .     S
C671   H724    1.109   .     S
H672   C775    1.109   1_455 S
O677   Zn683   1.946   .     S
O677   C731    1.274   .     S
O678   C679    1.293   .     A
O678   Zn684   1.973   .     S
C679   C712    1.404   .     S
O680   Zn683   1.956   .     S
O680   C734    1.287   .     S
O681   Zn684   1.919   .     S
O681   C682    1.300   .     A
C682   C706    1.450   .     S
Zn683  O687    1.919   .     S
Zn683  N717    2.019   .     S
Zn683  O685    1.973   .     S
Zn684  N715    2.019   .     S
Zn684  O688    1.956   .     S
Zn684  O686    1.946   .     S
O685   C689    1.294   .     A
O687   C690    1.300   .     A
C689   C714    1.424   .     S
C689   O738    1.276   .     S
C690   C694    1.448   .     S
C690   O740    1.286   .     S
C691   C705    1.395   .     A
H692   C702    1.081   .     S
H693   C223    1.081   1_556 S
C694   C704    1.386   .     A
C694   C705    1.414   .     A
C695   C706    1.402   .     A
C695   C228    1.388   1_556 S
C696   H710    1.083   .     S
C696   C697    1.392   .     A
C697   H709    1.079   .     S
C698   C699    1.406   .     A
C698   C229    1.419   1_556 S
C698   C232    1.411   1_556 S
C699   C703    1.412   .     A
C699   C706    1.401   .     A
C700   C704    1.389   .     A
C701   C702    1.392   .     A
C701   C223    1.399   1_556 S
C701   C232    1.418   1_556 S
C702   C703    1.383   .     A
C703   H711    1.082   .     S
C704   H707    1.080   .     S
C705   N771    1.436   .     S
H708   C747    1.084   .     S
C712   H869    1.088   .     S
C712   C818    1.352   .     S
N715   N717    1.290   .     D
N715   H716    1.029   .     S
N717   H718    1.029   .     S
N719   O720    1.300   .     A
N719   O721    1.301   .     A
C722   H728    1.108   .     S
C722   H727    1.112   .     S
C722   C870    1.532   .     S
C722   C879    1.526   .     S
C723   H725    1.110   .     S
C723   H726    1.107   .     S
C723   H776    1.109   .     S
O729   Zn735   1.946   .     S
O729   C627    1.274   1_655 S
O730   C731    1.293   .     A
O730   Zn736   1.973   .     S
C731   C764    1.404   .     S
O732   Zn735   1.956   .     S
O732   C630    1.287   1_655 S
O733   Zn736   1.919   .     S
O733   C734    1.300   .     A
C734   C758    1.450   .     S
Zn735  O739    1.919   .     S
Zn735  N769    2.019   .     S
Zn735  O737    1.973   .     S
Zn736  N767    2.019   .     S
Zn736  O740    1.956   .     S
Zn736  O738    1.946   .     S
O737   C741    1.294   .     A
O739   C742    1.300   .     A
C741   C766    1.424   .     S
C741   O634    1.276   1_655 S
C742   C746    1.448   .     S
C742   O636    1.286   1_655 S
C743   C757    1.395   .     A
H744   C754    1.081   .     S
H745   C275    1.081   1_556 S
C746   C756    1.386   .     A
C746   C757    1.414   .     A
C747   C758    1.402   .     A
C747   C280    1.388   1_556 S
C748   H762    1.083   .     S
C748   C749    1.392   .     A
C749   H761    1.079   .     S
C750   C751    1.406   .     A
C750   C281    1.419   1_556 S
C750   C284    1.411   1_556 S
C751   C755    1.412   .     A
C751   C758    1.401   .     A
C752   C756    1.389   .     A
C753   C754    1.392   .     A
C753   C275    1.399   1_556 S
C753   C284    1.418   1_556 S
C754   C755    1.383   .     A
C755   H763    1.082   .     S
C756   H759    1.080   .     S
C757   N667    1.436   1_655 S
H760   C643    1.084   1_655 S
C764   H921    1.088   .     S
C764   C870    1.352   .     S
C766   C504    1.352   1_655 S
N767   N769    1.290   .     D
N767   H768    1.029   .     S
N769   H770    1.029   .     S
N771   O772    1.300   .     A
N771   O773    1.301   .     A
C774   H780    1.108   .     S
C774   H779    1.112   .     S
C774   C922    1.532   .     S
C774   C931    1.526   .     S
C775   H777    1.110   .     S
C775   H778    1.107   .     S
C775   H672    1.109   1_655 S
O781   Zn787   1.946   .     S
O781   C835    1.274   .     S
O782   C783    1.293   .     A
O782   Zn788   1.973   .     S
C783   C816    1.404   .     S
C783   O885    1.274   1_455 S
O784   Zn787   1.956   .     S
O784   C838    1.287   .     S
O785   Zn788   1.919   .     S
O785   C786    1.300   .     A
C786   C810    1.450   .     S
C786   O888    1.287   1_455 S
Zn787  O791    1.919   .     S
Zn787  N821    2.019   .     S
Zn787  O789    1.973   .     S
Zn788  N819    2.019   .     S
Zn788  O792    1.956   .     S
Zn788  O790    1.946   .     S
O789   C793    1.294   .     A
O790   C897    1.276   1_455 S
O791   C794    1.300   .     A
O792   C898    1.286   1_455 S
C793   C818    1.424   .     S
C793   O842    1.276   .     S
C794   C798    1.448   .     S
C794   O844    1.286   .     S
C795   C809    1.395   .     A
H796   C806    1.081   .     S
H797   C327    1.081   1_556 S
C798   C808    1.386   .     A
C798   C809    1.414   .     A
C799   C810    1.402   .     A
C799   C332    1.388   1_556 S
C799   H916    1.084   1_455 S
C800   H814    1.083   .     S
C800   C801    1.392   .     A
C801   H813    1.079   .     S
C802   C803    1.406   .     A
C802   C333    1.419   1_556 S
C802   C336    1.411   1_556 S
C803   C807    1.412   .     A
C803   C810    1.401   .     A
C804   C808    1.389   .     A
C805   C806    1.392   .     A
C805   C327    1.399   1_556 S
C805   C336    1.418   1_556 S
C806   C807    1.383   .     A
C807   H815    1.082   .     S
C808   H811    1.080   .     S
C809   N875    1.436   .     S
H812   C851    1.084   .     S
C816   H505    1.088   1_565 S
C816   C610    1.352   1_465 S
N819   N821    1.290   .     D
N819   H820    1.029   .     S
N821   H822    1.029   .     S
N823   O824    1.300   .     A
N823   O825    1.301   .     A
N823   C913    1.436   1_455 S
C826   H832    1.108   .     S
C826   H831    1.112   .     S
C826   C506    1.532   1_565 S
C826   C515    1.526   1_565 S
C827   H829    1.110   .     S
C827   H830    1.107   .     S
C827   H880    1.109   .     S
H828   C931    1.109   1_455 S
O833   Zn839   1.946   .     S
O833   C887    1.274   .     S
O834   C835    1.293   .     A
O834   Zn840   1.973   .     S
C835   C868    1.404   .     S
O836   Zn839   1.956   .     S
O836   C890    1.287   .     S
O837   Zn840   1.919   .     S
O837   C838    1.300   .     A
C838   C862    1.450   .     S
Zn839  O843    1.919   .     S
Zn839  N873    2.019   .     S
Zn839  O841    1.973   .     S
Zn840  N871    2.019   .     S
Zn840  O844    1.956   .     S
Zn840  O842    1.946   .     S
O841   C845    1.294   .     A
O843   C846    1.300   .     A
C845   C870    1.424   .     S
C845   O894    1.276   .     S
C846   C850    1.448   .     S
C846   O896    1.286   .     S
C847   C861    1.395   .     A
H848   C858    1.081   .     S
H849   C379    1.081   1_556 S
C850   C860    1.386   .     A
C850   C861    1.414   .     A
C851   C862    1.402   .     A
C851   C384    1.388   1_556 S
C852   H866    1.083   .     S
C852   C853    1.392   .     A
C853   H865    1.079   .     S
C854   C855    1.406   .     A
C854   C385    1.419   1_556 S
C854   C388    1.411   1_556 S
C855   C859    1.412   .     A
C855   C862    1.401   .     A
C856   C860    1.389   .     A
C857   C858    1.392   .     A
C857   C379    1.399   1_556 S
C857   C388    1.418   1_556 S
C858   C859    1.383   .     A
C859   H867    1.082   .     S
C860   H863    1.080   .     S
C861   N927    1.436   .     S
H864   C903    1.084   .     S
C868   H557    1.088   1_565 S
C868   C506    1.352   1_565 S
N871   N873    1.290   .     D
N871   H872    1.029   .     S
N873   H874    1.029   .     S
N875   O876    1.300   .     A
N875   O877    1.301   .     A
C878   H884    1.108   .     S
C878   H883    1.112   .     S
C878   C558    1.532   1_565 S
C878   C567    1.526   1_565 S
C879   H881    1.110   .     S
C879   H882    1.107   .     S
C879   H932    1.109   .     S
O885   Zn891   1.946   .     S
O885   C783    1.274   1_655 S
O886   C887    1.293   .     A
O886   Zn892   1.973   .     S
C887   C920    1.404   .     S
O888   Zn891   1.956   .     S
O888   C786    1.287   1_655 S
O889   Zn892   1.919   .     S
O889   C890    1.300   .     A
C890   C914    1.450   .     S
Zn891  O895    1.919   .     S
Zn891  N925    2.019   .     S
Zn891  O893    1.973   .     S
Zn892  N923    2.019   .     S
Zn892  O896    1.956   .     S
Zn892  O894    1.946   .     S
O893   C897    1.294   .     A
O895   C898    1.300   .     A
C897   C922    1.424   .     S
C897   O790    1.276   1_655 S
C898   C902    1.448   .     S
C898   O792    1.286   1_655 S
C899   C913    1.395   .     A
H900   C910    1.081   .     S
H901   C431    1.081   1_556 S
C902   C912    1.386   .     A
C902   C913    1.414   .     A
C903   C914    1.402   .     A
C903   C436    1.388   1_556 S
C904   H918    1.083   .     S
C904   C905    1.392   .     A
C905   H917    1.079   .     S
C906   C907    1.406   .     A
C906   C437    1.419   1_556 S
C906   C440    1.411   1_556 S
C907   C911    1.412   .     A
C907   C914    1.401   .     A
C908   C912    1.389   .     A
C909   C910    1.392   .     A
C909   C431    1.399   1_556 S
C909   C440    1.418   1_556 S
C910   C911    1.383   .     A
C911   H919    1.082   .     S
C912   H915    1.080   .     S
C913   N823    1.436   1_655 S
H916   C799    1.084   1_655 S
C920   H609    1.088   1_565 S
C920   C558    1.352   1_565 S
C922   C660    1.352   1_655 S
N923   N925    1.290   .     D
N923   H924    1.029   .     S
N925   H926    1.029   .     S
N927   O928    1.300   .     A
N927   O929    1.301   .     A
C930   H936    1.108   .     S
C930   H935    1.112   .     S
C930   C610    1.532   1_565 S
C930   C619    1.526   1_565 S
C931   H933    1.110   .     S
C931   H934    1.107   .     S
C931   H828    1.109   1_655 S
