data_str_m3_o1_o18_pcu_sym.68
_audit_creation_date              2020-01-03
_audit_creation_method            'Materials Studio'
_symmetry_space_group_name_H-M    'P1'
_symmetry_Int_Tables_number       1
_symmetry_cell_setting            triclinic
loop_
_symmetry_equiv_pos_as_xyz
  x,y,z
_cell_length_a                    29.5801
_cell_length_b                    32.0004
_cell_length_c                    30.6831
_cell_angle_alpha                 90.6043
_cell_angle_beta                  67.3745
_cell_angle_gamma                 90.4784
loop_
_atom_site_label
_atom_site_type_symbol
_atom_site_fract_x
_atom_site_fract_y
_atom_site_fract_z
_atom_site_U_iso_or_equiv
_atom_site_adp_type
_atom_site_occupancy
C1     C     0.16715   0.24660   0.24930   0.00000  Uiso   1.00
C2     C     0.12414   0.31112   0.27575   0.00000  Uiso   1.00
C3     C     0.16595   0.04260   0.25087   0.00000  Uiso   1.00
C4     C     0.16762   0.29074   0.24886   0.00000  Uiso   1.00
C5     C     0.32119   0.14165   0.21947   0.00000  Uiso   1.00
C6     C     0.01222   0.19176   0.28040   0.00000  Uiso   1.00
C7     C     0.03628   0.14092   0.21963   0.00000  Uiso   1.00
C8     C     0.29716   0.19258   0.28017   0.00000  Uiso   1.00
C9     C     0.13585   0.16703   0.33834   0.00000  Uiso   1.00
C10    C     0.19732   0.16590   0.16179   0.00000  Uiso   1.00
C11    C     0.11535   0.16617   0.38982   0.00000  Uiso   1.00
C12    C     0.16621   0.08673   0.25068   0.00000  Uiso   1.00
C13    C     0.21573   0.15685   0.11152   0.00000  Uiso   1.00
C14    C     0.04840   0.17442   0.46561   0.00000  Uiso   1.00
C15    C     0.25935   0.11056   0.04685   0.00000  Uiso   1.00
C16    C     0.06559   0.17344   0.41640   0.00000  Uiso   1.00
C17    C     0.25213   0.12704   0.09118   0.00000  Uiso   1.00
C18    C     0.14656   0.15730   0.41260   0.00000  Uiso   1.00
C19    C     0.18732   0.16999   0.08745   0.00000  Uiso   1.00
C20    C     0.12886   0.15383   0.46153   0.00000  Uiso   1.00
C21    C     0.18714   0.14829   0.04797   0.00000  Uiso   1.00
C22    C     0.08062   0.16653   0.48852   0.00000  Uiso   1.00
C23    C     0.10201   0.17148   0.05774   0.00000  Uiso   1.00
C24    C     0.22654   0.12033   0.02510   0.00000  Uiso   1.00
C25    C     0.15929   0.13982   0.48393   0.00000  Uiso   1.00
C26    C     0.14953   0.15403   0.03047   0.00000  Uiso   1.00
C27    C     0.06842   0.22173   0.11713   0.00000  Uiso   1.00
C28    C     0.08647   0.24369   0.15181   0.00000  Uiso   1.00
C29    C     0.17001   0.05826   0.42733   0.00000  Uiso   1.00
C30    C     0.16359   0.04761   0.38152   0.00000  Uiso   1.00
C31    C     0.05805   0.07903   0.17517   0.00000  Uiso   1.00
C32    C     0.10183   0.05017   0.15369   0.00000  Uiso   1.00
C33    C     0.27634   0.25489   0.32384   0.00000  Uiso   1.00
C34    C     0.19826   0.11114   0.46135   0.00000  Uiso   1.00
C35    C     0.23329   0.28448   0.34494   0.00000  Uiso   1.00
C36    C     0.06616   0.17231   0.03728   0.00000  Uiso   1.00
C37    C     0.23176   0.10186   0.48190   0.00000  Uiso   1.00
C38    C     0.21075   0.31254   0.22252   0.00000  Uiso   1.00
C39    C     0.12301   0.02074   0.27711   0.00000  Uiso   1.00
C40    C     0.20949   0.02228   0.22402   0.00000  Uiso   1.00
H41    H     0.16436   0.19646   0.10141   0.00000  Uiso   1.00
H42    H     0.02193   0.21078   0.30479   0.00000  Uiso   1.00
H43    H     0.00580   0.16407   0.09786   0.00000  Uiso   1.00
H44    H     0.00877   0.21110   0.07052   0.00000  Uiso   1.00
H45    H     0.25768   0.04498   0.45420   0.00000  Uiso   1.00
H46    H     0.29209   0.08602   0.42474   0.00000  Uiso   1.00
H47    H     0.02806   0.21902   0.13546   0.00000  Uiso   1.00
H48    H     0.07721   0.24245   0.08586   0.00000  Uiso   1.00
H49    H     0.12456   0.25518   0.13358   0.00000  Uiso   1.00
H50    H     0.06298   0.27117   0.16769   0.00000  Uiso   1.00
H51    H     0.08461   0.22229   0.18056   0.00000  Uiso   1.00
H52    H     0.18534   0.15408   0.39195   0.00000  Uiso   1.00
H53    H     0.13316   0.06593   0.45448   0.00000  Uiso   1.00
H54    H     0.18418   0.03027   0.43902   0.00000  Uiso   1.00
H55    H     0.19974   0.04208   0.35260   0.00000  Uiso   1.00
H56    H     0.14065   0.01905   0.38623   0.00000  Uiso   1.00
H57    H     0.14535   0.07376   0.37133   0.00000  Uiso   1.00
H58    H     0.24861   0.27674   0.16585   0.00000  Uiso   1.00
H59    H     0.28382   0.31199   0.17901   0.00000  Uiso   1.00
H60    H     0.06916   0.03219   0.34078   0.00000  Uiso   1.00
H61    H     0.05116   0.03287   0.29471   0.00000  Uiso   1.00
H62    H     0.04258   0.08447   0.14794   0.00000  Uiso   1.00
H63    H     0.27350   0.11536   0.11021   0.00000  Uiso   1.00
H64    H     0.03055   0.06311   0.20641   0.00000  Uiso   1.00
H65    H     0.11803   0.04350   0.18003   0.00000  Uiso   1.00
H66    H     0.09002   0.02025   0.14261   0.00000  Uiso   1.00
H67    H     0.13005   0.06509   0.12235   0.00000  Uiso   1.00
H68    H     0.30430   0.27039   0.29255   0.00000  Uiso   1.00
H69    H     0.29150   0.24925   0.35127   0.00000  Uiso   1.00
H70    H     0.20413   0.26975   0.37573   0.00000  Uiso   1.00
H71    H     0.24575   0.31366   0.35687   0.00000  Uiso   1.00
H72    H     0.21810   0.29231   0.31813   0.00000  Uiso   1.00
H73    H     0.04056   0.18005   0.39927   0.00000  Uiso   1.00
H74    H     0.01045   0.18256   0.48532   0.00000  Uiso   1.00
H75    H     0.28867   0.08831   0.03119   0.00000  Uiso   1.00
H76    H     0.24207   0.03999   0.20358   0.00000  Uiso   1.00
H77    H     0.09135   0.29371   0.29633   0.00000  Uiso   1.00
H78    H     0.31163   0.12274   0.19489   0.00000  Uiso   1.00
N79    N     0.04759   0.16668   0.25001   0.00000  Uiso   1.00
N80    N     0.28574   0.16666   0.24999   0.00000  Uiso   1.00
N81    N     0.01528   0.17905   0.06542   0.00000  Uiso   1.00
N82    N     0.27184   0.07411   0.45829   0.00000  Uiso   1.00
N83    N     0.25484   0.29092   0.19390   0.00000  Uiso   1.00
N84    N     0.07899   0.04202   0.30593   0.00000  Uiso   1.00
O85    O     0.12846   0.22775   0.25000   0.00000  Uiso   1.00
O86    O     0.20407   0.09150   0.41903   0.00000  Uiso   1.00
O87    O     0.07412   0.11722   0.18786   0.00000  Uiso   1.00
O88    O     0.25959   0.21692   0.31137   0.00000  Uiso   1.00
O89    O     0.20488   0.10558   0.24999   0.00000  Uiso   1.00
O90    O     0.20490   0.22774   0.25000   0.00000  Uiso   1.00
O91    O     0.12843   0.10559   0.25000   0.00000  Uiso   1.00
O92    O     0.10661   0.16667   0.31612   0.00000  Uiso   1.00
O93    O     0.22672   0.16666   0.18387   0.00000  Uiso   1.00
O94    O     0.18305   0.16666   0.31612   0.00000  Uiso   1.00
O95    O     0.15028   0.16667   0.18388   0.00000  Uiso   1.00
O96    O     0.08856   0.18087   0.10562   0.00000  Uiso   1.00
Zn97   Zn    0.11562   0.16667   0.25000   0.00000  Uiso   1.00
Zn98   Zn    0.21771   0.16666   0.25000   0.00000  Uiso   1.00
C99    C     0.50048   0.24660   0.24930   0.00000  Uiso   1.00
C100   C     0.45747   0.31112   0.27575   0.00000  Uiso   1.00
C101   C     0.49928   0.04260   0.25087   0.00000  Uiso   1.00
C102   C     0.50095   0.29074   0.24886   0.00000  Uiso   1.00
C103   C     0.65452   0.14165   0.21947   0.00000  Uiso   1.00
C104   C     0.34556   0.19176   0.28040   0.00000  Uiso   1.00
C105   C     0.36961   0.14092   0.21963   0.00000  Uiso   1.00
C106   C     0.63050   0.19258   0.28017   0.00000  Uiso   1.00
C107   C     0.46919   0.16703   0.33834   0.00000  Uiso   1.00
C108   C     0.53065   0.16590   0.16179   0.00000  Uiso   1.00
C109   C     0.44869   0.16617   0.38982   0.00000  Uiso   1.00
C110   C     0.49955   0.08673   0.25068   0.00000  Uiso   1.00
C111   C     0.54906   0.15685   0.11152   0.00000  Uiso   1.00
C112   C     0.38173   0.17442   0.46561   0.00000  Uiso   1.00
C113   C     0.59268   0.11056   0.04685   0.00000  Uiso   1.00
C114   C     0.39892   0.17344   0.41640   0.00000  Uiso   1.00
C115   C     0.58547   0.12704   0.09118   0.00000  Uiso   1.00
C116   C     0.47989   0.15730   0.41260   0.00000  Uiso   1.00
C117   C     0.52065   0.16999   0.08745   0.00000  Uiso   1.00
C118   C     0.46220   0.15383   0.46153   0.00000  Uiso   1.00
C119   C     0.52048   0.14829   0.04797   0.00000  Uiso   1.00
C120   C     0.41395   0.16653   0.48852   0.00000  Uiso   1.00
C121   C     0.43534   0.17148   0.05774   0.00000  Uiso   1.00
C122   C     0.55988   0.12033   0.02510   0.00000  Uiso   1.00
C123   C     0.49262   0.13982   0.48393   0.00000  Uiso   1.00
C124   C     0.48287   0.15403   0.03047   0.00000  Uiso   1.00
C125   C     0.40176   0.22173   0.11713   0.00000  Uiso   1.00
C126   C     0.41980   0.24369   0.15181   0.00000  Uiso   1.00
C127   C     0.50335   0.05826   0.42733   0.00000  Uiso   1.00
C128   C     0.49693   0.04761   0.38152   0.00000  Uiso   1.00
C129   C     0.39138   0.07903   0.17517   0.00000  Uiso   1.00
C130   C     0.43516   0.05017   0.15369   0.00000  Uiso   1.00
C131   C     0.60968   0.25489   0.32384   0.00000  Uiso   1.00
C132   C     0.53159   0.11114   0.46135   0.00000  Uiso   1.00
C133   C     0.56662   0.28448   0.34494   0.00000  Uiso   1.00
C134   C     0.39950   0.17231   0.03728   0.00000  Uiso   1.00
C135   C     0.56510   0.10186   0.48190   0.00000  Uiso   1.00
C136   C     0.54408   0.31254   0.22252   0.00000  Uiso   1.00
C137   C     0.45634   0.02074   0.27711   0.00000  Uiso   1.00
C138   C     0.54283   0.02228   0.22402   0.00000  Uiso   1.00
H139   H     0.49770   0.19646   0.10141   0.00000  Uiso   1.00
H140   H     0.35526   0.21078   0.30479   0.00000  Uiso   1.00
H141   H     0.33913   0.16407   0.09786   0.00000  Uiso   1.00
H142   H     0.34210   0.21110   0.07052   0.00000  Uiso   1.00
H143   H     0.59102   0.04498   0.45420   0.00000  Uiso   1.00
H144   H     0.62542   0.08602   0.42474   0.00000  Uiso   1.00
H145   H     0.36139   0.21902   0.13546   0.00000  Uiso   1.00
H146   H     0.41055   0.24245   0.08586   0.00000  Uiso   1.00
H147   H     0.45789   0.25518   0.13358   0.00000  Uiso   1.00
H148   H     0.39632   0.27117   0.16769   0.00000  Uiso   1.00
H149   H     0.41795   0.22229   0.18056   0.00000  Uiso   1.00
H150   H     0.51867   0.15408   0.39195   0.00000  Uiso   1.00
H151   H     0.46649   0.06593   0.45448   0.00000  Uiso   1.00
H152   H     0.51751   0.03027   0.43902   0.00000  Uiso   1.00
H153   H     0.53308   0.04208   0.35260   0.00000  Uiso   1.00
H154   H     0.47399   0.01905   0.38623   0.00000  Uiso   1.00
H155   H     0.47868   0.07376   0.37133   0.00000  Uiso   1.00
H156   H     0.58194   0.27674   0.16585   0.00000  Uiso   1.00
H157   H     0.61716   0.31199   0.17901   0.00000  Uiso   1.00
H158   H     0.40249   0.03219   0.34078   0.00000  Uiso   1.00
H159   H     0.38450   0.03287   0.29471   0.00000  Uiso   1.00
H160   H     0.37591   0.08447   0.14794   0.00000  Uiso   1.00
H161   H     0.60684   0.11536   0.11021   0.00000  Uiso   1.00
H162   H     0.36388   0.06311   0.20641   0.00000  Uiso   1.00
H163   H     0.45137   0.04350   0.18003   0.00000  Uiso   1.00
H164   H     0.42335   0.02025   0.14261   0.00000  Uiso   1.00
H165   H     0.46339   0.06509   0.12235   0.00000  Uiso   1.00
H166   H     0.63763   0.27039   0.29255   0.00000  Uiso   1.00
H167   H     0.62483   0.24925   0.35127   0.00000  Uiso   1.00
H168   H     0.53746   0.26975   0.37573   0.00000  Uiso   1.00
H169   H     0.57908   0.31366   0.35687   0.00000  Uiso   1.00
H170   H     0.55143   0.29231   0.31813   0.00000  Uiso   1.00
H171   H     0.37389   0.18005   0.39927   0.00000  Uiso   1.00
H172   H     0.34379   0.18256   0.48532   0.00000  Uiso   1.00
H173   H     0.62200   0.08831   0.03119   0.00000  Uiso   1.00
H174   H     0.57541   0.03999   0.20358   0.00000  Uiso   1.00
H175   H     0.42468   0.29371   0.29633   0.00000  Uiso   1.00
H176   H     0.64497   0.12274   0.19489   0.00000  Uiso   1.00
N177   N     0.38093   0.16668   0.25001   0.00000  Uiso   1.00
N178   N     0.61907   0.16666   0.24999   0.00000  Uiso   1.00
N179   N     0.34861   0.17905   0.06542   0.00000  Uiso   1.00
N180   N     0.60517   0.07411   0.45829   0.00000  Uiso   1.00
N181   N     0.58818   0.29092   0.19390   0.00000  Uiso   1.00
N182   N     0.41233   0.04202   0.30593   0.00000  Uiso   1.00
O183   O     0.46179   0.22775   0.25000   0.00000  Uiso   1.00
O184   O     0.53740   0.09150   0.41903   0.00000  Uiso   1.00
O185   O     0.40745   0.11722   0.18786   0.00000  Uiso   1.00
O186   O     0.59292   0.21692   0.31137   0.00000  Uiso   1.00
O187   O     0.53821   0.10558   0.24999   0.00000  Uiso   1.00
O188   O     0.53823   0.22774   0.25000   0.00000  Uiso   1.00
O189   O     0.46177   0.10559   0.25000   0.00000  Uiso   1.00
O190   O     0.43994   0.16667   0.31612   0.00000  Uiso   1.00
O191   O     0.56006   0.16666   0.18387   0.00000  Uiso   1.00
O192   O     0.51639   0.16666   0.31612   0.00000  Uiso   1.00
O193   O     0.48361   0.16667   0.18388   0.00000  Uiso   1.00
O194   O     0.42190   0.18087   0.10562   0.00000  Uiso   1.00
Zn195  Zn    0.44896   0.16667   0.25000   0.00000  Uiso   1.00
Zn196  Zn    0.55104   0.16666   0.25000   0.00000  Uiso   1.00
C197   C     0.83381   0.24660   0.24930   0.00000  Uiso   1.00
C198   C     0.79081   0.31112   0.27575   0.00000  Uiso   1.00
C199   C     0.83261   0.04260   0.25087   0.00000  Uiso   1.00
C200   C     0.83428   0.29074   0.24886   0.00000  Uiso   1.00
C201   C     0.98786   0.14165   0.21947   0.00000  Uiso   1.00
C202   C     0.67889   0.19176   0.28040   0.00000  Uiso   1.00
C203   C     0.70294   0.14092   0.21963   0.00000  Uiso   1.00
C204   C     0.96383   0.19258   0.28017   0.00000  Uiso   1.00
C205   C     0.80252   0.16703   0.33834   0.00000  Uiso   1.00
C206   C     0.86398   0.16590   0.16179   0.00000  Uiso   1.00
C207   C     0.78202   0.16617   0.38982   0.00000  Uiso   1.00
C208   C     0.83288   0.08673   0.25068   0.00000  Uiso   1.00
C209   C     0.88239   0.15685   0.11152   0.00000  Uiso   1.00
C210   C     0.71507   0.17442   0.46561   0.00000  Uiso   1.00
C211   C     0.92601   0.11056   0.04685   0.00000  Uiso   1.00
C212   C     0.73226   0.17344   0.41640   0.00000  Uiso   1.00
C213   C     0.91880   0.12704   0.09118   0.00000  Uiso   1.00
C214   C     0.81323   0.15730   0.41260   0.00000  Uiso   1.00
C215   C     0.85399   0.16999   0.08745   0.00000  Uiso   1.00
C216   C     0.79553   0.15383   0.46153   0.00000  Uiso   1.00
C217   C     0.85381   0.14829   0.04797   0.00000  Uiso   1.00
C218   C     0.74728   0.16653   0.48852   0.00000  Uiso   1.00
C219   C     0.76868   0.17148   0.05774   0.00000  Uiso   1.00
C220   C     0.89321   0.12033   0.02510   0.00000  Uiso   1.00
C221   C     0.82596   0.13982   0.48393   0.00000  Uiso   1.00
C222   C     0.81620   0.15403   0.03047   0.00000  Uiso   1.00
C223   C     0.73509   0.22173   0.11713   0.00000  Uiso   1.00
C224   C     0.75313   0.24369   0.15181   0.00000  Uiso   1.00
C225   C     0.83668   0.05826   0.42733   0.00000  Uiso   1.00
C226   C     0.83026   0.04761   0.38152   0.00000  Uiso   1.00
C227   C     0.72471   0.07903   0.17517   0.00000  Uiso   1.00
C228   C     0.76849   0.05017   0.15369   0.00000  Uiso   1.00
C229   C     0.94301   0.25489   0.32384   0.00000  Uiso   1.00
C230   C     0.86492   0.11114   0.46135   0.00000  Uiso   1.00
C231   C     0.89996   0.28448   0.34494   0.00000  Uiso   1.00
C232   C     0.73283   0.17231   0.03728   0.00000  Uiso   1.00
C233   C     0.89843   0.10186   0.48190   0.00000  Uiso   1.00
C234   C     0.87742   0.31254   0.22252   0.00000  Uiso   1.00
C235   C     0.78968   0.02074   0.27711   0.00000  Uiso   1.00
C236   C     0.87616   0.02228   0.22402   0.00000  Uiso   1.00
H237   H     0.83103   0.19646   0.10141   0.00000  Uiso   1.00
H238   H     0.68860   0.21078   0.30479   0.00000  Uiso   1.00
H239   H     0.67247   0.16407   0.09786   0.00000  Uiso   1.00
H240   H     0.67544   0.21110   0.07052   0.00000  Uiso   1.00
H241   H     0.92435   0.04498   0.45420   0.00000  Uiso   1.00
H242   H     0.95876   0.08602   0.42474   0.00000  Uiso   1.00
H243   H     0.69473   0.21902   0.13546   0.00000  Uiso   1.00
H244   H     0.74388   0.24245   0.08586   0.00000  Uiso   1.00
H245   H     0.79123   0.25518   0.13358   0.00000  Uiso   1.00
H246   H     0.72965   0.27117   0.16769   0.00000  Uiso   1.00
H247   H     0.75128   0.22229   0.18056   0.00000  Uiso   1.00
H248   H     0.85200   0.15408   0.39195   0.00000  Uiso   1.00
H249   H     0.79983   0.06593   0.45448   0.00000  Uiso   1.00
H250   H     0.85085   0.03027   0.43902   0.00000  Uiso   1.00
H251   H     0.86641   0.04208   0.35260   0.00000  Uiso   1.00
H252   H     0.80732   0.01905   0.38623   0.00000  Uiso   1.00
H253   H     0.81201   0.07376   0.37133   0.00000  Uiso   1.00
H254   H     0.91527   0.27674   0.16585   0.00000  Uiso   1.00
H255   H     0.95049   0.31199   0.17901   0.00000  Uiso   1.00
H256   H     0.73582   0.03219   0.34078   0.00000  Uiso   1.00
H257   H     0.71783   0.03287   0.29471   0.00000  Uiso   1.00
H258   H     0.70925   0.08447   0.14794   0.00000  Uiso   1.00
H259   H     0.94017   0.11536   0.11021   0.00000  Uiso   1.00
H260   H     0.69721   0.06311   0.20641   0.00000  Uiso   1.00
H261   H     0.78470   0.04350   0.18003   0.00000  Uiso   1.00
H262   H     0.75669   0.02025   0.14261   0.00000  Uiso   1.00
H263   H     0.79672   0.06509   0.12235   0.00000  Uiso   1.00
H264   H     0.97097   0.27039   0.29255   0.00000  Uiso   1.00
H265   H     0.95816   0.24925   0.35127   0.00000  Uiso   1.00
H266   H     0.87080   0.26975   0.37573   0.00000  Uiso   1.00
H267   H     0.91241   0.31366   0.35687   0.00000  Uiso   1.00
H268   H     0.88476   0.29231   0.31813   0.00000  Uiso   1.00
H269   H     0.70723   0.18005   0.39927   0.00000  Uiso   1.00
H270   H     0.67712   0.18256   0.48532   0.00000  Uiso   1.00
H271   H     0.95533   0.08831   0.03119   0.00000  Uiso   1.00
H272   H     0.90874   0.03999   0.20358   0.00000  Uiso   1.00
H273   H     0.75802   0.29371   0.29633   0.00000  Uiso   1.00
H274   H     0.97830   0.12274   0.19489   0.00000  Uiso   1.00
N275   N     0.71426   0.16668   0.25001   0.00000  Uiso   1.00
N276   N     0.95241   0.16666   0.24999   0.00000  Uiso   1.00
N277   N     0.68195   0.17905   0.06542   0.00000  Uiso   1.00
N278   N     0.93851   0.07411   0.45829   0.00000  Uiso   1.00
N279   N     0.92151   0.29092   0.19390   0.00000  Uiso   1.00
N280   N     0.74566   0.04202   0.30593   0.00000  Uiso   1.00
O281   O     0.79512   0.22775   0.25000   0.00000  Uiso   1.00
O282   O     0.87073   0.09150   0.41903   0.00000  Uiso   1.00
O283   O     0.74079   0.11722   0.18786   0.00000  Uiso   1.00
O284   O     0.92625   0.21692   0.31137   0.00000  Uiso   1.00
O285   O     0.87154   0.10558   0.24999   0.00000  Uiso   1.00
O286   O     0.87157   0.22774   0.25000   0.00000  Uiso   1.00
O287   O     0.79510   0.10559   0.25000   0.00000  Uiso   1.00
O288   O     0.77328   0.16667   0.31612   0.00000  Uiso   1.00
O289   O     0.89339   0.16666   0.18387   0.00000  Uiso   1.00
O290   O     0.84972   0.16666   0.31612   0.00000  Uiso   1.00
O291   O     0.81695   0.16667   0.18388   0.00000  Uiso   1.00
O292   O     0.75523   0.18087   0.10562   0.00000  Uiso   1.00
Zn293  Zn    0.78229   0.16667   0.25000   0.00000  Uiso   1.00
Zn294  Zn    0.88438   0.16666   0.25000   0.00000  Uiso   1.00
C295   C     0.16715   0.57994   0.24930   0.00000  Uiso   1.00
C296   C     0.12414   0.64446   0.27575   0.00000  Uiso   1.00
C297   C     0.16595   0.37594   0.25087   0.00000  Uiso   1.00
C298   C     0.16762   0.62407   0.24886   0.00000  Uiso   1.00
C299   C     0.32119   0.47498   0.21947   0.00000  Uiso   1.00
C300   C     0.01222   0.52510   0.28040   0.00000  Uiso   1.00
C301   C     0.03628   0.47425   0.21963   0.00000  Uiso   1.00
C302   C     0.29716   0.52592   0.28017   0.00000  Uiso   1.00
C303   C     0.13585   0.50036   0.33834   0.00000  Uiso   1.00
C304   C     0.19732   0.49924   0.16179   0.00000  Uiso   1.00
C305   C     0.11535   0.49951   0.38982   0.00000  Uiso   1.00
C306   C     0.16621   0.42006   0.25068   0.00000  Uiso   1.00
C307   C     0.21573   0.49018   0.11152   0.00000  Uiso   1.00
C308   C     0.04840   0.50775   0.46561   0.00000  Uiso   1.00
C309   C     0.25935   0.44390   0.04685   0.00000  Uiso   1.00
C310   C     0.06559   0.50678   0.41640   0.00000  Uiso   1.00
C311   C     0.25213   0.46037   0.09118   0.00000  Uiso   1.00
C312   C     0.14656   0.49063   0.41260   0.00000  Uiso   1.00
C313   C     0.18732   0.50332   0.08745   0.00000  Uiso   1.00
C314   C     0.12886   0.48717   0.46153   0.00000  Uiso   1.00
C315   C     0.18714   0.48162   0.04797   0.00000  Uiso   1.00
C316   C     0.08062   0.49987   0.48852   0.00000  Uiso   1.00
C317   C     0.10201   0.50482   0.05774   0.00000  Uiso   1.00
C318   C     0.22654   0.45366   0.02510   0.00000  Uiso   1.00
C319   C     0.15929   0.47315   0.48393   0.00000  Uiso   1.00
C320   C     0.14953   0.48736   0.03047   0.00000  Uiso   1.00
C321   C     0.06842   0.55506   0.11713   0.00000  Uiso   1.00
C322   C     0.08647   0.57702   0.15181   0.00000  Uiso   1.00
C323   C     0.17001   0.39160   0.42733   0.00000  Uiso   1.00
C324   C     0.16359   0.38094   0.38152   0.00000  Uiso   1.00
C325   C     0.05805   0.41237   0.17517   0.00000  Uiso   1.00
C326   C     0.10183   0.38351   0.15369   0.00000  Uiso   1.00
C327   C     0.27634   0.58822   0.32384   0.00000  Uiso   1.00
C328   C     0.19826   0.44448   0.46135   0.00000  Uiso   1.00
C329   C     0.23329   0.61781   0.34494   0.00000  Uiso   1.00
C330   C     0.06616   0.50564   0.03728   0.00000  Uiso   1.00
C331   C     0.23176   0.43519   0.48190   0.00000  Uiso   1.00
C332   C     0.21075   0.64588   0.22252   0.00000  Uiso   1.00
C333   C     0.12301   0.35408   0.27711   0.00000  Uiso   1.00
C334   C     0.20949   0.35561   0.22402   0.00000  Uiso   1.00
H335   H     0.16436   0.52979   0.10141   0.00000  Uiso   1.00
H336   H     0.02193   0.54411   0.30479   0.00000  Uiso   1.00
H337   H     0.00580   0.49740   0.09786   0.00000  Uiso   1.00
H338   H     0.00877   0.54443   0.07052   0.00000  Uiso   1.00
H339   H     0.25768   0.37831   0.45420   0.00000  Uiso   1.00
H340   H     0.29209   0.41935   0.42474   0.00000  Uiso   1.00
H341   H     0.02806   0.55236   0.13546   0.00000  Uiso   1.00
H342   H     0.07721   0.57578   0.08586   0.00000  Uiso   1.00
H343   H     0.12456   0.58852   0.13358   0.00000  Uiso   1.00
H344   H     0.06298   0.60450   0.16769   0.00000  Uiso   1.00
H345   H     0.08461   0.55562   0.18056   0.00000  Uiso   1.00
H346   H     0.18534   0.48741   0.39195   0.00000  Uiso   1.00
H347   H     0.13316   0.39926   0.45448   0.00000  Uiso   1.00
H348   H     0.18418   0.36361   0.43902   0.00000  Uiso   1.00
H349   H     0.19974   0.37541   0.35260   0.00000  Uiso   1.00
H350   H     0.14065   0.35239   0.38623   0.00000  Uiso   1.00
H351   H     0.14535   0.40710   0.37133   0.00000  Uiso   1.00
H352   H     0.24861   0.61007   0.16585   0.00000  Uiso   1.00
H353   H     0.28382   0.64533   0.17901   0.00000  Uiso   1.00
H354   H     0.06916   0.36552   0.34078   0.00000  Uiso   1.00
H355   H     0.05116   0.36621   0.29471   0.00000  Uiso   1.00
H356   H     0.04258   0.41780   0.14794   0.00000  Uiso   1.00
H357   H     0.27350   0.44870   0.11021   0.00000  Uiso   1.00
H358   H     0.03055   0.39645   0.20641   0.00000  Uiso   1.00
H359   H     0.11803   0.37683   0.18003   0.00000  Uiso   1.00
H360   H     0.09002   0.35359   0.14261   0.00000  Uiso   1.00
H361   H     0.13005   0.39843   0.12235   0.00000  Uiso   1.00
H362   H     0.30430   0.60372   0.29255   0.00000  Uiso   1.00
H363   H     0.29150   0.58259   0.35127   0.00000  Uiso   1.00
H364   H     0.20413   0.60309   0.37573   0.00000  Uiso   1.00
H365   H     0.24575   0.64699   0.35687   0.00000  Uiso   1.00
H366   H     0.21810   0.62565   0.31813   0.00000  Uiso   1.00
H367   H     0.04056   0.51338   0.39927   0.00000  Uiso   1.00
H368   H     0.01045   0.51589   0.48532   0.00000  Uiso   1.00
H369   H     0.28867   0.42165   0.03119   0.00000  Uiso   1.00
H370   H     0.24207   0.37333   0.20358   0.00000  Uiso   1.00
H371   H     0.09135   0.62704   0.29633   0.00000  Uiso   1.00
H372   H     0.31163   0.45607   0.19489   0.00000  Uiso   1.00
N373   N     0.04759   0.50001   0.25001   0.00000  Uiso   1.00
N374   N     0.28574   0.49999   0.24999   0.00000  Uiso   1.00
N375   N     0.01528   0.51238   0.06542   0.00000  Uiso   1.00
N376   N     0.27184   0.40745   0.45829   0.00000  Uiso   1.00
N377   N     0.25484   0.62425   0.19390   0.00000  Uiso   1.00
N378   N     0.07899   0.37536   0.30593   0.00000  Uiso   1.00
O379   O     0.12846   0.56108   0.25000   0.00000  Uiso   1.00
O380   O     0.20407   0.42483   0.41903   0.00000  Uiso   1.00
O381   O     0.07412   0.45055   0.18786   0.00000  Uiso   1.00
O382   O     0.25959   0.55026   0.31137   0.00000  Uiso   1.00
O383   O     0.20488   0.43892   0.24999   0.00000  Uiso   1.00
O384   O     0.20490   0.56107   0.25000   0.00000  Uiso   1.00
O385   O     0.12843   0.43893   0.25000   0.00000  Uiso   1.00
O386   O     0.10661   0.50001   0.31612   0.00000  Uiso   1.00
O387   O     0.22672   0.49999   0.18387   0.00000  Uiso   1.00
O388   O     0.18305   0.50000   0.31612   0.00000  Uiso   1.00
O389   O     0.15028   0.50000   0.18388   0.00000  Uiso   1.00
O390   O     0.08856   0.51420   0.10562   0.00000  Uiso   1.00
Zn391  Zn    0.11562   0.50001   0.25000   0.00000  Uiso   1.00
Zn392  Zn    0.21771   0.49999   0.25000   0.00000  Uiso   1.00
C393   C     0.50048   0.57994   0.24930   0.00000  Uiso   1.00
C394   C     0.45747   0.64446   0.27575   0.00000  Uiso   1.00
C395   C     0.49928   0.37594   0.25087   0.00000  Uiso   1.00
C396   C     0.50095   0.62407   0.24886   0.00000  Uiso   1.00
C397   C     0.65452   0.47498   0.21947   0.00000  Uiso   1.00
C398   C     0.34556   0.52510   0.28040   0.00000  Uiso   1.00
C399   C     0.36961   0.47425   0.21963   0.00000  Uiso   1.00
C400   C     0.63050   0.52592   0.28017   0.00000  Uiso   1.00
C401   C     0.46919   0.50036   0.33834   0.00000  Uiso   1.00
C402   C     0.53065   0.49924   0.16179   0.00000  Uiso   1.00
C403   C     0.44869   0.49951   0.38982   0.00000  Uiso   1.00
C404   C     0.49955   0.42006   0.25068   0.00000  Uiso   1.00
C405   C     0.54906   0.49018   0.11152   0.00000  Uiso   1.00
C406   C     0.38173   0.50775   0.46561   0.00000  Uiso   1.00
C407   C     0.59268   0.44390   0.04685   0.00000  Uiso   1.00
C408   C     0.39892   0.50678   0.41640   0.00000  Uiso   1.00
C409   C     0.58547   0.46037   0.09118   0.00000  Uiso   1.00
C410   C     0.47989   0.49063   0.41260   0.00000  Uiso   1.00
C411   C     0.52065   0.50332   0.08745   0.00000  Uiso   1.00
C412   C     0.46220   0.48717   0.46153   0.00000  Uiso   1.00
C413   C     0.52048   0.48162   0.04797   0.00000  Uiso   1.00
C414   C     0.41395   0.49987   0.48852   0.00000  Uiso   1.00
C415   C     0.43534   0.50482   0.05774   0.00000  Uiso   1.00
C416   C     0.55988   0.45366   0.02510   0.00000  Uiso   1.00
C417   C     0.49262   0.47315   0.48393   0.00000  Uiso   1.00
C418   C     0.48287   0.48736   0.03047   0.00000  Uiso   1.00
C419   C     0.40176   0.55506   0.11713   0.00000  Uiso   1.00
C420   C     0.41980   0.57702   0.15181   0.00000  Uiso   1.00
C421   C     0.50335   0.39160   0.42733   0.00000  Uiso   1.00
C422   C     0.49693   0.38094   0.38152   0.00000  Uiso   1.00
C423   C     0.39138   0.41237   0.17517   0.00000  Uiso   1.00
C424   C     0.43516   0.38351   0.15369   0.00000  Uiso   1.00
C425   C     0.60968   0.58822   0.32384   0.00000  Uiso   1.00
C426   C     0.53159   0.44448   0.46135   0.00000  Uiso   1.00
C427   C     0.56662   0.61781   0.34494   0.00000  Uiso   1.00
C428   C     0.39950   0.50564   0.03728   0.00000  Uiso   1.00
C429   C     0.56510   0.43519   0.48190   0.00000  Uiso   1.00
C430   C     0.54408   0.64588   0.22252   0.00000  Uiso   1.00
C431   C     0.45634   0.35408   0.27711   0.00000  Uiso   1.00
C432   C     0.54283   0.35561   0.22402   0.00000  Uiso   1.00
H433   H     0.49770   0.52979   0.10141   0.00000  Uiso   1.00
H434   H     0.35526   0.54411   0.30479   0.00000  Uiso   1.00
H435   H     0.33913   0.49740   0.09786   0.00000  Uiso   1.00
H436   H     0.34210   0.54443   0.07052   0.00000  Uiso   1.00
H437   H     0.59102   0.37831   0.45420   0.00000  Uiso   1.00
H438   H     0.62542   0.41935   0.42474   0.00000  Uiso   1.00
H439   H     0.36139   0.55236   0.13546   0.00000  Uiso   1.00
H440   H     0.41055   0.57578   0.08586   0.00000  Uiso   1.00
H441   H     0.45789   0.58852   0.13358   0.00000  Uiso   1.00
H442   H     0.39632   0.60450   0.16769   0.00000  Uiso   1.00
H443   H     0.41795   0.55562   0.18056   0.00000  Uiso   1.00
H444   H     0.51867   0.48741   0.39195   0.00000  Uiso   1.00
H445   H     0.46649   0.39926   0.45448   0.00000  Uiso   1.00
H446   H     0.51751   0.36361   0.43902   0.00000  Uiso   1.00
H447   H     0.53308   0.37541   0.35260   0.00000  Uiso   1.00
H448   H     0.47399   0.35239   0.38623   0.00000  Uiso   1.00
H449   H     0.47868   0.40710   0.37133   0.00000  Uiso   1.00
H450   H     0.58194   0.61007   0.16585   0.00000  Uiso   1.00
H451   H     0.61716   0.64533   0.17901   0.00000  Uiso   1.00
H452   H     0.40249   0.36552   0.34078   0.00000  Uiso   1.00
H453   H     0.38450   0.36621   0.29471   0.00000  Uiso   1.00
H454   H     0.37591   0.41780   0.14794   0.00000  Uiso   1.00
H455   H     0.60684   0.44870   0.11021   0.00000  Uiso   1.00
H456   H     0.36388   0.39645   0.20641   0.00000  Uiso   1.00
H457   H     0.45137   0.37683   0.18003   0.00000  Uiso   1.00
H458   H     0.42335   0.35359   0.14261   0.00000  Uiso   1.00
H459   H     0.46339   0.39843   0.12235   0.00000  Uiso   1.00
H460   H     0.63763   0.60372   0.29255   0.00000  Uiso   1.00
H461   H     0.62483   0.58259   0.35127   0.00000  Uiso   1.00
H462   H     0.53746   0.60309   0.37573   0.00000  Uiso   1.00
H463   H     0.57908   0.64699   0.35687   0.00000  Uiso   1.00
H464   H     0.55143   0.62565   0.31813   0.00000  Uiso   1.00
H465   H     0.37389   0.51338   0.39927   0.00000  Uiso   1.00
H466   H     0.34379   0.51589   0.48532   0.00000  Uiso   1.00
H467   H     0.62200   0.42165   0.03119   0.00000  Uiso   1.00
H468   H     0.57541   0.37333   0.20358   0.00000  Uiso   1.00
H469   H     0.42468   0.62704   0.29633   0.00000  Uiso   1.00
H470   H     0.64497   0.45607   0.19489   0.00000  Uiso   1.00
N471   N     0.38093   0.50001   0.25001   0.00000  Uiso   1.00
N472   N     0.61907   0.49999   0.24999   0.00000  Uiso   1.00
N473   N     0.34861   0.51238   0.06542   0.00000  Uiso   1.00
N474   N     0.60517   0.40745   0.45829   0.00000  Uiso   1.00
N475   N     0.58818   0.62425   0.19390   0.00000  Uiso   1.00
N476   N     0.41233   0.37536   0.30593   0.00000  Uiso   1.00
O477   O     0.46179   0.56108   0.25000   0.00000  Uiso   1.00
O478   O     0.53740   0.42483   0.41903   0.00000  Uiso   1.00
O479   O     0.40745   0.45055   0.18786   0.00000  Uiso   1.00
O480   O     0.59292   0.55026   0.31137   0.00000  Uiso   1.00
O481   O     0.53821   0.43892   0.24999   0.00000  Uiso   1.00
O482   O     0.53823   0.56107   0.25000   0.00000  Uiso   1.00
O483   O     0.46177   0.43893   0.25000   0.00000  Uiso   1.00
O484   O     0.43994   0.50001   0.31612   0.00000  Uiso   1.00
O485   O     0.56006   0.49999   0.18387   0.00000  Uiso   1.00
O486   O     0.51639   0.50000   0.31612   0.00000  Uiso   1.00
O487   O     0.48361   0.50000   0.18388   0.00000  Uiso   1.00
O488   O     0.42190   0.51420   0.10562   0.00000  Uiso   1.00
Zn489  Zn    0.44896   0.50001   0.25000   0.00000  Uiso   1.00
Zn490  Zn    0.55104   0.49999   0.25000   0.00000  Uiso   1.00
C491   C     0.83381   0.57994   0.24930   0.00000  Uiso   1.00
C492   C     0.79081   0.64446   0.27575   0.00000  Uiso   1.00
C493   C     0.83261   0.37594   0.25087   0.00000  Uiso   1.00
C494   C     0.83428   0.62407   0.24886   0.00000  Uiso   1.00
C495   C     0.98786   0.47498   0.21947   0.00000  Uiso   1.00
C496   C     0.67889   0.52510   0.28040   0.00000  Uiso   1.00
C497   C     0.70294   0.47425   0.21963   0.00000  Uiso   1.00
C498   C     0.96383   0.52592   0.28017   0.00000  Uiso   1.00
C499   C     0.80252   0.50036   0.33834   0.00000  Uiso   1.00
C500   C     0.86398   0.49924   0.16179   0.00000  Uiso   1.00
C501   C     0.78202   0.49951   0.38982   0.00000  Uiso   1.00
C502   C     0.83288   0.42006   0.25068   0.00000  Uiso   1.00
C503   C     0.88239   0.49018   0.11152   0.00000  Uiso   1.00
C504   C     0.71507   0.50775   0.46561   0.00000  Uiso   1.00
C505   C     0.92601   0.44390   0.04685   0.00000  Uiso   1.00
C506   C     0.73226   0.50678   0.41640   0.00000  Uiso   1.00
C507   C     0.91880   0.46037   0.09118   0.00000  Uiso   1.00
C508   C     0.81323   0.49063   0.41260   0.00000  Uiso   1.00
C509   C     0.85399   0.50332   0.08745   0.00000  Uiso   1.00
C510   C     0.79553   0.48717   0.46153   0.00000  Uiso   1.00
C511   C     0.85381   0.48162   0.04797   0.00000  Uiso   1.00
C512   C     0.74728   0.49987   0.48852   0.00000  Uiso   1.00
C513   C     0.76868   0.50482   0.05774   0.00000  Uiso   1.00
C514   C     0.89321   0.45366   0.02510   0.00000  Uiso   1.00
C515   C     0.82596   0.47315   0.48393   0.00000  Uiso   1.00
C516   C     0.81620   0.48736   0.03047   0.00000  Uiso   1.00
C517   C     0.73509   0.55506   0.11713   0.00000  Uiso   1.00
C518   C     0.75313   0.57702   0.15181   0.00000  Uiso   1.00
C519   C     0.83668   0.39160   0.42733   0.00000  Uiso   1.00
C520   C     0.83026   0.38094   0.38152   0.00000  Uiso   1.00
C521   C     0.72471   0.41237   0.17517   0.00000  Uiso   1.00
C522   C     0.76849   0.38351   0.15369   0.00000  Uiso   1.00
C523   C     0.94301   0.58822   0.32384   0.00000  Uiso   1.00
C524   C     0.86492   0.44448   0.46135   0.00000  Uiso   1.00
C525   C     0.89996   0.61781   0.34494   0.00000  Uiso   1.00
C526   C     0.73283   0.50564   0.03728   0.00000  Uiso   1.00
C527   C     0.89843   0.43519   0.48190   0.00000  Uiso   1.00
C528   C     0.87742   0.64588   0.22252   0.00000  Uiso   1.00
C529   C     0.78968   0.35408   0.27711   0.00000  Uiso   1.00
C530   C     0.87616   0.35561   0.22402   0.00000  Uiso   1.00
H531   H     0.83103   0.52979   0.10141   0.00000  Uiso   1.00
H532   H     0.68860   0.54411   0.30479   0.00000  Uiso   1.00
H533   H     0.67247   0.49740   0.09786   0.00000  Uiso   1.00
H534   H     0.67544   0.54443   0.07052   0.00000  Uiso   1.00
H535   H     0.92435   0.37831   0.45420   0.00000  Uiso   1.00
H536   H     0.95876   0.41935   0.42474   0.00000  Uiso   1.00
H537   H     0.69473   0.55236   0.13546   0.00000  Uiso   1.00
H538   H     0.74388   0.57578   0.08586   0.00000  Uiso   1.00
H539   H     0.79123   0.58852   0.13358   0.00000  Uiso   1.00
H540   H     0.72965   0.60450   0.16769   0.00000  Uiso   1.00
H541   H     0.75128   0.55562   0.18056   0.00000  Uiso   1.00
H542   H     0.85200   0.48741   0.39195   0.00000  Uiso   1.00
H543   H     0.79983   0.39926   0.45448   0.00000  Uiso   1.00
H544   H     0.85085   0.36361   0.43902   0.00000  Uiso   1.00
H545   H     0.86641   0.37541   0.35260   0.00000  Uiso   1.00
H546   H     0.80732   0.35239   0.38623   0.00000  Uiso   1.00
H547   H     0.81201   0.40710   0.37133   0.00000  Uiso   1.00
H548   H     0.91527   0.61007   0.16585   0.00000  Uiso   1.00
H549   H     0.95049   0.64533   0.17901   0.00000  Uiso   1.00
H550   H     0.73582   0.36552   0.34078   0.00000  Uiso   1.00
H551   H     0.71783   0.36621   0.29471   0.00000  Uiso   1.00
H552   H     0.70925   0.41780   0.14794   0.00000  Uiso   1.00
H553   H     0.94017   0.44870   0.11021   0.00000  Uiso   1.00
H554   H     0.69721   0.39645   0.20641   0.00000  Uiso   1.00
H555   H     0.78470   0.37683   0.18003   0.00000  Uiso   1.00
H556   H     0.75669   0.35359   0.14261   0.00000  Uiso   1.00
H557   H     0.79672   0.39843   0.12235   0.00000  Uiso   1.00
H558   H     0.97097   0.60372   0.29255   0.00000  Uiso   1.00
H559   H     0.95816   0.58259   0.35127   0.00000  Uiso   1.00
H560   H     0.87080   0.60309   0.37573   0.00000  Uiso   1.00
H561   H     0.91241   0.64699   0.35687   0.00000  Uiso   1.00
H562   H     0.88476   0.62565   0.31813   0.00000  Uiso   1.00
H563   H     0.70723   0.51338   0.39927   0.00000  Uiso   1.00
H564   H     0.67712   0.51589   0.48532   0.00000  Uiso   1.00
H565   H     0.95533   0.42165   0.03119   0.00000  Uiso   1.00
H566   H     0.90874   0.37333   0.20358   0.00000  Uiso   1.00
H567   H     0.75802   0.62704   0.29633   0.00000  Uiso   1.00
H568   H     0.97830   0.45607   0.19489   0.00000  Uiso   1.00
N569   N     0.71426   0.50001   0.25001   0.00000  Uiso   1.00
N570   N     0.95241   0.49999   0.24999   0.00000  Uiso   1.00
N571   N     0.68195   0.51238   0.06542   0.00000  Uiso   1.00
N572   N     0.93851   0.40745   0.45829   0.00000  Uiso   1.00
N573   N     0.92151   0.62425   0.19390   0.00000  Uiso   1.00
N574   N     0.74566   0.37536   0.30593   0.00000  Uiso   1.00
O575   O     0.79512   0.56108   0.25000   0.00000  Uiso   1.00
O576   O     0.87073   0.42483   0.41903   0.00000  Uiso   1.00
O577   O     0.74079   0.45055   0.18786   0.00000  Uiso   1.00
O578   O     0.92625   0.55026   0.31137   0.00000  Uiso   1.00
O579   O     0.87154   0.43892   0.24999   0.00000  Uiso   1.00
O580   O     0.87157   0.56107   0.25000   0.00000  Uiso   1.00
O581   O     0.79510   0.43893   0.25000   0.00000  Uiso   1.00
O582   O     0.77328   0.50001   0.31612   0.00000  Uiso   1.00
O583   O     0.89339   0.49999   0.18387   0.00000  Uiso   1.00
O584   O     0.84972   0.50000   0.31612   0.00000  Uiso   1.00
O585   O     0.81695   0.50000   0.18388   0.00000  Uiso   1.00
O586   O     0.75523   0.51420   0.10562   0.00000  Uiso   1.00
Zn587  Zn    0.78229   0.50001   0.25000   0.00000  Uiso   1.00
Zn588  Zn    0.88438   0.49999   0.25000   0.00000  Uiso   1.00
C589   C     0.16715   0.91327   0.24930   0.00000  Uiso   1.00
C590   C     0.12414   0.97779   0.27575   0.00000  Uiso   1.00
C591   C     0.16595   0.70927   0.25087   0.00000  Uiso   1.00
C592   C     0.16762   0.95741   0.24886   0.00000  Uiso   1.00
C593   C     0.32119   0.80831   0.21947   0.00000  Uiso   1.00
C594   C     0.01222   0.85843   0.28040   0.00000  Uiso   1.00
C595   C     0.03628   0.80759   0.21963   0.00000  Uiso   1.00
C596   C     0.29716   0.85925   0.28017   0.00000  Uiso   1.00
C597   C     0.13585   0.83369   0.33834   0.00000  Uiso   1.00
C598   C     0.19732   0.83257   0.16179   0.00000  Uiso   1.00
C599   C     0.11535   0.83284   0.38982   0.00000  Uiso   1.00
C600   C     0.16621   0.75340   0.25068   0.00000  Uiso   1.00
C601   C     0.21573   0.82351   0.11152   0.00000  Uiso   1.00
C602   C     0.04840   0.84108   0.46561   0.00000  Uiso   1.00
C603   C     0.25935   0.77723   0.04685   0.00000  Uiso   1.00
C604   C     0.06559   0.84011   0.41640   0.00000  Uiso   1.00
C605   C     0.25213   0.79371   0.09118   0.00000  Uiso   1.00
C606   C     0.14656   0.82396   0.41260   0.00000  Uiso   1.00
C607   C     0.18732   0.83666   0.08745   0.00000  Uiso   1.00
C608   C     0.12886   0.82050   0.46153   0.00000  Uiso   1.00
C609   C     0.18714   0.81495   0.04797   0.00000  Uiso   1.00
C610   C     0.08062   0.83320   0.48852   0.00000  Uiso   1.00
C611   C     0.10201   0.83815   0.05774   0.00000  Uiso   1.00
C612   C     0.22654   0.78700   0.02510   0.00000  Uiso   1.00
C613   C     0.15929   0.80648   0.48393   0.00000  Uiso   1.00
C614   C     0.14953   0.82070   0.03047   0.00000  Uiso   1.00
C615   C     0.06842   0.88840   0.11713   0.00000  Uiso   1.00
C616   C     0.08647   0.91035   0.15181   0.00000  Uiso   1.00
C617   C     0.17001   0.72493   0.42733   0.00000  Uiso   1.00
C618   C     0.16359   0.71427   0.38152   0.00000  Uiso   1.00
C619   C     0.05805   0.74570   0.17517   0.00000  Uiso   1.00
C620   C     0.10183   0.71684   0.15369   0.00000  Uiso   1.00
C621   C     0.27634   0.92156   0.32384   0.00000  Uiso   1.00
C622   C     0.19826   0.77781   0.46135   0.00000  Uiso   1.00
C623   C     0.23329   0.95115   0.34494   0.00000  Uiso   1.00
C624   C     0.06616   0.83898   0.03728   0.00000  Uiso   1.00
C625   C     0.23176   0.76853   0.48190   0.00000  Uiso   1.00
C626   C     0.21075   0.97921   0.22252   0.00000  Uiso   1.00
C627   C     0.12301   0.68741   0.27711   0.00000  Uiso   1.00
C628   C     0.20949   0.68894   0.22402   0.00000  Uiso   1.00
H629   H     0.16436   0.86312   0.10141   0.00000  Uiso   1.00
H630   H     0.02193   0.87745   0.30479   0.00000  Uiso   1.00
H631   H     0.00580   0.83074   0.09786   0.00000  Uiso   1.00
H632   H     0.00877   0.87777   0.07052   0.00000  Uiso   1.00
H633   H     0.25768   0.71164   0.45420   0.00000  Uiso   1.00
H634   H     0.29209   0.75269   0.42474   0.00000  Uiso   1.00
H635   H     0.02806   0.88569   0.13546   0.00000  Uiso   1.00
H636   H     0.07721   0.90912   0.08586   0.00000  Uiso   1.00
H637   H     0.12456   0.92185   0.13358   0.00000  Uiso   1.00
H638   H     0.06298   0.93783   0.16769   0.00000  Uiso   1.00
H639   H     0.08461   0.88896   0.18056   0.00000  Uiso   1.00
H640   H     0.18534   0.82075   0.39195   0.00000  Uiso   1.00
H641   H     0.13316   0.73260   0.45448   0.00000  Uiso   1.00
H642   H     0.18418   0.69694   0.43902   0.00000  Uiso   1.00
H643   H     0.19974   0.70875   0.35260   0.00000  Uiso   1.00
H644   H     0.14065   0.68572   0.38623   0.00000  Uiso   1.00
H645   H     0.14535   0.74043   0.37133   0.00000  Uiso   1.00
H646   H     0.24861   0.94341   0.16585   0.00000  Uiso   1.00
H647   H     0.28382   0.97866   0.17901   0.00000  Uiso   1.00
H648   H     0.06916   0.69885   0.34078   0.00000  Uiso   1.00
H649   H     0.05116   0.69954   0.29471   0.00000  Uiso   1.00
H650   H     0.04258   0.75114   0.14794   0.00000  Uiso   1.00
H651   H     0.27350   0.78203   0.11021   0.00000  Uiso   1.00
H652   H     0.03055   0.72978   0.20641   0.00000  Uiso   1.00
H653   H     0.11803   0.71017   0.18003   0.00000  Uiso   1.00
H654   H     0.09002   0.68692   0.14261   0.00000  Uiso   1.00
H655   H     0.13005   0.73176   0.12235   0.00000  Uiso   1.00
H656   H     0.30430   0.93705   0.29255   0.00000  Uiso   1.00
H657   H     0.29150   0.91592   0.35127   0.00000  Uiso   1.00
H658   H     0.20413   0.93642   0.37573   0.00000  Uiso   1.00
H659   H     0.24575   0.98032   0.35687   0.00000  Uiso   1.00
H660   H     0.21810   0.95898   0.31813   0.00000  Uiso   1.00
H661   H     0.04056   0.84671   0.39927   0.00000  Uiso   1.00
H662   H     0.01045   0.84922   0.48532   0.00000  Uiso   1.00
H663   H     0.28867   0.75498   0.03119   0.00000  Uiso   1.00
H664   H     0.24207   0.70666   0.20358   0.00000  Uiso   1.00
H665   H     0.09135   0.96037   0.29633   0.00000  Uiso   1.00
H666   H     0.31163   0.78941   0.19489   0.00000  Uiso   1.00
N667   N     0.04759   0.83334   0.25001   0.00000  Uiso   1.00
N668   N     0.28574   0.83332   0.24999   0.00000  Uiso   1.00
N669   N     0.01528   0.84571   0.06542   0.00000  Uiso   1.00
N670   N     0.27184   0.74078   0.45829   0.00000  Uiso   1.00
N671   N     0.25484   0.95759   0.19390   0.00000  Uiso   1.00
N672   N     0.07899   0.70869   0.30593   0.00000  Uiso   1.00
O673   O     0.12846   0.89442   0.25000   0.00000  Uiso   1.00
O674   O     0.20407   0.75817   0.41903   0.00000  Uiso   1.00
O675   O     0.07412   0.78389   0.18786   0.00000  Uiso   1.00
O676   O     0.25959   0.88359   0.31137   0.00000  Uiso   1.00
O677   O     0.20488   0.77225   0.24999   0.00000  Uiso   1.00
O678   O     0.20490   0.89441   0.25000   0.00000  Uiso   1.00
O679   O     0.12843   0.77226   0.25000   0.00000  Uiso   1.00
O680   O     0.10661   0.83334   0.31612   0.00000  Uiso   1.00
O681   O     0.22672   0.83333   0.18387   0.00000  Uiso   1.00
O682   O     0.18305   0.83333   0.31612   0.00000  Uiso   1.00
O683   O     0.15028   0.83334   0.18388   0.00000  Uiso   1.00
O684   O     0.08856   0.84753   0.10562   0.00000  Uiso   1.00
Zn685  Zn    0.11562   0.83334   0.25000   0.00000  Uiso   1.00
Zn686  Zn    0.21771   0.83333   0.25000   0.00000  Uiso   1.00
C687   C     0.50048   0.91327   0.24930   0.00000  Uiso   1.00
C688   C     0.45747   0.97779   0.27575   0.00000  Uiso   1.00
C689   C     0.49928   0.70927   0.25087   0.00000  Uiso   1.00
C690   C     0.50095   0.95741   0.24886   0.00000  Uiso   1.00
C691   C     0.65452   0.80831   0.21947   0.00000  Uiso   1.00
C692   C     0.34556   0.85843   0.28040   0.00000  Uiso   1.00
C693   C     0.36961   0.80759   0.21963   0.00000  Uiso   1.00
C694   C     0.63050   0.85925   0.28017   0.00000  Uiso   1.00
C695   C     0.46919   0.83369   0.33834   0.00000  Uiso   1.00
C696   C     0.53065   0.83257   0.16179   0.00000  Uiso   1.00
C697   C     0.44869   0.83284   0.38982   0.00000  Uiso   1.00
C698   C     0.49955   0.75340   0.25068   0.00000  Uiso   1.00
C699   C     0.54906   0.82351   0.11152   0.00000  Uiso   1.00
C700   C     0.38173   0.84108   0.46561   0.00000  Uiso   1.00
C701   C     0.59268   0.77723   0.04685   0.00000  Uiso   1.00
C702   C     0.39892   0.84011   0.41640   0.00000  Uiso   1.00
C703   C     0.58547   0.79371   0.09118   0.00000  Uiso   1.00
C704   C     0.47989   0.82396   0.41260   0.00000  Uiso   1.00
C705   C     0.52065   0.83666   0.08745   0.00000  Uiso   1.00
C706   C     0.46220   0.82050   0.46153   0.00000  Uiso   1.00
C707   C     0.52048   0.81495   0.04797   0.00000  Uiso   1.00
C708   C     0.41395   0.83320   0.48852   0.00000  Uiso   1.00
C709   C     0.43534   0.83815   0.05774   0.00000  Uiso   1.00
C710   C     0.55988   0.78700   0.02510   0.00000  Uiso   1.00
C711   C     0.49262   0.80648   0.48393   0.00000  Uiso   1.00
C712   C     0.48287   0.82070   0.03047   0.00000  Uiso   1.00
C713   C     0.40176   0.88840   0.11713   0.00000  Uiso   1.00
C714   C     0.41980   0.91035   0.15181   0.00000  Uiso   1.00
C715   C     0.50335   0.72493   0.42733   0.00000  Uiso   1.00
C716   C     0.49693   0.71427   0.38152   0.00000  Uiso   1.00
C717   C     0.39138   0.74570   0.17517   0.00000  Uiso   1.00
C718   C     0.43516   0.71684   0.15369   0.00000  Uiso   1.00
C719   C     0.60968   0.92156   0.32384   0.00000  Uiso   1.00
C720   C     0.53159   0.77781   0.46135   0.00000  Uiso   1.00
C721   C     0.56662   0.95115   0.34494   0.00000  Uiso   1.00
C722   C     0.39950   0.83898   0.03728   0.00000  Uiso   1.00
C723   C     0.56510   0.76853   0.48190   0.00000  Uiso   1.00
C724   C     0.54408   0.97921   0.22252   0.00000  Uiso   1.00
C725   C     0.45634   0.68741   0.27711   0.00000  Uiso   1.00
C726   C     0.54283   0.68894   0.22402   0.00000  Uiso   1.00
H727   H     0.49770   0.86312   0.10141   0.00000  Uiso   1.00
H728   H     0.35526   0.87745   0.30479   0.00000  Uiso   1.00
H729   H     0.33913   0.83074   0.09786   0.00000  Uiso   1.00
H730   H     0.34210   0.87777   0.07052   0.00000  Uiso   1.00
H731   H     0.59102   0.71164   0.45420   0.00000  Uiso   1.00
H732   H     0.62542   0.75269   0.42474   0.00000  Uiso   1.00
H733   H     0.36139   0.88569   0.13546   0.00000  Uiso   1.00
H734   H     0.41055   0.90912   0.08586   0.00000  Uiso   1.00
H735   H     0.45789   0.92185   0.13358   0.00000  Uiso   1.00
H736   H     0.39632   0.93783   0.16769   0.00000  Uiso   1.00
H737   H     0.41795   0.88896   0.18056   0.00000  Uiso   1.00
H738   H     0.51867   0.82075   0.39195   0.00000  Uiso   1.00
H739   H     0.46649   0.73260   0.45448   0.00000  Uiso   1.00
H740   H     0.51751   0.69694   0.43902   0.00000  Uiso   1.00
H741   H     0.53308   0.70875   0.35260   0.00000  Uiso   1.00
H742   H     0.47399   0.68572   0.38623   0.00000  Uiso   1.00
H743   H     0.47868   0.74043   0.37133   0.00000  Uiso   1.00
H744   H     0.58194   0.94341   0.16585   0.00000  Uiso   1.00
H745   H     0.61716   0.97866   0.17901   0.00000  Uiso   1.00
H746   H     0.40249   0.69885   0.34078   0.00000  Uiso   1.00
H747   H     0.38450   0.69954   0.29471   0.00000  Uiso   1.00
H748   H     0.37591   0.75114   0.14794   0.00000  Uiso   1.00
H749   H     0.60684   0.78203   0.11021   0.00000  Uiso   1.00
H750   H     0.36388   0.72978   0.20641   0.00000  Uiso   1.00
H751   H     0.45137   0.71017   0.18003   0.00000  Uiso   1.00
H752   H     0.42335   0.68692   0.14261   0.00000  Uiso   1.00
H753   H     0.46339   0.73176   0.12235   0.00000  Uiso   1.00
H754   H     0.63763   0.93705   0.29255   0.00000  Uiso   1.00
H755   H     0.62483   0.91592   0.35127   0.00000  Uiso   1.00
H756   H     0.53746   0.93642   0.37573   0.00000  Uiso   1.00
H757   H     0.57908   0.98032   0.35687   0.00000  Uiso   1.00
H758   H     0.55143   0.95898   0.31813   0.00000  Uiso   1.00
H759   H     0.37389   0.84671   0.39927   0.00000  Uiso   1.00
H760   H     0.34379   0.84922   0.48532   0.00000  Uiso   1.00
H761   H     0.62200   0.75498   0.03119   0.00000  Uiso   1.00
H762   H     0.57541   0.70666   0.20358   0.00000  Uiso   1.00
H763   H     0.42468   0.96037   0.29633   0.00000  Uiso   1.00
H764   H     0.64497   0.78941   0.19489   0.00000  Uiso   1.00
N765   N     0.38093   0.83334   0.25001   0.00000  Uiso   1.00
N766   N     0.61907   0.83332   0.24999   0.00000  Uiso   1.00
N767   N     0.34861   0.84571   0.06542   0.00000  Uiso   1.00
N768   N     0.60517   0.74078   0.45829   0.00000  Uiso   1.00
N769   N     0.58818   0.95759   0.19390   0.00000  Uiso   1.00
N770   N     0.41233   0.70869   0.30593   0.00000  Uiso   1.00
O771   O     0.46179   0.89442   0.25000   0.00000  Uiso   1.00
O772   O     0.53740   0.75817   0.41903   0.00000  Uiso   1.00
O773   O     0.40745   0.78389   0.18786   0.00000  Uiso   1.00
O774   O     0.59292   0.88359   0.31137   0.00000  Uiso   1.00
O775   O     0.53821   0.77225   0.24999   0.00000  Uiso   1.00
O776   O     0.53823   0.89441   0.25000   0.00000  Uiso   1.00
O777   O     0.46177   0.77226   0.25000   0.00000  Uiso   1.00
O778   O     0.43994   0.83334   0.31612   0.00000  Uiso   1.00
O779   O     0.56006   0.83333   0.18387   0.00000  Uiso   1.00
O780   O     0.51639   0.83333   0.31612   0.00000  Uiso   1.00
O781   O     0.48361   0.83334   0.18388   0.00000  Uiso   1.00
O782   O     0.42190   0.84753   0.10562   0.00000  Uiso   1.00
Zn783  Zn    0.44896   0.83334   0.25000   0.00000  Uiso   1.00
Zn784  Zn    0.55104   0.83333   0.25000   0.00000  Uiso   1.00
C785   C     0.83381   0.91327   0.24930   0.00000  Uiso   1.00
C786   C     0.79081   0.97779   0.27575   0.00000  Uiso   1.00
C787   C     0.83261   0.70927   0.25087   0.00000  Uiso   1.00
C788   C     0.83428   0.95741   0.24886   0.00000  Uiso   1.00
C789   C     0.98786   0.80831   0.21947   0.00000  Uiso   1.00
C790   C     0.67889   0.85843   0.28040   0.00000  Uiso   1.00
C791   C     0.70294   0.80759   0.21963   0.00000  Uiso   1.00
C792   C     0.96383   0.85925   0.28017   0.00000  Uiso   1.00
C793   C     0.80252   0.83369   0.33834   0.00000  Uiso   1.00
C794   C     0.86398   0.83257   0.16179   0.00000  Uiso   1.00
C795   C     0.78202   0.83284   0.38982   0.00000  Uiso   1.00
C796   C     0.83288   0.75340   0.25068   0.00000  Uiso   1.00
C797   C     0.88239   0.82351   0.11152   0.00000  Uiso   1.00
C798   C     0.71507   0.84108   0.46561   0.00000  Uiso   1.00
C799   C     0.92601   0.77723   0.04685   0.00000  Uiso   1.00
C800   C     0.73226   0.84011   0.41640   0.00000  Uiso   1.00
C801   C     0.91880   0.79371   0.09118   0.00000  Uiso   1.00
C802   C     0.81323   0.82396   0.41260   0.00000  Uiso   1.00
C803   C     0.85399   0.83666   0.08745   0.00000  Uiso   1.00
C804   C     0.79553   0.82050   0.46153   0.00000  Uiso   1.00
C805   C     0.85381   0.81495   0.04797   0.00000  Uiso   1.00
C806   C     0.74728   0.83320   0.48852   0.00000  Uiso   1.00
C807   C     0.76868   0.83815   0.05774   0.00000  Uiso   1.00
C808   C     0.89321   0.78700   0.02510   0.00000  Uiso   1.00
C809   C     0.82596   0.80648   0.48393   0.00000  Uiso   1.00
C810   C     0.81620   0.82070   0.03047   0.00000  Uiso   1.00
C811   C     0.73509   0.88840   0.11713   0.00000  Uiso   1.00
C812   C     0.75313   0.91035   0.15181   0.00000  Uiso   1.00
C813   C     0.83668   0.72493   0.42733   0.00000  Uiso   1.00
C814   C     0.83026   0.71427   0.38152   0.00000  Uiso   1.00
C815   C     0.72471   0.74570   0.17517   0.00000  Uiso   1.00
C816   C     0.76849   0.71684   0.15369   0.00000  Uiso   1.00
C817   C     0.94301   0.92156   0.32384   0.00000  Uiso   1.00
C818   C     0.86492   0.77781   0.46135   0.00000  Uiso   1.00
C819   C     0.89996   0.95115   0.34494   0.00000  Uiso   1.00
C820   C     0.73283   0.83898   0.03728   0.00000  Uiso   1.00
C821   C     0.89843   0.76853   0.48190   0.00000  Uiso   1.00
C822   C     0.87742   0.97921   0.22252   0.00000  Uiso   1.00
C823   C     0.78968   0.68741   0.27711   0.00000  Uiso   1.00
C824   C     0.87616   0.68894   0.22402   0.00000  Uiso   1.00
H825   H     0.83103   0.86312   0.10141   0.00000  Uiso   1.00
H826   H     0.68860   0.87745   0.30479   0.00000  Uiso   1.00
H827   H     0.67247   0.83074   0.09786   0.00000  Uiso   1.00
H828   H     0.67544   0.87777   0.07052   0.00000  Uiso   1.00
H829   H     0.92435   0.71164   0.45420   0.00000  Uiso   1.00
H830   H     0.95876   0.75269   0.42474   0.00000  Uiso   1.00
H831   H     0.69473   0.88569   0.13546   0.00000  Uiso   1.00
H832   H     0.74388   0.90912   0.08586   0.00000  Uiso   1.00
H833   H     0.79123   0.92185   0.13358   0.00000  Uiso   1.00
H834   H     0.72965   0.93783   0.16769   0.00000  Uiso   1.00
H835   H     0.75128   0.88896   0.18056   0.00000  Uiso   1.00
H836   H     0.85200   0.82075   0.39195   0.00000  Uiso   1.00
H837   H     0.79983   0.73260   0.45448   0.00000  Uiso   1.00
H838   H     0.85085   0.69694   0.43902   0.00000  Uiso   1.00
H839   H     0.86641   0.70875   0.35260   0.00000  Uiso   1.00
H840   H     0.80732   0.68572   0.38623   0.00000  Uiso   1.00
H841   H     0.81201   0.74043   0.37133   0.00000  Uiso   1.00
H842   H     0.91527   0.94341   0.16585   0.00000  Uiso   1.00
H843   H     0.95049   0.97866   0.17901   0.00000  Uiso   1.00
H844   H     0.73582   0.69885   0.34078   0.00000  Uiso   1.00
H845   H     0.71783   0.69954   0.29471   0.00000  Uiso   1.00
H846   H     0.70925   0.75114   0.14794   0.00000  Uiso   1.00
H847   H     0.94017   0.78203   0.11021   0.00000  Uiso   1.00
H848   H     0.69721   0.72978   0.20641   0.00000  Uiso   1.00
H849   H     0.78470   0.71017   0.18003   0.00000  Uiso   1.00
H850   H     0.75669   0.68692   0.14261   0.00000  Uiso   1.00
H851   H     0.79672   0.73176   0.12235   0.00000  Uiso   1.00
H852   H     0.97097   0.93705   0.29255   0.00000  Uiso   1.00
H853   H     0.95816   0.91592   0.35127   0.00000  Uiso   1.00
H854   H     0.87080   0.93642   0.37573   0.00000  Uiso   1.00
H855   H     0.91241   0.98032   0.35687   0.00000  Uiso   1.00
H856   H     0.88476   0.95898   0.31813   0.00000  Uiso   1.00
H857   H     0.70723   0.84671   0.39927   0.00000  Uiso   1.00
H858   H     0.67712   0.84922   0.48532   0.00000  Uiso   1.00
H859   H     0.95533   0.75498   0.03119   0.00000  Uiso   1.00
H860   H     0.90874   0.70666   0.20358   0.00000  Uiso   1.00
H861   H     0.75802   0.96037   0.29633   0.00000  Uiso   1.00
H862   H     0.97830   0.78941   0.19489   0.00000  Uiso   1.00
N863   N     0.71426   0.83334   0.25001   0.00000  Uiso   1.00
N864   N     0.95241   0.83332   0.24999   0.00000  Uiso   1.00
N865   N     0.68195   0.84571   0.06542   0.00000  Uiso   1.00
N866   N     0.93851   0.74078   0.45829   0.00000  Uiso   1.00
N867   N     0.92151   0.95759   0.19390   0.00000  Uiso   1.00
N868   N     0.74566   0.70869   0.30593   0.00000  Uiso   1.00
O869   O     0.79512   0.89442   0.25000   0.00000  Uiso   1.00
O870   O     0.87073   0.75817   0.41903   0.00000  Uiso   1.00
O871   O     0.74079   0.78389   0.18786   0.00000  Uiso   1.00
O872   O     0.92625   0.88359   0.31137   0.00000  Uiso   1.00
O873   O     0.87154   0.77225   0.24999   0.00000  Uiso   1.00
O874   O     0.87157   0.89441   0.25000   0.00000  Uiso   1.00
O875   O     0.79510   0.77226   0.25000   0.00000  Uiso   1.00
O876   O     0.77328   0.83334   0.31612   0.00000  Uiso   1.00
O877   O     0.89339   0.83333   0.18387   0.00000  Uiso   1.00
O878   O     0.84972   0.83333   0.31612   0.00000  Uiso   1.00
O879   O     0.81695   0.83334   0.18388   0.00000  Uiso   1.00
O880   O     0.75523   0.84753   0.10562   0.00000  Uiso   1.00
Zn881  Zn    0.78229   0.83334   0.25000   0.00000  Uiso   1.00
Zn882  Zn    0.88438   0.83333   0.25000   0.00000  Uiso   1.00
C883   C     0.16715   0.24660   0.74930   0.00000  Uiso   1.00
C884   C     0.12414   0.31112   0.77575   0.00000  Uiso   1.00
C885   C     0.16595   0.04260   0.75087   0.00000  Uiso   1.00
C886   C     0.16762   0.29074   0.74886   0.00000  Uiso   1.00
C887   C     0.32119   0.14165   0.71947   0.00000  Uiso   1.00
C888   C     0.01222   0.19176   0.78040   0.00000  Uiso   1.00
C889   C     0.03628   0.14092   0.71963   0.00000  Uiso   1.00
C890   C     0.29716   0.19258   0.78017   0.00000  Uiso   1.00
C891   C     0.13585   0.16703   0.83834   0.00000  Uiso   1.00
C892   C     0.19732   0.16590   0.66179   0.00000  Uiso   1.00
C893   C     0.11535   0.16617   0.88982   0.00000  Uiso   1.00
C894   C     0.16621   0.08673   0.75068   0.00000  Uiso   1.00
C895   C     0.21573   0.15685   0.61152   0.00000  Uiso   1.00
C896   C     0.04840   0.17442   0.96561   0.00000  Uiso   1.00
C897   C     0.25935   0.11056   0.54685   0.00000  Uiso   1.00
C898   C     0.06559   0.17344   0.91640   0.00000  Uiso   1.00
C899   C     0.25213   0.12704   0.59118   0.00000  Uiso   1.00
C900   C     0.14656   0.15730   0.91260   0.00000  Uiso   1.00
C901   C     0.18732   0.16999   0.58745   0.00000  Uiso   1.00
C902   C     0.12886   0.15383   0.96153   0.00000  Uiso   1.00
C903   C     0.18714   0.14829   0.54797   0.00000  Uiso   1.00
C904   C     0.08062   0.16653   0.98852   0.00000  Uiso   1.00
C905   C     0.10201   0.17148   0.55774   0.00000  Uiso   1.00
C906   C     0.22654   0.12033   0.52510   0.00000  Uiso   1.00
C907   C     0.15929   0.13982   0.98393   0.00000  Uiso   1.00
C908   C     0.14953   0.15403   0.53047   0.00000  Uiso   1.00
C909   C     0.06842   0.22173   0.61713   0.00000  Uiso   1.00
C910   C     0.08647   0.24369   0.65181   0.00000  Uiso   1.00
C911   C     0.17001   0.05826   0.92733   0.00000  Uiso   1.00
C912   C     0.16359   0.04761   0.88152   0.00000  Uiso   1.00
C913   C     0.05805   0.07903   0.67517   0.00000  Uiso   1.00
C914   C     0.10183   0.05017   0.65369   0.00000  Uiso   1.00
C915   C     0.27634   0.25489   0.82384   0.00000  Uiso   1.00
C916   C     0.19826   0.11114   0.96135   0.00000  Uiso   1.00
C917   C     0.23329   0.28448   0.84494   0.00000  Uiso   1.00
C918   C     0.06616   0.17231   0.53728   0.00000  Uiso   1.00
C919   C     0.23176   0.10186   0.98190   0.00000  Uiso   1.00
C920   C     0.21075   0.31254   0.72252   0.00000  Uiso   1.00
C921   C     0.12301   0.02074   0.77711   0.00000  Uiso   1.00
C922   C     0.20949   0.02228   0.72402   0.00000  Uiso   1.00
H923   H     0.16436   0.19646   0.60141   0.00000  Uiso   1.00
H924   H     0.02193   0.21078   0.80479   0.00000  Uiso   1.00
H925   H     0.00580   0.16407   0.59786   0.00000  Uiso   1.00
H926   H     0.00877   0.21110   0.57052   0.00000  Uiso   1.00
H927   H     0.25768   0.04498   0.95420   0.00000  Uiso   1.00
H928   H     0.29209   0.08602   0.92474   0.00000  Uiso   1.00
H929   H     0.02806   0.21902   0.63546   0.00000  Uiso   1.00
H930   H     0.07721   0.24245   0.58586   0.00000  Uiso   1.00
H931   H     0.12456   0.25518   0.63358   0.00000  Uiso   1.00
H932   H     0.06298   0.27117   0.66769   0.00000  Uiso   1.00
H933   H     0.08461   0.22229   0.68056   0.00000  Uiso   1.00
H934   H     0.18534   0.15408   0.89195   0.00000  Uiso   1.00
H935   H     0.13316   0.06593   0.95448   0.00000  Uiso   1.00
H936   H     0.18418   0.03027   0.93902   0.00000  Uiso   1.00
H937   H     0.19974   0.04208   0.85260   0.00000  Uiso   1.00
H938   H     0.14065   0.01905   0.88623   0.00000  Uiso   1.00
H939   H     0.14535   0.07376   0.87133   0.00000  Uiso   1.00
H940   H     0.24861   0.27674   0.66585   0.00000  Uiso   1.00
H941   H     0.28382   0.31199   0.67901   0.00000  Uiso   1.00
H942   H     0.06916   0.03219   0.84078   0.00000  Uiso   1.00
H943   H     0.05116   0.03287   0.79471   0.00000  Uiso   1.00
H944   H     0.04258   0.08447   0.64794   0.00000  Uiso   1.00
H945   H     0.27350   0.11536   0.61021   0.00000  Uiso   1.00
H946   H     0.03055   0.06311   0.70641   0.00000  Uiso   1.00
H947   H     0.11803   0.04350   0.68003   0.00000  Uiso   1.00
H948   H     0.09002   0.02025   0.64261   0.00000  Uiso   1.00
H949   H     0.13005   0.06509   0.62235   0.00000  Uiso   1.00
H950   H     0.30430   0.27039   0.79255   0.00000  Uiso   1.00
H951   H     0.29150   0.24925   0.85127   0.00000  Uiso   1.00
H952   H     0.20413   0.26975   0.87573   0.00000  Uiso   1.00
H953   H     0.24575   0.31366   0.85687   0.00000  Uiso   1.00
H954   H     0.21810   0.29231   0.81813   0.00000  Uiso   1.00
H955   H     0.04056   0.18005   0.89927   0.00000  Uiso   1.00
H956   H     0.01045   0.18256   0.98532   0.00000  Uiso   1.00
H957   H     0.28867   0.08831   0.53119   0.00000  Uiso   1.00
H958   H     0.24207   0.03999   0.70358   0.00000  Uiso   1.00
H959   H     0.09135   0.29371   0.79633   0.00000  Uiso   1.00
H960   H     0.31163   0.12274   0.69489   0.00000  Uiso   1.00
N961   N     0.04759   0.16668   0.75001   0.00000  Uiso   1.00
N962   N     0.28574   0.16666   0.74999   0.00000  Uiso   1.00
N963   N     0.01528   0.17905   0.56542   0.00000  Uiso   1.00
N964   N     0.27184   0.07411   0.95829   0.00000  Uiso   1.00
N965   N     0.25484   0.29092   0.69390   0.00000  Uiso   1.00
N966   N     0.07899   0.04202   0.80593   0.00000  Uiso   1.00
O967   O     0.12846   0.22775   0.75000   0.00000  Uiso   1.00
O968   O     0.20407   0.09150   0.91903   0.00000  Uiso   1.00
O969   O     0.07412   0.11722   0.68786   0.00000  Uiso   1.00
O970   O     0.25959   0.21692   0.81137   0.00000  Uiso   1.00
O971   O     0.20488   0.10558   0.74999   0.00000  Uiso   1.00
O972   O     0.20490   0.22774   0.75000   0.00000  Uiso   1.00
O973   O     0.12843   0.10559   0.75000   0.00000  Uiso   1.00
O974   O     0.10661   0.16667   0.81612   0.00000  Uiso   1.00
O975   O     0.22672   0.16666   0.68387   0.00000  Uiso   1.00
O976   O     0.18305   0.16666   0.81612   0.00000  Uiso   1.00
O977   O     0.15028   0.16667   0.68388   0.00000  Uiso   1.00
O978   O     0.08856   0.18087   0.60562   0.00000  Uiso   1.00
Zn979  Zn    0.11562   0.16667   0.75000   0.00000  Uiso   1.00
Zn980  Zn    0.21771   0.16666   0.75000   0.00000  Uiso   1.00
C981   C     0.50048   0.24660   0.74930   0.00000  Uiso   1.00
C982   C     0.45747   0.31112   0.77575   0.00000  Uiso   1.00
C983   C     0.49928   0.04260   0.75087   0.00000  Uiso   1.00
C984   C     0.50095   0.29074   0.74886   0.00000  Uiso   1.00
C985   C     0.65452   0.14165   0.71947   0.00000  Uiso   1.00
C986   C     0.34556   0.19176   0.78040   0.00000  Uiso   1.00
C987   C     0.36961   0.14092   0.71963   0.00000  Uiso   1.00
C988   C     0.63050   0.19258   0.78017   0.00000  Uiso   1.00
C989   C     0.46919   0.16703   0.83834   0.00000  Uiso   1.00
C990   C     0.53065   0.16590   0.66179   0.00000  Uiso   1.00
C991   C     0.44869   0.16617   0.88982   0.00000  Uiso   1.00
C992   C     0.49955   0.08673   0.75068   0.00000  Uiso   1.00
C993   C     0.54906   0.15685   0.61152   0.00000  Uiso   1.00
C994   C     0.38173   0.17442   0.96561   0.00000  Uiso   1.00
C995   C     0.59268   0.11056   0.54685   0.00000  Uiso   1.00
C996   C     0.39892   0.17344   0.91640   0.00000  Uiso   1.00
C997   C     0.58547   0.12704   0.59118   0.00000  Uiso   1.00
C998   C     0.47989   0.15730   0.91260   0.00000  Uiso   1.00
C999   C     0.52065   0.16999   0.58745   0.00000  Uiso   1.00
C1000  C     0.46220   0.15383   0.96153   0.00000  Uiso   1.00
C1001  C     0.52048   0.14829   0.54797   0.00000  Uiso   1.00
C1002  C     0.41395   0.16653   0.98852   0.00000  Uiso   1.00
C1003  C     0.43534   0.17148   0.55774   0.00000  Uiso   1.00
C1004  C     0.55988   0.12033   0.52510   0.00000  Uiso   1.00
C1005  C     0.49262   0.13982   0.98393   0.00000  Uiso   1.00
C1006  C     0.48287   0.15403   0.53047   0.00000  Uiso   1.00
C1007  C     0.40176   0.22173   0.61713   0.00000  Uiso   1.00
C1008  C     0.41980   0.24369   0.65181   0.00000  Uiso   1.00
C1009  C     0.50335   0.05826   0.92733   0.00000  Uiso   1.00
C1010  C     0.49693   0.04761   0.88152   0.00000  Uiso   1.00
C1011  C     0.39138   0.07903   0.67517   0.00000  Uiso   1.00
C1012  C     0.43516   0.05017   0.65369   0.00000  Uiso   1.00
C1013  C     0.60968   0.25489   0.82384   0.00000  Uiso   1.00
C1014  C     0.53159   0.11114   0.96135   0.00000  Uiso   1.00
C1015  C     0.56662   0.28448   0.84494   0.00000  Uiso   1.00
C1016  C     0.39950   0.17231   0.53728   0.00000  Uiso   1.00
C1017  C     0.56510   0.10186   0.98190   0.00000  Uiso   1.00
C1018  C     0.54408   0.31254   0.72252   0.00000  Uiso   1.00
C1019  C     0.45634   0.02074   0.77711   0.00000  Uiso   1.00
C1020  C     0.54283   0.02228   0.72402   0.00000  Uiso   1.00
H1021  H     0.49770   0.19646   0.60141   0.00000  Uiso   1.00
H1022  H     0.35526   0.21078   0.80479   0.00000  Uiso   1.00
H1023  H     0.33913   0.16407   0.59786   0.00000  Uiso   1.00
H1024  H     0.34210   0.21110   0.57052   0.00000  Uiso   1.00
H1025  H     0.59102   0.04498   0.95420   0.00000  Uiso   1.00
H1026  H     0.62542   0.08602   0.92474   0.00000  Uiso   1.00
H1027  H     0.36139   0.21902   0.63546   0.00000  Uiso   1.00
H1028  H     0.41055   0.24245   0.58586   0.00000  Uiso   1.00
H1029  H     0.45789   0.25518   0.63358   0.00000  Uiso   1.00
H1030  H     0.39632   0.27117   0.66769   0.00000  Uiso   1.00
H1031  H     0.41795   0.22229   0.68056   0.00000  Uiso   1.00
H1032  H     0.51867   0.15408   0.89195   0.00000  Uiso   1.00
H1033  H     0.46649   0.06593   0.95448   0.00000  Uiso   1.00
H1034  H     0.51751   0.03027   0.93902   0.00000  Uiso   1.00
H1035  H     0.53308   0.04208   0.85260   0.00000  Uiso   1.00
H1036  H     0.47399   0.01905   0.88623   0.00000  Uiso   1.00
H1037  H     0.47868   0.07376   0.87133   0.00000  Uiso   1.00
H1038  H     0.58194   0.27674   0.66585   0.00000  Uiso   1.00
H1039  H     0.61716   0.31199   0.67901   0.00000  Uiso   1.00
H1040  H     0.40249   0.03219   0.84078   0.00000  Uiso   1.00
H1041  H     0.38450   0.03287   0.79471   0.00000  Uiso   1.00
H1042  H     0.37591   0.08447   0.64794   0.00000  Uiso   1.00
H1043  H     0.60684   0.11536   0.61021   0.00000  Uiso   1.00
H1044  H     0.36388   0.06311   0.70641   0.00000  Uiso   1.00
H1045  H     0.45137   0.04350   0.68003   0.00000  Uiso   1.00
H1046  H     0.42335   0.02025   0.64261   0.00000  Uiso   1.00
H1047  H     0.46339   0.06509   0.62235   0.00000  Uiso   1.00
H1048  H     0.63763   0.27039   0.79255   0.00000  Uiso   1.00
H1049  H     0.62483   0.24925   0.85127   0.00000  Uiso   1.00
H1050  H     0.53746   0.26975   0.87573   0.00000  Uiso   1.00
H1051  H     0.57908   0.31366   0.85687   0.00000  Uiso   1.00
H1052  H     0.55143   0.29231   0.81813   0.00000  Uiso   1.00
H1053  H     0.37389   0.18005   0.89927   0.00000  Uiso   1.00
H1054  H     0.34379   0.18256   0.98532   0.00000  Uiso   1.00
H1055  H     0.62200   0.08831   0.53119   0.00000  Uiso   1.00
H1056  H     0.57541   0.03999   0.70358   0.00000  Uiso   1.00
H1057  H     0.42468   0.29371   0.79633   0.00000  Uiso   1.00
H1058  H     0.64497   0.12274   0.69489   0.00000  Uiso   1.00
N1059  N     0.38093   0.16668   0.75001   0.00000  Uiso   1.00
N1060  N     0.61907   0.16666   0.74999   0.00000  Uiso   1.00
N1061  N     0.34861   0.17905   0.56542   0.00000  Uiso   1.00
N1062  N     0.60517   0.07411   0.95829   0.00000  Uiso   1.00
N1063  N     0.58818   0.29092   0.69390   0.00000  Uiso   1.00
N1064  N     0.41233   0.04202   0.80593   0.00000  Uiso   1.00
O1065  O     0.46179   0.22775   0.75000   0.00000  Uiso   1.00
O1066  O     0.53740   0.09150   0.91903   0.00000  Uiso   1.00
O1067  O     0.40745   0.11722   0.68786   0.00000  Uiso   1.00
O1068  O     0.59292   0.21692   0.81137   0.00000  Uiso   1.00
O1069  O     0.53821   0.10558   0.74999   0.00000  Uiso   1.00
O1070  O     0.53823   0.22774   0.75000   0.00000  Uiso   1.00
O1071  O     0.46177   0.10559   0.75000   0.00000  Uiso   1.00
O1072  O     0.43994   0.16667   0.81612   0.00000  Uiso   1.00
O1073  O     0.56006   0.16666   0.68387   0.00000  Uiso   1.00
O1074  O     0.51639   0.16666   0.81612   0.00000  Uiso   1.00
O1075  O     0.48361   0.16667   0.68388   0.00000  Uiso   1.00
O1076  O     0.42190   0.18087   0.60562   0.00000  Uiso   1.00
Zn1077 Zn    0.44896   0.16667   0.75000   0.00000  Uiso   1.00
Zn1078 Zn    0.55104   0.16666   0.75000   0.00000  Uiso   1.00
C1079  C     0.83381   0.24660   0.74930   0.00000  Uiso   1.00
C1080  C     0.79081   0.31112   0.77575   0.00000  Uiso   1.00
C1081  C     0.83261   0.04260   0.75087   0.00000  Uiso   1.00
C1082  C     0.83428   0.29074   0.74886   0.00000  Uiso   1.00
C1083  C     0.98786   0.14165   0.71947   0.00000  Uiso   1.00
C1084  C     0.67889   0.19176   0.78040   0.00000  Uiso   1.00
C1085  C     0.70294   0.14092   0.71963   0.00000  Uiso   1.00
C1086  C     0.96383   0.19258   0.78017   0.00000  Uiso   1.00
C1087  C     0.80252   0.16703   0.83834   0.00000  Uiso   1.00
C1088  C     0.86398   0.16590   0.66179   0.00000  Uiso   1.00
C1089  C     0.78202   0.16617   0.88982   0.00000  Uiso   1.00
C1090  C     0.83288   0.08673   0.75068   0.00000  Uiso   1.00
C1091  C     0.88239   0.15685   0.61152   0.00000  Uiso   1.00
C1092  C     0.71507   0.17442   0.96561   0.00000  Uiso   1.00
C1093  C     0.92601   0.11056   0.54685   0.00000  Uiso   1.00
C1094  C     0.73226   0.17344   0.91640   0.00000  Uiso   1.00
C1095  C     0.91880   0.12704   0.59118   0.00000  Uiso   1.00
C1096  C     0.81323   0.15730   0.91260   0.00000  Uiso   1.00
C1097  C     0.85399   0.16999   0.58745   0.00000  Uiso   1.00
C1098  C     0.79553   0.15383   0.96153   0.00000  Uiso   1.00
C1099  C     0.85381   0.14829   0.54797   0.00000  Uiso   1.00
C1100  C     0.74728   0.16653   0.98852   0.00000  Uiso   1.00
C1101  C     0.76868   0.17148   0.55774   0.00000  Uiso   1.00
C1102  C     0.89321   0.12033   0.52510   0.00000  Uiso   1.00
C1103  C     0.82596   0.13982   0.98393   0.00000  Uiso   1.00
C1104  C     0.81620   0.15403   0.53047   0.00000  Uiso   1.00
C1105  C     0.73509   0.22173   0.61713   0.00000  Uiso   1.00
C1106  C     0.75313   0.24369   0.65181   0.00000  Uiso   1.00
C1107  C     0.83668   0.05826   0.92733   0.00000  Uiso   1.00
C1108  C     0.83026   0.04761   0.88152   0.00000  Uiso   1.00
C1109  C     0.72471   0.07903   0.67517   0.00000  Uiso   1.00
C1110  C     0.76849   0.05017   0.65369   0.00000  Uiso   1.00
C1111  C     0.94301   0.25489   0.82384   0.00000  Uiso   1.00
C1112  C     0.86492   0.11114   0.96135   0.00000  Uiso   1.00
C1113  C     0.89996   0.28448   0.84494   0.00000  Uiso   1.00
C1114  C     0.73283   0.17231   0.53728   0.00000  Uiso   1.00
C1115  C     0.89843   0.10186   0.98190   0.00000  Uiso   1.00
C1116  C     0.87742   0.31254   0.72252   0.00000  Uiso   1.00
C1117  C     0.78968   0.02074   0.77711   0.00000  Uiso   1.00
C1118  C     0.87616   0.02228   0.72402   0.00000  Uiso   1.00
H1119  H     0.83103   0.19646   0.60141   0.00000  Uiso   1.00
H1120  H     0.68860   0.21078   0.80479   0.00000  Uiso   1.00
H1121  H     0.67247   0.16407   0.59786   0.00000  Uiso   1.00
H1122  H     0.67544   0.21110   0.57052   0.00000  Uiso   1.00
H1123  H     0.92435   0.04498   0.95420   0.00000  Uiso   1.00
H1124  H     0.95876   0.08602   0.92474   0.00000  Uiso   1.00
H1125  H     0.69473   0.21902   0.63546   0.00000  Uiso   1.00
H1126  H     0.74388   0.24245   0.58586   0.00000  Uiso   1.00
H1127  H     0.79123   0.25518   0.63358   0.00000  Uiso   1.00
H1128  H     0.72965   0.27117   0.66769   0.00000  Uiso   1.00
H1129  H     0.75128   0.22229   0.68056   0.00000  Uiso   1.00
H1130  H     0.85200   0.15408   0.89195   0.00000  Uiso   1.00
H1131  H     0.79983   0.06593   0.95448   0.00000  Uiso   1.00
H1132  H     0.85085   0.03027   0.93902   0.00000  Uiso   1.00
H1133  H     0.86641   0.04208   0.85260   0.00000  Uiso   1.00
H1134  H     0.80732   0.01905   0.88623   0.00000  Uiso   1.00
H1135  H     0.81201   0.07376   0.87133   0.00000  Uiso   1.00
H1136  H     0.91527   0.27674   0.66585   0.00000  Uiso   1.00
H1137  H     0.95049   0.31199   0.67901   0.00000  Uiso   1.00
H1138  H     0.73582   0.03219   0.84078   0.00000  Uiso   1.00
H1139  H     0.71783   0.03287   0.79471   0.00000  Uiso   1.00
H1140  H     0.70925   0.08447   0.64794   0.00000  Uiso   1.00
H1141  H     0.94017   0.11536   0.61021   0.00000  Uiso   1.00
H1142  H     0.69721   0.06311   0.70641   0.00000  Uiso   1.00
H1143  H     0.78470   0.04350   0.68003   0.00000  Uiso   1.00
H1144  H     0.75669   0.02025   0.64261   0.00000  Uiso   1.00
H1145  H     0.79672   0.06509   0.62235   0.00000  Uiso   1.00
H1146  H     0.97097   0.27039   0.79255   0.00000  Uiso   1.00
H1147  H     0.95816   0.24925   0.85127   0.00000  Uiso   1.00
H1148  H     0.87080   0.26975   0.87573   0.00000  Uiso   1.00
H1149  H     0.91241   0.31366   0.85687   0.00000  Uiso   1.00
H1150  H     0.88476   0.29231   0.81813   0.00000  Uiso   1.00
H1151  H     0.70723   0.18005   0.89927   0.00000  Uiso   1.00
H1152  H     0.67712   0.18256   0.98532   0.00000  Uiso   1.00
H1153  H     0.95533   0.08831   0.53119   0.00000  Uiso   1.00
H1154  H     0.90874   0.03999   0.70358   0.00000  Uiso   1.00
H1155  H     0.75802   0.29371   0.79633   0.00000  Uiso   1.00
H1156  H     0.97830   0.12274   0.69489   0.00000  Uiso   1.00
N1157  N     0.71426   0.16668   0.75001   0.00000  Uiso   1.00
N1158  N     0.95241   0.16666   0.74999   0.00000  Uiso   1.00
N1159  N     0.68195   0.17905   0.56542   0.00000  Uiso   1.00
N1160  N     0.93851   0.07411   0.95829   0.00000  Uiso   1.00
N1161  N     0.92151   0.29092   0.69390   0.00000  Uiso   1.00
N1162  N     0.74566   0.04202   0.80593   0.00000  Uiso   1.00
O1163  O     0.79512   0.22775   0.75000   0.00000  Uiso   1.00
O1164  O     0.87073   0.09150   0.91903   0.00000  Uiso   1.00
O1165  O     0.74079   0.11722   0.68786   0.00000  Uiso   1.00
O1166  O     0.92625   0.21692   0.81137   0.00000  Uiso   1.00
O1167  O     0.87154   0.10558   0.74999   0.00000  Uiso   1.00
O1168  O     0.87157   0.22774   0.75000   0.00000  Uiso   1.00
O1169  O     0.79510   0.10559   0.75000   0.00000  Uiso   1.00
O1170  O     0.77328   0.16667   0.81612   0.00000  Uiso   1.00
O1171  O     0.89339   0.16666   0.68387   0.00000  Uiso   1.00
O1172  O     0.84972   0.16666   0.81612   0.00000  Uiso   1.00
O1173  O     0.81695   0.16667   0.68388   0.00000  Uiso   1.00
O1174  O     0.75523   0.18087   0.60562   0.00000  Uiso   1.00
Zn1175 Zn    0.78229   0.16667   0.75000   0.00000  Uiso   1.00
Zn1176 Zn    0.88438   0.16666   0.75000   0.00000  Uiso   1.00
C1177  C     0.16715   0.57994   0.74930   0.00000  Uiso   1.00
C1178  C     0.12414   0.64446   0.77575   0.00000  Uiso   1.00
C1179  C     0.16595   0.37594   0.75087   0.00000  Uiso   1.00
C1180  C     0.16762   0.62407   0.74886   0.00000  Uiso   1.00
C1181  C     0.32119   0.47498   0.71947   0.00000  Uiso   1.00
C1182  C     0.01222   0.52510   0.78040   0.00000  Uiso   1.00
C1183  C     0.03628   0.47425   0.71963   0.00000  Uiso   1.00
C1184  C     0.29716   0.52592   0.78017   0.00000  Uiso   1.00
C1185  C     0.13585   0.50036   0.83834   0.00000  Uiso   1.00
C1186  C     0.19732   0.49924   0.66179   0.00000  Uiso   1.00
C1187  C     0.11535   0.49951   0.88982   0.00000  Uiso   1.00
C1188  C     0.16621   0.42006   0.75068   0.00000  Uiso   1.00
C1189  C     0.21573   0.49018   0.61152   0.00000  Uiso   1.00
C1190  C     0.04840   0.50775   0.96561   0.00000  Uiso   1.00
C1191  C     0.25935   0.44390   0.54685   0.00000  Uiso   1.00
C1192  C     0.06559   0.50678   0.91640   0.00000  Uiso   1.00
C1193  C     0.25213   0.46037   0.59118   0.00000  Uiso   1.00
C1194  C     0.14656   0.49063   0.91260   0.00000  Uiso   1.00
C1195  C     0.18732   0.50332   0.58745   0.00000  Uiso   1.00
C1196  C     0.12886   0.48717   0.96153   0.00000  Uiso   1.00
C1197  C     0.18714   0.48162   0.54797   0.00000  Uiso   1.00
C1198  C     0.08062   0.49987   0.98852   0.00000  Uiso   1.00
C1199  C     0.10201   0.50482   0.55774   0.00000  Uiso   1.00
C1200  C     0.22654   0.45366   0.52510   0.00000  Uiso   1.00
C1201  C     0.15929   0.47315   0.98393   0.00000  Uiso   1.00
C1202  C     0.14953   0.48736   0.53047   0.00000  Uiso   1.00
C1203  C     0.06842   0.55506   0.61713   0.00000  Uiso   1.00
C1204  C     0.08647   0.57702   0.65181   0.00000  Uiso   1.00
C1205  C     0.17001   0.39160   0.92733   0.00000  Uiso   1.00
C1206  C     0.16359   0.38094   0.88152   0.00000  Uiso   1.00
C1207  C     0.05805   0.41237   0.67517   0.00000  Uiso   1.00
C1208  C     0.10183   0.38351   0.65369   0.00000  Uiso   1.00
C1209  C     0.27634   0.58822   0.82384   0.00000  Uiso   1.00
C1210  C     0.19826   0.44448   0.96135   0.00000  Uiso   1.00
C1211  C     0.23329   0.61781   0.84494   0.00000  Uiso   1.00
C1212  C     0.06616   0.50564   0.53728   0.00000  Uiso   1.00
C1213  C     0.23176   0.43519   0.98190   0.00000  Uiso   1.00
C1214  C     0.21075   0.64588   0.72252   0.00000  Uiso   1.00
C1215  C     0.12301   0.35408   0.77711   0.00000  Uiso   1.00
C1216  C     0.20949   0.35561   0.72402   0.00000  Uiso   1.00
H1217  H     0.16436   0.52979   0.60141   0.00000  Uiso   1.00
H1218  H     0.02193   0.54411   0.80479   0.00000  Uiso   1.00
H1219  H     0.00580   0.49740   0.59786   0.00000  Uiso   1.00
H1220  H     0.00877   0.54443   0.57052   0.00000  Uiso   1.00
H1221  H     0.25768   0.37831   0.95420   0.00000  Uiso   1.00
H1222  H     0.29209   0.41935   0.92474   0.00000  Uiso   1.00
H1223  H     0.02806   0.55236   0.63546   0.00000  Uiso   1.00
H1224  H     0.07721   0.57578   0.58586   0.00000  Uiso   1.00
H1225  H     0.12456   0.58852   0.63358   0.00000  Uiso   1.00
H1226  H     0.06298   0.60450   0.66769   0.00000  Uiso   1.00
H1227  H     0.08461   0.55562   0.68056   0.00000  Uiso   1.00
H1228  H     0.18534   0.48741   0.89195   0.00000  Uiso   1.00
H1229  H     0.13316   0.39926   0.95448   0.00000  Uiso   1.00
H1230  H     0.18418   0.36361   0.93902   0.00000  Uiso   1.00
H1231  H     0.19974   0.37541   0.85260   0.00000  Uiso   1.00
H1232  H     0.14065   0.35239   0.88623   0.00000  Uiso   1.00
H1233  H     0.14535   0.40710   0.87133   0.00000  Uiso   1.00
H1234  H     0.24861   0.61007   0.66585   0.00000  Uiso   1.00
H1235  H     0.28382   0.64533   0.67901   0.00000  Uiso   1.00
H1236  H     0.06916   0.36552   0.84078   0.00000  Uiso   1.00
H1237  H     0.05116   0.36621   0.79471   0.00000  Uiso   1.00
H1238  H     0.04258   0.41780   0.64794   0.00000  Uiso   1.00
H1239  H     0.27350   0.44870   0.61021   0.00000  Uiso   1.00
H1240  H     0.03055   0.39645   0.70641   0.00000  Uiso   1.00
H1241  H     0.11803   0.37683   0.68003   0.00000  Uiso   1.00
H1242  H     0.09002   0.35359   0.64261   0.00000  Uiso   1.00
H1243  H     0.13005   0.39843   0.62235   0.00000  Uiso   1.00
H1244  H     0.30430   0.60372   0.79255   0.00000  Uiso   1.00
H1245  H     0.29150   0.58259   0.85127   0.00000  Uiso   1.00
H1246  H     0.20413   0.60309   0.87573   0.00000  Uiso   1.00
H1247  H     0.24575   0.64699   0.85687   0.00000  Uiso   1.00
H1248  H     0.21810   0.62565   0.81813   0.00000  Uiso   1.00
H1249  H     0.04056   0.51338   0.89927   0.00000  Uiso   1.00
H1250  H     0.01045   0.51589   0.98532   0.00000  Uiso   1.00
H1251  H     0.28867   0.42165   0.53119   0.00000  Uiso   1.00
H1252  H     0.24207   0.37333   0.70358   0.00000  Uiso   1.00
H1253  H     0.09135   0.62704   0.79633   0.00000  Uiso   1.00
H1254  H     0.31163   0.45607   0.69489   0.00000  Uiso   1.00
N1255  N     0.04759   0.50001   0.75001   0.00000  Uiso   1.00
N1256  N     0.28574   0.49999   0.74999   0.00000  Uiso   1.00
N1257  N     0.01528   0.51238   0.56542   0.00000  Uiso   1.00
N1258  N     0.27184   0.40745   0.95829   0.00000  Uiso   1.00
N1259  N     0.25484   0.62425   0.69390   0.00000  Uiso   1.00
N1260  N     0.07899   0.37536   0.80593   0.00000  Uiso   1.00
O1261  O     0.12846   0.56108   0.75000   0.00000  Uiso   1.00
O1262  O     0.20407   0.42483   0.91903   0.00000  Uiso   1.00
O1263  O     0.07412   0.45055   0.68786   0.00000  Uiso   1.00
O1264  O     0.25959   0.55026   0.81137   0.00000  Uiso   1.00
O1265  O     0.20488   0.43892   0.74999   0.00000  Uiso   1.00
O1266  O     0.20490   0.56107   0.75000   0.00000  Uiso   1.00
O1267  O     0.12843   0.43893   0.75000   0.00000  Uiso   1.00
O1268  O     0.10661   0.50001   0.81612   0.00000  Uiso   1.00
O1269  O     0.22672   0.49999   0.68387   0.00000  Uiso   1.00
O1270  O     0.18305   0.50000   0.81612   0.00000  Uiso   1.00
O1271  O     0.15028   0.50000   0.68388   0.00000  Uiso   1.00
O1272  O     0.08856   0.51420   0.60562   0.00000  Uiso   1.00
Zn1273 Zn    0.11562   0.50001   0.75000   0.00000  Uiso   1.00
Zn1274 Zn    0.21771   0.49999   0.75000   0.00000  Uiso   1.00
C1275  C     0.50048   0.57994   0.74930   0.00000  Uiso   1.00
C1276  C     0.45747   0.64446   0.77575   0.00000  Uiso   1.00
C1277  C     0.49928   0.37594   0.75087   0.00000  Uiso   1.00
C1278  C     0.50095   0.62407   0.74886   0.00000  Uiso   1.00
C1279  C     0.65452   0.47498   0.71947   0.00000  Uiso   1.00
C1280  C     0.34556   0.52510   0.78040   0.00000  Uiso   1.00
C1281  C     0.36961   0.47425   0.71963   0.00000  Uiso   1.00
C1282  C     0.63050   0.52592   0.78017   0.00000  Uiso   1.00
C1283  C     0.46919   0.50036   0.83834   0.00000  Uiso   1.00
C1284  C     0.53065   0.49924   0.66179   0.00000  Uiso   1.00
C1285  C     0.44869   0.49951   0.88982   0.00000  Uiso   1.00
C1286  C     0.49955   0.42006   0.75068   0.00000  Uiso   1.00
C1287  C     0.54906   0.49018   0.61152   0.00000  Uiso   1.00
C1288  C     0.38173   0.50775   0.96561   0.00000  Uiso   1.00
C1289  C     0.59268   0.44390   0.54685   0.00000  Uiso   1.00
C1290  C     0.39892   0.50678   0.91640   0.00000  Uiso   1.00
C1291  C     0.58547   0.46037   0.59118   0.00000  Uiso   1.00
C1292  C     0.47989   0.49063   0.91260   0.00000  Uiso   1.00
C1293  C     0.52065   0.50332   0.58745   0.00000  Uiso   1.00
C1294  C     0.46220   0.48717   0.96153   0.00000  Uiso   1.00
C1295  C     0.52048   0.48162   0.54797   0.00000  Uiso   1.00
C1296  C     0.41395   0.49987   0.98852   0.00000  Uiso   1.00
C1297  C     0.43534   0.50482   0.55774   0.00000  Uiso   1.00
C1298  C     0.55988   0.45366   0.52510   0.00000  Uiso   1.00
C1299  C     0.49262   0.47315   0.98393   0.00000  Uiso   1.00
C1300  C     0.48287   0.48736   0.53047   0.00000  Uiso   1.00
C1301  C     0.40176   0.55506   0.61713   0.00000  Uiso   1.00
C1302  C     0.41980   0.57702   0.65181   0.00000  Uiso   1.00
C1303  C     0.50335   0.39160   0.92733   0.00000  Uiso   1.00
C1304  C     0.49693   0.38094   0.88152   0.00000  Uiso   1.00
C1305  C     0.39138   0.41237   0.67517   0.00000  Uiso   1.00
C1306  C     0.43516   0.38351   0.65369   0.00000  Uiso   1.00
C1307  C     0.60968   0.58822   0.82384   0.00000  Uiso   1.00
C1308  C     0.53159   0.44448   0.96135   0.00000  Uiso   1.00
C1309  C     0.56662   0.61781   0.84494   0.00000  Uiso   1.00
C1310  C     0.39950   0.50564   0.53728   0.00000  Uiso   1.00
C1311  C     0.56510   0.43519   0.98190   0.00000  Uiso   1.00
C1312  C     0.54408   0.64588   0.72252   0.00000  Uiso   1.00
C1313  C     0.45634   0.35408   0.77711   0.00000  Uiso   1.00
C1314  C     0.54283   0.35561   0.72402   0.00000  Uiso   1.00
H1315  H     0.49770   0.52979   0.60141   0.00000  Uiso   1.00
H1316  H     0.35526   0.54411   0.80479   0.00000  Uiso   1.00
H1317  H     0.33913   0.49740   0.59786   0.00000  Uiso   1.00
H1318  H     0.34210   0.54443   0.57052   0.00000  Uiso   1.00
H1319  H     0.59102   0.37831   0.95420   0.00000  Uiso   1.00
H1320  H     0.62542   0.41935   0.92474   0.00000  Uiso   1.00
H1321  H     0.36139   0.55236   0.63546   0.00000  Uiso   1.00
H1322  H     0.41055   0.57578   0.58586   0.00000  Uiso   1.00
H1323  H     0.45789   0.58852   0.63358   0.00000  Uiso   1.00
H1324  H     0.39632   0.60450   0.66769   0.00000  Uiso   1.00
H1325  H     0.41795   0.55562   0.68056   0.00000  Uiso   1.00
H1326  H     0.51867   0.48741   0.89195   0.00000  Uiso   1.00
H1327  H     0.46649   0.39926   0.95448   0.00000  Uiso   1.00
H1328  H     0.51751   0.36361   0.93902   0.00000  Uiso   1.00
H1329  H     0.53308   0.37541   0.85260   0.00000  Uiso   1.00
H1330  H     0.47399   0.35239   0.88623   0.00000  Uiso   1.00
H1331  H     0.47868   0.40710   0.87133   0.00000  Uiso   1.00
H1332  H     0.58194   0.61007   0.66585   0.00000  Uiso   1.00
H1333  H     0.61716   0.64533   0.67901   0.00000  Uiso   1.00
H1334  H     0.40249   0.36552   0.84078   0.00000  Uiso   1.00
H1335  H     0.38450   0.36621   0.79471   0.00000  Uiso   1.00
H1336  H     0.37591   0.41780   0.64794   0.00000  Uiso   1.00
H1337  H     0.60684   0.44870   0.61021   0.00000  Uiso   1.00
H1338  H     0.36388   0.39645   0.70641   0.00000  Uiso   1.00
H1339  H     0.45137   0.37683   0.68003   0.00000  Uiso   1.00
H1340  H     0.42335   0.35359   0.64261   0.00000  Uiso   1.00
H1341  H     0.46339   0.39843   0.62235   0.00000  Uiso   1.00
H1342  H     0.63763   0.60372   0.79255   0.00000  Uiso   1.00
H1343  H     0.62483   0.58259   0.85127   0.00000  Uiso   1.00
H1344  H     0.53746   0.60309   0.87573   0.00000  Uiso   1.00
H1345  H     0.57908   0.64699   0.85687   0.00000  Uiso   1.00
H1346  H     0.55143   0.62565   0.81813   0.00000  Uiso   1.00
H1347  H     0.37389   0.51338   0.89927   0.00000  Uiso   1.00
H1348  H     0.34379   0.51589   0.98532   0.00000  Uiso   1.00
H1349  H     0.62200   0.42165   0.53119   0.00000  Uiso   1.00
H1350  H     0.57541   0.37333   0.70358   0.00000  Uiso   1.00
H1351  H     0.42468   0.62704   0.79633   0.00000  Uiso   1.00
H1352  H     0.64497   0.45607   0.69489   0.00000  Uiso   1.00
N1353  N     0.38093   0.50001   0.75001   0.00000  Uiso   1.00
N1354  N     0.61907   0.49999   0.74999   0.00000  Uiso   1.00
N1355  N     0.34861   0.51238   0.56542   0.00000  Uiso   1.00
N1356  N     0.60517   0.40745   0.95829   0.00000  Uiso   1.00
N1357  N     0.58818   0.62425   0.69390   0.00000  Uiso   1.00
N1358  N     0.41233   0.37536   0.80593   0.00000  Uiso   1.00
O1359  O     0.46179   0.56108   0.75000   0.00000  Uiso   1.00
O1360  O     0.53740   0.42483   0.91903   0.00000  Uiso   1.00
O1361  O     0.40745   0.45055   0.68786   0.00000  Uiso   1.00
O1362  O     0.59292   0.55026   0.81137   0.00000  Uiso   1.00
O1363  O     0.53821   0.43892   0.74999   0.00000  Uiso   1.00
O1364  O     0.53823   0.56107   0.75000   0.00000  Uiso   1.00
O1365  O     0.46177   0.43893   0.75000   0.00000  Uiso   1.00
O1366  O     0.43994   0.50001   0.81612   0.00000  Uiso   1.00
O1367  O     0.56006   0.49999   0.68387   0.00000  Uiso   1.00
O1368  O     0.51639   0.50000   0.81612   0.00000  Uiso   1.00
O1369  O     0.48361   0.50000   0.68388   0.00000  Uiso   1.00
O1370  O     0.42190   0.51420   0.60562   0.00000  Uiso   1.00
Zn1371 Zn    0.44896   0.50001   0.75000   0.00000  Uiso   1.00
Zn1372 Zn    0.55104   0.49999   0.75000   0.00000  Uiso   1.00
C1373  C     0.83381   0.57994   0.74930   0.00000  Uiso   1.00
C1374  C     0.79081   0.64446   0.77575   0.00000  Uiso   1.00
C1375  C     0.83261   0.37594   0.75087   0.00000  Uiso   1.00
C1376  C     0.83428   0.62407   0.74886   0.00000  Uiso   1.00
C1377  C     0.98786   0.47498   0.71947   0.00000  Uiso   1.00
C1378  C     0.67889   0.52510   0.78040   0.00000  Uiso   1.00
C1379  C     0.70294   0.47425   0.71963   0.00000  Uiso   1.00
C1380  C     0.96383   0.52592   0.78017   0.00000  Uiso   1.00
C1381  C     0.80252   0.50036   0.83834   0.00000  Uiso   1.00
C1382  C     0.86398   0.49924   0.66179   0.00000  Uiso   1.00
C1383  C     0.78202   0.49951   0.88982   0.00000  Uiso   1.00
C1384  C     0.83288   0.42006   0.75068   0.00000  Uiso   1.00
C1385  C     0.88239   0.49018   0.61152   0.00000  Uiso   1.00
C1386  C     0.71507   0.50775   0.96561   0.00000  Uiso   1.00
C1387  C     0.92601   0.44390   0.54685   0.00000  Uiso   1.00
C1388  C     0.73226   0.50678   0.91640   0.00000  Uiso   1.00
C1389  C     0.91880   0.46037   0.59118   0.00000  Uiso   1.00
C1390  C     0.81323   0.49063   0.91260   0.00000  Uiso   1.00
C1391  C     0.85399   0.50332   0.58745   0.00000  Uiso   1.00
C1392  C     0.79553   0.48717   0.96153   0.00000  Uiso   1.00
C1393  C     0.85381   0.48162   0.54797   0.00000  Uiso   1.00
C1394  C     0.74728   0.49987   0.98852   0.00000  Uiso   1.00
C1395  C     0.76868   0.50482   0.55774   0.00000  Uiso   1.00
C1396  C     0.89321   0.45366   0.52510   0.00000  Uiso   1.00
C1397  C     0.82596   0.47315   0.98393   0.00000  Uiso   1.00
C1398  C     0.81620   0.48736   0.53047   0.00000  Uiso   1.00
C1399  C     0.73509   0.55506   0.61713   0.00000  Uiso   1.00
C1400  C     0.75313   0.57702   0.65181   0.00000  Uiso   1.00
C1401  C     0.83668   0.39160   0.92733   0.00000  Uiso   1.00
C1402  C     0.83026   0.38094   0.88152   0.00000  Uiso   1.00
C1403  C     0.72471   0.41237   0.67517   0.00000  Uiso   1.00
C1404  C     0.76849   0.38351   0.65369   0.00000  Uiso   1.00
C1405  C     0.94301   0.58822   0.82384   0.00000  Uiso   1.00
C1406  C     0.86492   0.44448   0.96135   0.00000  Uiso   1.00
C1407  C     0.89996   0.61781   0.84494   0.00000  Uiso   1.00
C1408  C     0.73283   0.50564   0.53728   0.00000  Uiso   1.00
C1409  C     0.89843   0.43519   0.98190   0.00000  Uiso   1.00
C1410  C     0.87742   0.64588   0.72252   0.00000  Uiso   1.00
C1411  C     0.78968   0.35408   0.77711   0.00000  Uiso   1.00
C1412  C     0.87616   0.35561   0.72402   0.00000  Uiso   1.00
H1413  H     0.83103   0.52979   0.60141   0.00000  Uiso   1.00
H1414  H     0.68860   0.54411   0.80479   0.00000  Uiso   1.00
H1415  H     0.67247   0.49740   0.59786   0.00000  Uiso   1.00
H1416  H     0.67544   0.54443   0.57052   0.00000  Uiso   1.00
H1417  H     0.92435   0.37831   0.95420   0.00000  Uiso   1.00
H1418  H     0.95876   0.41935   0.92474   0.00000  Uiso   1.00
H1419  H     0.69473   0.55236   0.63546   0.00000  Uiso   1.00
H1420  H     0.74388   0.57578   0.58586   0.00000  Uiso   1.00
H1421  H     0.79123   0.58852   0.63358   0.00000  Uiso   1.00
H1422  H     0.72965   0.60450   0.66769   0.00000  Uiso   1.00
H1423  H     0.75128   0.55562   0.68056   0.00000  Uiso   1.00
H1424  H     0.85200   0.48741   0.89195   0.00000  Uiso   1.00
H1425  H     0.79983   0.39926   0.95448   0.00000  Uiso   1.00
H1426  H     0.85085   0.36361   0.93902   0.00000  Uiso   1.00
H1427  H     0.86641   0.37541   0.85260   0.00000  Uiso   1.00
H1428  H     0.80732   0.35239   0.88623   0.00000  Uiso   1.00
H1429  H     0.81201   0.40710   0.87133   0.00000  Uiso   1.00
H1430  H     0.91527   0.61007   0.66585   0.00000  Uiso   1.00
H1431  H     0.95049   0.64533   0.67901   0.00000  Uiso   1.00
H1432  H     0.73582   0.36552   0.84078   0.00000  Uiso   1.00
H1433  H     0.71783   0.36621   0.79471   0.00000  Uiso   1.00
H1434  H     0.70925   0.41780   0.64794   0.00000  Uiso   1.00
H1435  H     0.94017   0.44870   0.61021   0.00000  Uiso   1.00
H1436  H     0.69721   0.39645   0.70641   0.00000  Uiso   1.00
H1437  H     0.78470   0.37683   0.68003   0.00000  Uiso   1.00
H1438  H     0.75669   0.35359   0.64261   0.00000  Uiso   1.00
H1439  H     0.79672   0.39843   0.62235   0.00000  Uiso   1.00
H1440  H     0.97097   0.60372   0.79255   0.00000  Uiso   1.00
H1441  H     0.95816   0.58259   0.85127   0.00000  Uiso   1.00
H1442  H     0.87080   0.60309   0.87573   0.00000  Uiso   1.00
H1443  H     0.91241   0.64699   0.85687   0.00000  Uiso   1.00
H1444  H     0.88476   0.62565   0.81813   0.00000  Uiso   1.00
H1445  H     0.70723   0.51338   0.89927   0.00000  Uiso   1.00
H1446  H     0.67712   0.51589   0.98532   0.00000  Uiso   1.00
H1447  H     0.95533   0.42165   0.53119   0.00000  Uiso   1.00
H1448  H     0.90874   0.37333   0.70358   0.00000  Uiso   1.00
H1449  H     0.75802   0.62704   0.79633   0.00000  Uiso   1.00
H1450  H     0.97830   0.45607   0.69489   0.00000  Uiso   1.00
N1451  N     0.71426   0.50001   0.75001   0.00000  Uiso   1.00
N1452  N     0.95241   0.49999   0.74999   0.00000  Uiso   1.00
N1453  N     0.68195   0.51238   0.56542   0.00000  Uiso   1.00
N1454  N     0.93851   0.40745   0.95829   0.00000  Uiso   1.00
N1455  N     0.92151   0.62425   0.69390   0.00000  Uiso   1.00
N1456  N     0.74566   0.37536   0.80593   0.00000  Uiso   1.00
O1457  O     0.79512   0.56108   0.75000   0.00000  Uiso   1.00
O1458  O     0.87073   0.42483   0.91903   0.00000  Uiso   1.00
O1459  O     0.74079   0.45055   0.68786   0.00000  Uiso   1.00
O1460  O     0.92625   0.55026   0.81137   0.00000  Uiso   1.00
O1461  O     0.87154   0.43892   0.74999   0.00000  Uiso   1.00
O1462  O     0.87157   0.56107   0.75000   0.00000  Uiso   1.00
O1463  O     0.79510   0.43893   0.75000   0.00000  Uiso   1.00
O1464  O     0.77328   0.50001   0.81612   0.00000  Uiso   1.00
O1465  O     0.89339   0.49999   0.68387   0.00000  Uiso   1.00
O1466  O     0.84972   0.50000   0.81612   0.00000  Uiso   1.00
O1467  O     0.81695   0.50000   0.68388   0.00000  Uiso   1.00
O1468  O     0.75523   0.51420   0.60562   0.00000  Uiso   1.00
Zn1469 Zn    0.78229   0.50001   0.75000   0.00000  Uiso   1.00
Zn1470 Zn    0.88438   0.49999   0.75000   0.00000  Uiso   1.00
C1471  C     0.16715   0.91327   0.74930   0.00000  Uiso   1.00
C1472  C     0.12414   0.97779   0.77575   0.00000  Uiso   1.00
C1473  C     0.16595   0.70927   0.75087   0.00000  Uiso   1.00
C1474  C     0.16762   0.95741   0.74886   0.00000  Uiso   1.00
C1475  C     0.32119   0.80831   0.71947   0.00000  Uiso   1.00
C1476  C     0.01222   0.85843   0.78040   0.00000  Uiso   1.00
C1477  C     0.03628   0.80759   0.71963   0.00000  Uiso   1.00
C1478  C     0.29716   0.85925   0.78017   0.00000  Uiso   1.00
C1479  C     0.13585   0.83369   0.83834   0.00000  Uiso   1.00
C1480  C     0.19732   0.83257   0.66179   0.00000  Uiso   1.00
C1481  C     0.11535   0.83284   0.88982   0.00000  Uiso   1.00
C1482  C     0.16621   0.75340   0.75068   0.00000  Uiso   1.00
C1483  C     0.21573   0.82351   0.61152   0.00000  Uiso   1.00
C1484  C     0.04840   0.84108   0.96561   0.00000  Uiso   1.00
C1485  C     0.25935   0.77723   0.54685   0.00000  Uiso   1.00
C1486  C     0.06559   0.84011   0.91640   0.00000  Uiso   1.00
C1487  C     0.25213   0.79371   0.59118   0.00000  Uiso   1.00
C1488  C     0.14656   0.82396   0.91260   0.00000  Uiso   1.00
C1489  C     0.18732   0.83666   0.58745   0.00000  Uiso   1.00
C1490  C     0.12886   0.82050   0.96153   0.00000  Uiso   1.00
C1491  C     0.18714   0.81495   0.54797   0.00000  Uiso   1.00
C1492  C     0.08062   0.83320   0.98852   0.00000  Uiso   1.00
C1493  C     0.10201   0.83815   0.55774   0.00000  Uiso   1.00
C1494  C     0.22654   0.78700   0.52510   0.00000  Uiso   1.00
C1495  C     0.15929   0.80648   0.98393   0.00000  Uiso   1.00
C1496  C     0.14953   0.82070   0.53047   0.00000  Uiso   1.00
C1497  C     0.06842   0.88840   0.61713   0.00000  Uiso   1.00
C1498  C     0.08647   0.91035   0.65181   0.00000  Uiso   1.00
C1499  C     0.17001   0.72493   0.92733   0.00000  Uiso   1.00
C1500  C     0.16359   0.71427   0.88152   0.00000  Uiso   1.00
C1501  C     0.05805   0.74570   0.67517   0.00000  Uiso   1.00
C1502  C     0.10183   0.71684   0.65369   0.00000  Uiso   1.00
C1503  C     0.27634   0.92156   0.82384   0.00000  Uiso   1.00
C1504  C     0.19826   0.77781   0.96135   0.00000  Uiso   1.00
C1505  C     0.23329   0.95115   0.84494   0.00000  Uiso   1.00
C1506  C     0.06616   0.83898   0.53728   0.00000  Uiso   1.00
C1507  C     0.23176   0.76853   0.98190   0.00000  Uiso   1.00
C1508  C     0.21075   0.97921   0.72252   0.00000  Uiso   1.00
C1509  C     0.12301   0.68741   0.77711   0.00000  Uiso   1.00
C1510  C     0.20949   0.68894   0.72402   0.00000  Uiso   1.00
H1511  H     0.16436   0.86312   0.60141   0.00000  Uiso   1.00
H1512  H     0.02193   0.87745   0.80479   0.00000  Uiso   1.00
H1513  H     0.00580   0.83074   0.59786   0.00000  Uiso   1.00
H1514  H     0.00877   0.87777   0.57052   0.00000  Uiso   1.00
H1515  H     0.25768   0.71164   0.95420   0.00000  Uiso   1.00
H1516  H     0.29209   0.75269   0.92474   0.00000  Uiso   1.00
H1517  H     0.02806   0.88569   0.63546   0.00000  Uiso   1.00
H1518  H     0.07721   0.90912   0.58586   0.00000  Uiso   1.00
H1519  H     0.12456   0.92185   0.63358   0.00000  Uiso   1.00
H1520  H     0.06298   0.93783   0.66769   0.00000  Uiso   1.00
H1521  H     0.08461   0.88896   0.68056   0.00000  Uiso   1.00
H1522  H     0.18534   0.82075   0.89195   0.00000  Uiso   1.00
H1523  H     0.13316   0.73260   0.95448   0.00000  Uiso   1.00
H1524  H     0.18418   0.69694   0.93902   0.00000  Uiso   1.00
H1525  H     0.19974   0.70875   0.85260   0.00000  Uiso   1.00
H1526  H     0.14065   0.68572   0.88623   0.00000  Uiso   1.00
H1527  H     0.14535   0.74043   0.87133   0.00000  Uiso   1.00
H1528  H     0.24861   0.94341   0.66585   0.00000  Uiso   1.00
H1529  H     0.28382   0.97866   0.67901   0.00000  Uiso   1.00
H1530  H     0.06916   0.69885   0.84078   0.00000  Uiso   1.00
H1531  H     0.05116   0.69954   0.79471   0.00000  Uiso   1.00
H1532  H     0.04258   0.75114   0.64794   0.00000  Uiso   1.00
H1533  H     0.27350   0.78203   0.61021   0.00000  Uiso   1.00
H1534  H     0.03055   0.72978   0.70641   0.00000  Uiso   1.00
H1535  H     0.11803   0.71017   0.68003   0.00000  Uiso   1.00
H1536  H     0.09002   0.68692   0.64261   0.00000  Uiso   1.00
H1537  H     0.13005   0.73176   0.62235   0.00000  Uiso   1.00
H1538  H     0.30430   0.93705   0.79255   0.00000  Uiso   1.00
H1539  H     0.29150   0.91592   0.85127   0.00000  Uiso   1.00
H1540  H     0.20413   0.93642   0.87573   0.00000  Uiso   1.00
H1541  H     0.24575   0.98032   0.85687   0.00000  Uiso   1.00
H1542  H     0.21810   0.95898   0.81813   0.00000  Uiso   1.00
H1543  H     0.04056   0.84671   0.89927   0.00000  Uiso   1.00
H1544  H     0.01045   0.84922   0.98532   0.00000  Uiso   1.00
H1545  H     0.28867   0.75498   0.53119   0.00000  Uiso   1.00
H1546  H     0.24207   0.70666   0.70358   0.00000  Uiso   1.00
H1547  H     0.09135   0.96037   0.79633   0.00000  Uiso   1.00
H1548  H     0.31163   0.78941   0.69489   0.00000  Uiso   1.00
N1549  N     0.04759   0.83334   0.75001   0.00000  Uiso   1.00
N1550  N     0.28574   0.83332   0.74999   0.00000  Uiso   1.00
N1551  N     0.01528   0.84571   0.56542   0.00000  Uiso   1.00
N1552  N     0.27184   0.74078   0.95829   0.00000  Uiso   1.00
N1553  N     0.25484   0.95759   0.69390   0.00000  Uiso   1.00
N1554  N     0.07899   0.70869   0.80593   0.00000  Uiso   1.00
O1555  O     0.12846   0.89442   0.75000   0.00000  Uiso   1.00
O1556  O     0.20407   0.75817   0.91903   0.00000  Uiso   1.00
O1557  O     0.07412   0.78389   0.68786   0.00000  Uiso   1.00
O1558  O     0.25959   0.88359   0.81137   0.00000  Uiso   1.00
O1559  O     0.20488   0.77225   0.74999   0.00000  Uiso   1.00
O1560  O     0.20490   0.89441   0.75000   0.00000  Uiso   1.00
O1561  O     0.12843   0.77226   0.75000   0.00000  Uiso   1.00
O1562  O     0.10661   0.83334   0.81612   0.00000  Uiso   1.00
O1563  O     0.22672   0.83333   0.68387   0.00000  Uiso   1.00
O1564  O     0.18305   0.83333   0.81612   0.00000  Uiso   1.00
O1565  O     0.15028   0.83334   0.68388   0.00000  Uiso   1.00
O1566  O     0.08856   0.84753   0.60562   0.00000  Uiso   1.00
Zn1567 Zn    0.11562   0.83334   0.75000   0.00000  Uiso   1.00
Zn1568 Zn    0.21771   0.83333   0.75000   0.00000  Uiso   1.00
C1569  C     0.50048   0.91327   0.74930   0.00000  Uiso   1.00
C1570  C     0.45747   0.97779   0.77575   0.00000  Uiso   1.00
C1571  C     0.49928   0.70927   0.75087   0.00000  Uiso   1.00
C1572  C     0.50095   0.95741   0.74886   0.00000  Uiso   1.00
C1573  C     0.65452   0.80831   0.71947   0.00000  Uiso   1.00
C1574  C     0.34556   0.85843   0.78040   0.00000  Uiso   1.00
C1575  C     0.36961   0.80759   0.71963   0.00000  Uiso   1.00
C1576  C     0.63050   0.85925   0.78017   0.00000  Uiso   1.00
C1577  C     0.46919   0.83369   0.83834   0.00000  Uiso   1.00
C1578  C     0.53065   0.83257   0.66179   0.00000  Uiso   1.00
C1579  C     0.44869   0.83284   0.88982   0.00000  Uiso   1.00
C1580  C     0.49955   0.75340   0.75068   0.00000  Uiso   1.00
C1581  C     0.54906   0.82351   0.61152   0.00000  Uiso   1.00
C1582  C     0.38173   0.84108   0.96561   0.00000  Uiso   1.00
C1583  C     0.59268   0.77723   0.54685   0.00000  Uiso   1.00
C1584  C     0.39892   0.84011   0.91640   0.00000  Uiso   1.00
C1585  C     0.58547   0.79371   0.59118   0.00000  Uiso   1.00
C1586  C     0.47989   0.82396   0.91260   0.00000  Uiso   1.00
C1587  C     0.52065   0.83666   0.58745   0.00000  Uiso   1.00
C1588  C     0.46220   0.82050   0.96153   0.00000  Uiso   1.00
C1589  C     0.52048   0.81495   0.54797   0.00000  Uiso   1.00
C1590  C     0.41395   0.83320   0.98852   0.00000  Uiso   1.00
C1591  C     0.43534   0.83815   0.55774   0.00000  Uiso   1.00
C1592  C     0.55988   0.78700   0.52510   0.00000  Uiso   1.00
C1593  C     0.49262   0.80648   0.98393   0.00000  Uiso   1.00
C1594  C     0.48287   0.82070   0.53047   0.00000  Uiso   1.00
C1595  C     0.40176   0.88840   0.61713   0.00000  Uiso   1.00
C1596  C     0.41980   0.91035   0.65181   0.00000  Uiso   1.00
C1597  C     0.50335   0.72493   0.92733   0.00000  Uiso   1.00
C1598  C     0.49693   0.71427   0.88152   0.00000  Uiso   1.00
C1599  C     0.39138   0.74570   0.67517   0.00000  Uiso   1.00
C1600  C     0.43516   0.71684   0.65369   0.00000  Uiso   1.00
C1601  C     0.60968   0.92156   0.82384   0.00000  Uiso   1.00
C1602  C     0.53159   0.77781   0.96135   0.00000  Uiso   1.00
C1603  C     0.56662   0.95115   0.84494   0.00000  Uiso   1.00
C1604  C     0.39950   0.83898   0.53728   0.00000  Uiso   1.00
C1605  C     0.56510   0.76853   0.98190   0.00000  Uiso   1.00
C1606  C     0.54408   0.97921   0.72252   0.00000  Uiso   1.00
C1607  C     0.45634   0.68741   0.77711   0.00000  Uiso   1.00
C1608  C     0.54283   0.68894   0.72402   0.00000  Uiso   1.00
H1609  H     0.49770   0.86312   0.60141   0.00000  Uiso   1.00
H1610  H     0.35526   0.87745   0.80479   0.00000  Uiso   1.00
H1611  H     0.33913   0.83074   0.59786   0.00000  Uiso   1.00
H1612  H     0.34210   0.87777   0.57052   0.00000  Uiso   1.00
H1613  H     0.59102   0.71164   0.95420   0.00000  Uiso   1.00
H1614  H     0.62542   0.75269   0.92474   0.00000  Uiso   1.00
H1615  H     0.36139   0.88569   0.63546   0.00000  Uiso   1.00
H1616  H     0.41055   0.90912   0.58586   0.00000  Uiso   1.00
H1617  H     0.45789   0.92185   0.63358   0.00000  Uiso   1.00
H1618  H     0.39632   0.93783   0.66769   0.00000  Uiso   1.00
H1619  H     0.41795   0.88896   0.68056   0.00000  Uiso   1.00
H1620  H     0.51867   0.82075   0.89195   0.00000  Uiso   1.00
H1621  H     0.46649   0.73260   0.95448   0.00000  Uiso   1.00
H1622  H     0.51751   0.69694   0.93902   0.00000  Uiso   1.00
H1623  H     0.53308   0.70875   0.85260   0.00000  Uiso   1.00
H1624  H     0.47399   0.68572   0.88623   0.00000  Uiso   1.00
H1625  H     0.47868   0.74043   0.87133   0.00000  Uiso   1.00
H1626  H     0.58194   0.94341   0.66585   0.00000  Uiso   1.00
H1627  H     0.61716   0.97866   0.67901   0.00000  Uiso   1.00
H1628  H     0.40249   0.69885   0.84078   0.00000  Uiso   1.00
H1629  H     0.38450   0.69954   0.79471   0.00000  Uiso   1.00
H1630  H     0.37591   0.75114   0.64794   0.00000  Uiso   1.00
H1631  H     0.60684   0.78203   0.61021   0.00000  Uiso   1.00
H1632  H     0.36388   0.72978   0.70641   0.00000  Uiso   1.00
H1633  H     0.45137   0.71017   0.68003   0.00000  Uiso   1.00
H1634  H     0.42335   0.68692   0.64261   0.00000  Uiso   1.00
H1635  H     0.46339   0.73176   0.62235   0.00000  Uiso   1.00
H1636  H     0.63763   0.93705   0.79255   0.00000  Uiso   1.00
H1637  H     0.62483   0.91592   0.85127   0.00000  Uiso   1.00
H1638  H     0.53746   0.93642   0.87573   0.00000  Uiso   1.00
H1639  H     0.57908   0.98032   0.85687   0.00000  Uiso   1.00
H1640  H     0.55143   0.95898   0.81813   0.00000  Uiso   1.00
H1641  H     0.37389   0.84671   0.89927   0.00000  Uiso   1.00
H1642  H     0.34379   0.84922   0.98532   0.00000  Uiso   1.00
H1643  H     0.62200   0.75498   0.53119   0.00000  Uiso   1.00
H1644  H     0.57541   0.70666   0.70358   0.00000  Uiso   1.00
H1645  H     0.42468   0.96037   0.79633   0.00000  Uiso   1.00
H1646  H     0.64497   0.78941   0.69489   0.00000  Uiso   1.00
N1647  N     0.38093   0.83334   0.75001   0.00000  Uiso   1.00
N1648  N     0.61907   0.83332   0.74999   0.00000  Uiso   1.00
N1649  N     0.34861   0.84571   0.56542   0.00000  Uiso   1.00
N1650  N     0.60517   0.74078   0.95829   0.00000  Uiso   1.00
N1651  N     0.58818   0.95759   0.69390   0.00000  Uiso   1.00
N1652  N     0.41233   0.70869   0.80593   0.00000  Uiso   1.00
O1653  O     0.46179   0.89442   0.75000   0.00000  Uiso   1.00
O1654  O     0.53740   0.75817   0.91903   0.00000  Uiso   1.00
O1655  O     0.40745   0.78389   0.68786   0.00000  Uiso   1.00
O1656  O     0.59292   0.88359   0.81137   0.00000  Uiso   1.00
O1657  O     0.53821   0.77225   0.74999   0.00000  Uiso   1.00
O1658  O     0.53823   0.89441   0.75000   0.00000  Uiso   1.00
O1659  O     0.46177   0.77226   0.75000   0.00000  Uiso   1.00
O1660  O     0.43994   0.83334   0.81612   0.00000  Uiso   1.00
O1661  O     0.56006   0.83333   0.68387   0.00000  Uiso   1.00
O1662  O     0.51639   0.83333   0.81612   0.00000  Uiso   1.00
O1663  O     0.48361   0.83334   0.68388   0.00000  Uiso   1.00
O1664  O     0.42190   0.84753   0.60562   0.00000  Uiso   1.00
Zn1665 Zn    0.44896   0.83334   0.75000   0.00000  Uiso   1.00
Zn1666 Zn    0.55104   0.83333   0.75000   0.00000  Uiso   1.00
C1667  C     0.83381   0.91327   0.74930   0.00000  Uiso   1.00
C1668  C     0.79081   0.97779   0.77575   0.00000  Uiso   1.00
C1669  C     0.83261   0.70927   0.75087   0.00000  Uiso   1.00
C1670  C     0.83428   0.95741   0.74886   0.00000  Uiso   1.00
C1671  C     0.98786   0.80831   0.71947   0.00000  Uiso   1.00
C1672  C     0.67889   0.85843   0.78040   0.00000  Uiso   1.00
C1673  C     0.70294   0.80759   0.71963   0.00000  Uiso   1.00
C1674  C     0.96383   0.85925   0.78017   0.00000  Uiso   1.00
C1675  C     0.80252   0.83369   0.83834   0.00000  Uiso   1.00
C1676  C     0.86398   0.83257   0.66179   0.00000  Uiso   1.00
C1677  C     0.78202   0.83284   0.88982   0.00000  Uiso   1.00
C1678  C     0.83288   0.75340   0.75068   0.00000  Uiso   1.00
C1679  C     0.88239   0.82351   0.61152   0.00000  Uiso   1.00
C1680  C     0.71507   0.84108   0.96561   0.00000  Uiso   1.00
C1681  C     0.92601   0.77723   0.54685   0.00000  Uiso   1.00
C1682  C     0.73226   0.84011   0.91640   0.00000  Uiso   1.00
C1683  C     0.91880   0.79371   0.59118   0.00000  Uiso   1.00
C1684  C     0.81323   0.82396   0.91260   0.00000  Uiso   1.00
C1685  C     0.85399   0.83666   0.58745   0.00000  Uiso   1.00
C1686  C     0.79553   0.82050   0.96153   0.00000  Uiso   1.00
C1687  C     0.85381   0.81495   0.54797   0.00000  Uiso   1.00
C1688  C     0.74728   0.83320   0.98852   0.00000  Uiso   1.00
C1689  C     0.76868   0.83815   0.55774   0.00000  Uiso   1.00
C1690  C     0.89321   0.78700   0.52510   0.00000  Uiso   1.00
C1691  C     0.82596   0.80648   0.98393   0.00000  Uiso   1.00
C1692  C     0.81620   0.82070   0.53047   0.00000  Uiso   1.00
C1693  C     0.73509   0.88840   0.61713   0.00000  Uiso   1.00
C1694  C     0.75313   0.91035   0.65181   0.00000  Uiso   1.00
C1695  C     0.83668   0.72493   0.92733   0.00000  Uiso   1.00
C1696  C     0.83026   0.71427   0.88152   0.00000  Uiso   1.00
C1697  C     0.72471   0.74570   0.67517   0.00000  Uiso   1.00
C1698  C     0.76849   0.71684   0.65369   0.00000  Uiso   1.00
C1699  C     0.94301   0.92156   0.82384   0.00000  Uiso   1.00
C1700  C     0.86492   0.77781   0.96135   0.00000  Uiso   1.00
C1701  C     0.89996   0.95115   0.84494   0.00000  Uiso   1.00
C1702  C     0.73283   0.83898   0.53728   0.00000  Uiso   1.00
C1703  C     0.89843   0.76853   0.98190   0.00000  Uiso   1.00
C1704  C     0.87742   0.97921   0.72252   0.00000  Uiso   1.00
C1705  C     0.78968   0.68741   0.77711   0.00000  Uiso   1.00
C1706  C     0.87616   0.68894   0.72402   0.00000  Uiso   1.00
H1707  H     0.83103   0.86312   0.60141   0.00000  Uiso   1.00
H1708  H     0.68860   0.87745   0.80479   0.00000  Uiso   1.00
H1709  H     0.67247   0.83074   0.59786   0.00000  Uiso   1.00
H1710  H     0.67544   0.87777   0.57052   0.00000  Uiso   1.00
H1711  H     0.92435   0.71164   0.95420   0.00000  Uiso   1.00
H1712  H     0.95876   0.75269   0.92474   0.00000  Uiso   1.00
H1713  H     0.69473   0.88569   0.63546   0.00000  Uiso   1.00
H1714  H     0.74388   0.90912   0.58586   0.00000  Uiso   1.00
H1715  H     0.79123   0.92185   0.63358   0.00000  Uiso   1.00
H1716  H     0.72965   0.93783   0.66769   0.00000  Uiso   1.00
H1717  H     0.75128   0.88896   0.68056   0.00000  Uiso   1.00
H1718  H     0.85200   0.82075   0.89195   0.00000  Uiso   1.00
H1719  H     0.79983   0.73260   0.95448   0.00000  Uiso   1.00
H1720  H     0.85085   0.69694   0.93902   0.00000  Uiso   1.00
H1721  H     0.86641   0.70875   0.85260   0.00000  Uiso   1.00
H1722  H     0.80732   0.68572   0.88623   0.00000  Uiso   1.00
H1723  H     0.81201   0.74043   0.87133   0.00000  Uiso   1.00
H1724  H     0.91527   0.94341   0.66585   0.00000  Uiso   1.00
H1725  H     0.95049   0.97866   0.67901   0.00000  Uiso   1.00
H1726  H     0.73582   0.69885   0.84078   0.00000  Uiso   1.00
H1727  H     0.71783   0.69954   0.79471   0.00000  Uiso   1.00
H1728  H     0.70925   0.75114   0.64794   0.00000  Uiso   1.00
H1729  H     0.94017   0.78203   0.61021   0.00000  Uiso   1.00
H1730  H     0.69721   0.72978   0.70641   0.00000  Uiso   1.00
H1731  H     0.78470   0.71017   0.68003   0.00000  Uiso   1.00
H1732  H     0.75669   0.68692   0.64261   0.00000  Uiso   1.00
H1733  H     0.79672   0.73176   0.62235   0.00000  Uiso   1.00
H1734  H     0.97097   0.93705   0.79255   0.00000  Uiso   1.00
H1735  H     0.95816   0.91592   0.85127   0.00000  Uiso   1.00
H1736  H     0.87080   0.93642   0.87573   0.00000  Uiso   1.00
H1737  H     0.91241   0.98032   0.85687   0.00000  Uiso   1.00
H1738  H     0.88476   0.95898   0.81813   0.00000  Uiso   1.00
H1739  H     0.70723   0.84671   0.89927   0.00000  Uiso   1.00
H1740  H     0.67712   0.84922   0.98532   0.00000  Uiso   1.00
H1741  H     0.95533   0.75498   0.53119   0.00000  Uiso   1.00
H1742  H     0.90874   0.70666   0.70358   0.00000  Uiso   1.00
H1743  H     0.75802   0.96037   0.79633   0.00000  Uiso   1.00
H1744  H     0.97830   0.78941   0.69489   0.00000  Uiso   1.00
N1745  N     0.71426   0.83334   0.75001   0.00000  Uiso   1.00
N1746  N     0.95241   0.83332   0.74999   0.00000  Uiso   1.00
N1747  N     0.68195   0.84571   0.56542   0.00000  Uiso   1.00
N1748  N     0.93851   0.74078   0.95829   0.00000  Uiso   1.00
N1749  N     0.92151   0.95759   0.69390   0.00000  Uiso   1.00
N1750  N     0.74566   0.70869   0.80593   0.00000  Uiso   1.00
O1751  O     0.79512   0.89442   0.75000   0.00000  Uiso   1.00
O1752  O     0.87073   0.75817   0.91903   0.00000  Uiso   1.00
O1753  O     0.74079   0.78389   0.68786   0.00000  Uiso   1.00
O1754  O     0.92625   0.88359   0.81137   0.00000  Uiso   1.00
O1755  O     0.87154   0.77225   0.74999   0.00000  Uiso   1.00
O1756  O     0.87157   0.89441   0.75000   0.00000  Uiso   1.00
O1757  O     0.79510   0.77226   0.75000   0.00000  Uiso   1.00
O1758  O     0.77328   0.83334   0.81612   0.00000  Uiso   1.00
O1759  O     0.89339   0.83333   0.68387   0.00000  Uiso   1.00
O1760  O     0.84972   0.83333   0.81612   0.00000  Uiso   1.00
O1761  O     0.81695   0.83334   0.68388   0.00000  Uiso   1.00
O1762  O     0.75523   0.84753   0.60562   0.00000  Uiso   1.00
Zn1763 Zn    0.78229   0.83334   0.75000   0.00000  Uiso   1.00
Zn1764 Zn    0.88438   0.83333   0.75000   0.00000  Uiso   1.00
loop_
_geom_bond_atom_site_label_1
_geom_bond_atom_site_label_2
_geom_bond_distance
_geom_bond_site_symmetry_2
_ccdc_geom_bond_type
C1     O90     1.281   .     A
C1     O85     1.282   .     A
C1     C4      1.412   .     S
C2     C4      1.395   .     A
C2     H77     1.085   .     S
C2     C333    1.375   .     S
C3     C12     1.412   .     S
C3     C40     1.395   .     A
C3     C39     1.400   .     A
C4     C38     1.404   .     A
C5     N80     1.364   .     A
C5     H78     1.080   .     S
C5     C105    1.434   .     S
C6     H42     1.080   .     S
C6     N79     1.362   .     A
C6     C204    1.435   1_455 S
C7     O87     1.392   .     S
C7     N79     1.371   .     A
C7     C201    1.434   1_455 S
C8     O88     1.392   .     S
C8     N80     1.371   .     A
C8     C104    1.435   .     S
C9     O92     1.291   .     A
C9     C11     1.458   .     S
C9     O94     1.297   .     A
C10    O93     1.292   .     A
C10    C13     1.452   .     S
C10    O95     1.292   .     A
C11    C18     1.388   .     A
C11    C16     1.401   .     A
C12    O91     1.282   .     A
C12    O89     1.282   .     A
C13    C19     1.385   .     A
C13    C17     1.395   .     A
C14    H74     1.083   .     S
C14    C16     1.396   .     A
C14    C22     1.410   .     A
C15    H75     1.083   .     S
C15    C24     1.411   .     A
C15    C17     1.392   .     A
C16    H73     1.083   .     S
C17    H63     1.083   .     S
C18    H52     1.081   .     S
C18    C20     1.392   .     A
C19    C21     1.392   .     A
C19    H41     1.068   .     S
C20    C22     1.407   .     A
C20    C25     1.405   .     A
C21    C26     1.423   .     A
C21    C24     1.423   .     A
C22    C918    1.400   .     S
C23    O96     1.396   .     S
C23    C26     1.444   .     A
C23    C36     1.425   .     A
C24    C919    1.399   1_554 S
C25    C34     1.428   .     A
C25    C908    1.414   .     S
C26    C907    1.414   1_554 S
C27    H48     1.116   .     S
C27    O96     1.425   .     S
C27    H47     1.110   .     S
C27    C28     1.525   .     S
C28    H51     1.107   .     S
C28    H50     1.111   .     S
C28    H49     1.109   .     S
C29    H54     1.112   .     S
C29    C30     1.524   .     S
C29    O86     1.415   .     S
C29    H53     1.115   .     S
C30    H57     1.110   .     S
C30    H56     1.111   .     S
C30    H55     1.110   .     S
C31    H62     1.112   .     S
C31    O87     1.412   .     S
C31    C32     1.521   .     S
C31    H64     1.115   .     S
C32    H66     1.111   .     S
C32    H67     1.111   .     S
C32    H65     1.110   .     S
C33    O88     1.412   .     S
C33    H69     1.112   .     S
C33    C35     1.520   .     S
C33    H68     1.115   .     S
C34    C37     1.399   .     A
C34    O86     1.387   .     S
C35    H70     1.111   .     S
C35    H71     1.110   .     S
C35    H72     1.110   .     S
C36    N81     1.435   .     S
C36    C904    1.400   1_554 S
C37    N82     1.436   .     S
C37    C906    1.399   .     S
C38    N83     1.440   .     S
C38    C334    1.379   .     S
C39    N84     1.434   .     S
C39    C590    1.375   1_545 S
C40    H76     1.085   .     S
C40    C626    1.379   1_545 S
H43    N81     1.045   .     S
H44    N81     1.044   .     S
H45    N82     1.045   .     S
H46    N82     1.046   .     S
H58    N83     1.046   .     S
H59    N83     1.046   .     S
H60    N84     1.046   .     S
H61    N84     1.046   .     S
N79    Zn97    2.012   .     S
N80    Zn98    2.012   .     S
O85    Zn97    1.988   .     S
O89    Zn98    1.988   .     S
O90    Zn98    1.994   .     S
O91    Zn97    1.994   .     S
O92    Zn97    1.942   .     S
O93    Zn98    1.942   .     S
O94    Zn98    1.889   .     S
O95    Zn97    1.889   .     S
C99    O188    1.281   .     A
C99    O183    1.282   .     A
C99    C102    1.412   .     S
C100   C102    1.395   .     A
C100   H175    1.085   .     S
C100   C431    1.375   .     S
C101   C110    1.412   .     S
C101   C138    1.395   .     A
C101   C137    1.400   .     A
C102   C136    1.404   .     A
C103   N178    1.364   .     A
C103   H176    1.080   .     S
C103   C203    1.434   .     S
C104   H140    1.080   .     S
C104   N177    1.362   .     A
C105   O185    1.392   .     S
C105   N177    1.371   .     A
C106   O186    1.392   .     S
C106   N178    1.371   .     A
C106   C202    1.435   .     S
C107   O190    1.291   .     A
C107   C109    1.458   .     S
C107   O192    1.297   .     A
C108   O191    1.292   .     A
C108   C111    1.452   .     S
C108   O193    1.292   .     A
C109   C116    1.388   .     A
C109   C114    1.401   .     A
C110   O189    1.282   .     A
C110   O187    1.282   .     A
C111   C117    1.385   .     A
C111   C115    1.395   .     A
C112   H172    1.083   .     S
C112   C114    1.396   .     A
C112   C120    1.410   .     A
C113   H173    1.083   .     S
C113   C122    1.411   .     A
C113   C115    1.392   .     A
C114   H171    1.083   .     S
C115   H161    1.083   .     S
C116   H150    1.081   .     S
C116   C118    1.392   .     A
C117   C119    1.392   .     A
C117   H139    1.068   .     S
C118   C120    1.407   .     A
C118   C123    1.405   .     A
C119   C124    1.423   .     A
C119   C122    1.423   .     A
C120   C1016   1.400   .     S
C121   O194    1.396   .     S
C121   C124    1.444   .     A
C121   C134    1.425   .     A
C122   C1017   1.399   1_554 S
C123   C132    1.428   .     A
C123   C1006   1.414   .     S
C124   C1005   1.414   1_554 S
C125   H146    1.116   .     S
C125   O194    1.425   .     S
C125   H145    1.110   .     S
C125   C126    1.525   .     S
C126   H149    1.107   .     S
C126   H148    1.111   .     S
C126   H147    1.109   .     S
C127   H152    1.112   .     S
C127   C128    1.524   .     S
C127   O184    1.415   .     S
C127   H151    1.115   .     S
C128   H155    1.110   .     S
C128   H154    1.111   .     S
C128   H153    1.110   .     S
C129   H160    1.112   .     S
C129   O185    1.412   .     S
C129   C130    1.521   .     S
C129   H162    1.115   .     S
C130   H164    1.111   .     S
C130   H165    1.111   .     S
C130   H163    1.110   .     S
C131   O186    1.412   .     S
C131   H167    1.112   .     S
C131   C133    1.520   .     S
C131   H166    1.115   .     S
C132   C135    1.399   .     A
C132   O184    1.387   .     S
C133   H168    1.111   .     S
C133   H169    1.110   .     S
C133   H170    1.110   .     S
C134   N179    1.435   .     S
C134   C1002   1.400   1_554 S
C135   N180    1.436   .     S
C135   C1004   1.399   .     S
C136   N181    1.440   .     S
C136   C432    1.379   .     S
C137   N182    1.434   .     S
C137   C688    1.375   1_545 S
C138   H174    1.085   .     S
C138   C724    1.379   1_545 S
H141   N179    1.045   .     S
H142   N179    1.044   .     S
H143   N180    1.045   .     S
H144   N180    1.046   .     S
H156   N181    1.046   .     S
H157   N181    1.046   .     S
H158   N182    1.046   .     S
H159   N182    1.046   .     S
N177   Zn195   2.012   .     S
N178   Zn196   2.012   .     S
O183   Zn195   1.988   .     S
O187   Zn196   1.988   .     S
O188   Zn196   1.994   .     S
O189   Zn195   1.994   .     S
O190   Zn195   1.942   .     S
O191   Zn196   1.942   .     S
O192   Zn196   1.889   .     S
O193   Zn195   1.889   .     S
C197   O286    1.281   .     A
C197   O281    1.282   .     A
C197   C200    1.412   .     S
C198   C200    1.395   .     A
C198   H273    1.085   .     S
C198   C529    1.375   .     S
C199   C208    1.412   .     S
C199   C236    1.395   .     A
C199   C235    1.400   .     A
C200   C234    1.404   .     A
C201   N276    1.364   .     A
C201   H274    1.080   .     S
C201   C7      1.434   1_655 S
C202   H238    1.080   .     S
C202   N275    1.362   .     A
C203   O283    1.392   .     S
C203   N275    1.371   .     A
C204   O284    1.392   .     S
C204   N276    1.371   .     A
C204   C6      1.435   1_655 S
C205   O288    1.291   .     A
C205   C207    1.458   .     S
C205   O290    1.297   .     A
C206   O289    1.292   .     A
C206   C209    1.452   .     S
C206   O291    1.292   .     A
C207   C214    1.388   .     A
C207   C212    1.401   .     A
C208   O287    1.282   .     A
C208   O285    1.282   .     A
C209   C215    1.385   .     A
C209   C213    1.395   .     A
C210   H270    1.083   .     S
C210   C212    1.396   .     A
C210   C218    1.410   .     A
C211   H271    1.083   .     S
C211   C220    1.411   .     A
C211   C213    1.392   .     A
C212   H269    1.083   .     S
C213   H259    1.083   .     S
C214   H248    1.081   .     S
C214   C216    1.392   .     A
C215   C217    1.392   .     A
C215   H237    1.068   .     S
C216   C218    1.407   .     A
C216   C221    1.405   .     A
C217   C222    1.423   .     A
C217   C220    1.423   .     A
C218   C1114   1.400   .     S
C219   O292    1.396   .     S
C219   C222    1.444   .     A
C219   C232    1.425   .     A
C220   C1115   1.399   1_554 S
C221   C230    1.428   .     A
C221   C1104   1.414   .     S
C222   C1103   1.414   1_554 S
C223   H244    1.116   .     S
C223   O292    1.425   .     S
C223   H243    1.110   .     S
C223   C224    1.525   .     S
C224   H247    1.107   .     S
C224   H246    1.111   .     S
C224   H245    1.109   .     S
C225   H250    1.112   .     S
C225   C226    1.524   .     S
C225   O282    1.415   .     S
C225   H249    1.115   .     S
C226   H253    1.110   .     S
C226   H252    1.111   .     S
C226   H251    1.110   .     S
C227   H258    1.112   .     S
C227   O283    1.412   .     S
C227   C228    1.521   .     S
C227   H260    1.115   .     S
C228   H262    1.111   .     S
C228   H263    1.111   .     S
C228   H261    1.110   .     S
C229   O284    1.412   .     S
C229   H265    1.112   .     S
C229   C231    1.520   .     S
C229   H264    1.115   .     S
C230   C233    1.399   .     A
C230   O282    1.387   .     S
C231   H266    1.111   .     S
C231   H267    1.110   .     S
C231   H268    1.110   .     S
C232   N277    1.435   .     S
C232   C1100   1.400   1_554 S
C233   N278    1.436   .     S
C233   C1102   1.399   .     S
C234   N279    1.440   .     S
C234   C530    1.379   .     S
C235   N280    1.434   .     S
C235   C786    1.375   1_545 S
C236   H272    1.085   .     S
C236   C822    1.379   1_545 S
H239   N277    1.045   .     S
H240   N277    1.044   .     S
H241   N278    1.045   .     S
H242   N278    1.046   .     S
H254   N279    1.046   .     S
H255   N279    1.046   .     S
H256   N280    1.046   .     S
H257   N280    1.046   .     S
N275   Zn293   2.012   .     S
N276   Zn294   2.012   .     S
O281   Zn293   1.988   .     S
O285   Zn294   1.988   .     S
O286   Zn294   1.994   .     S
O287   Zn293   1.994   .     S
O288   Zn293   1.942   .     S
O289   Zn294   1.942   .     S
O290   Zn294   1.889   .     S
O291   Zn293   1.889   .     S
C295   O384    1.281   .     A
C295   O379    1.282   .     A
C295   C298    1.412   .     S
C296   C298    1.395   .     A
C296   H371    1.085   .     S
C296   C627    1.375   .     S
C297   C306    1.412   .     S
C297   C334    1.395   .     A
C297   C333    1.400   .     A
C298   C332    1.404   .     A
C299   N374    1.364   .     A
C299   H372    1.080   .     S
C299   C399    1.434   .     S
C300   H336    1.080   .     S
C300   N373    1.362   .     A
C300   C498    1.435   1_455 S
C301   O381    1.392   .     S
C301   N373    1.371   .     A
C301   C495    1.434   1_455 S
C302   O382    1.392   .     S
C302   N374    1.371   .     A
C302   C398    1.435   .     S
C303   O386    1.291   .     A
C303   C305    1.458   .     S
C303   O388    1.297   .     A
C304   O387    1.292   .     A
C304   C307    1.452   .     S
C304   O389    1.292   .     A
C305   C312    1.388   .     A
C305   C310    1.401   .     A
C306   O385    1.282   .     A
C306   O383    1.282   .     A
C307   C313    1.385   .     A
C307   C311    1.395   .     A
C308   H368    1.083   .     S
C308   C310    1.396   .     A
C308   C316    1.410   .     A
C309   H369    1.083   .     S
C309   C318    1.411   .     A
C309   C311    1.392   .     A
C310   H367    1.083   .     S
C311   H357    1.083   .     S
C312   H346    1.081   .     S
C312   C314    1.392   .     A
C313   C315    1.392   .     A
C313   H335    1.068   .     S
C314   C316    1.407   .     A
C314   C319    1.405   .     A
C315   C320    1.423   .     A
C315   C318    1.423   .     A
C316   C1212   1.400   .     S
C317   O390    1.396   .     S
C317   C320    1.444   .     A
C317   C330    1.425   .     A
C318   C1213   1.399   1_554 S
C319   C328    1.428   .     A
C319   C1202   1.414   .     S
C320   C1201   1.414   1_554 S
C321   H342    1.116   .     S
C321   O390    1.425   .     S
C321   H341    1.110   .     S
C321   C322    1.525   .     S
C322   H345    1.107   .     S
C322   H344    1.111   .     S
C322   H343    1.109   .     S
C323   H348    1.112   .     S
C323   C324    1.524   .     S
C323   O380    1.415   .     S
C323   H347    1.115   .     S
C324   H351    1.110   .     S
C324   H350    1.111   .     S
C324   H349    1.110   .     S
C325   H356    1.112   .     S
C325   O381    1.412   .     S
C325   C326    1.521   .     S
C325   H358    1.115   .     S
C326   H360    1.111   .     S
C326   H361    1.111   .     S
C326   H359    1.110   .     S
C327   O382    1.412   .     S
C327   H363    1.112   .     S
C327   C329    1.520   .     S
C327   H362    1.115   .     S
C328   C331    1.399   .     A
C328   O380    1.387   .     S
C329   H364    1.111   .     S
C329   H365    1.110   .     S
C329   H366    1.110   .     S
C330   N375    1.435   .     S
C330   C1198   1.400   1_554 S
C331   N376    1.436   .     S
C331   C1200   1.399   .     S
C332   N377    1.440   .     S
C332   C628    1.379   .     S
C333   N378    1.434   .     S
C334   H370    1.085   .     S
H337   N375    1.045   .     S
H338   N375    1.044   .     S
H339   N376    1.045   .     S
H340   N376    1.046   .     S
H352   N377    1.046   .     S
H353   N377    1.046   .     S
H354   N378    1.046   .     S
H355   N378    1.046   .     S
N373   Zn391   2.012   .     S
N374   Zn392   2.012   .     S
O379   Zn391   1.988   .     S
O383   Zn392   1.988   .     S
O384   Zn392   1.994   .     S
O385   Zn391   1.994   .     S
O386   Zn391   1.942   .     S
O387   Zn392   1.942   .     S
O388   Zn392   1.889   .     S
O389   Zn391   1.889   .     S
C393   O482    1.281   .     A
C393   O477    1.282   .     A
C393   C396    1.412   .     S
C394   C396    1.395   .     A
C394   H469    1.085   .     S
C394   C725    1.375   .     S
C395   C404    1.412   .     S
C395   C432    1.395   .     A
C395   C431    1.400   .     A
C396   C430    1.404   .     A
C397   N472    1.364   .     A
C397   H470    1.080   .     S
C397   C497    1.434   .     S
C398   H434    1.080   .     S
C398   N471    1.362   .     A
C399   O479    1.392   .     S
C399   N471    1.371   .     A
C400   O480    1.392   .     S
C400   N472    1.371   .     A
C400   C496    1.435   .     S
C401   O484    1.291   .     A
C401   C403    1.458   .     S
C401   O486    1.297   .     A
C402   O485    1.292   .     A
C402   C405    1.452   .     S
C402   O487    1.292   .     A
C403   C410    1.388   .     A
C403   C408    1.401   .     A
C404   O483    1.282   .     A
C404   O481    1.282   .     A
C405   C411    1.385   .     A
C405   C409    1.395   .     A
C406   H466    1.083   .     S
C406   C408    1.396   .     A
C406   C414    1.410   .     A
C407   H467    1.083   .     S
C407   C416    1.411   .     A
C407   C409    1.392   .     A
C408   H465    1.083   .     S
C409   H455    1.083   .     S
C410   H444    1.081   .     S
C410   C412    1.392   .     A
C411   C413    1.392   .     A
C411   H433    1.068   .     S
C412   C414    1.407   .     A
C412   C417    1.405   .     A
C413   C418    1.423   .     A
C413   C416    1.423   .     A
C414   C1310   1.400   .     S
C415   O488    1.396   .     S
C415   C418    1.444   .     A
C415   C428    1.425   .     A
C416   C1311   1.399   1_554 S
C417   C426    1.428   .     A
C417   C1300   1.414   .     S
C418   C1299   1.414   1_554 S
C419   H440    1.116   .     S
C419   O488    1.425   .     S
C419   H439    1.110   .     S
C419   C420    1.525   .     S
C420   H443    1.107   .     S
C420   H442    1.111   .     S
C420   H441    1.109   .     S
C421   H446    1.112   .     S
C421   C422    1.524   .     S
C421   O478    1.415   .     S
C421   H445    1.115   .     S
C422   H449    1.110   .     S
C422   H448    1.111   .     S
C422   H447    1.110   .     S
C423   H454    1.112   .     S
C423   O479    1.412   .     S
C423   C424    1.521   .     S
C423   H456    1.115   .     S
C424   H458    1.111   .     S
C424   H459    1.111   .     S
C424   H457    1.110   .     S
C425   O480    1.412   .     S
C425   H461    1.112   .     S
C425   C427    1.520   .     S
C425   H460    1.115   .     S
C426   C429    1.399   .     A
C426   O478    1.387   .     S
C427   H462    1.111   .     S
C427   H463    1.110   .     S
C427   H464    1.110   .     S
C428   N473    1.435   .     S
C428   C1296   1.400   1_554 S
C429   N474    1.436   .     S
C429   C1298   1.399   .     S
C430   N475    1.440   .     S
C430   C726    1.379   .     S
C431   N476    1.434   .     S
C432   H468    1.085   .     S
H435   N473    1.045   .     S
H436   N473    1.044   .     S
H437   N474    1.045   .     S
H438   N474    1.046   .     S
H450   N475    1.046   .     S
H451   N475    1.046   .     S
H452   N476    1.046   .     S
H453   N476    1.046   .     S
N471   Zn489   2.012   .     S
N472   Zn490   2.012   .     S
O477   Zn489   1.988   .     S
O481   Zn490   1.988   .     S
O482   Zn490   1.994   .     S
O483   Zn489   1.994   .     S
O484   Zn489   1.942   .     S
O485   Zn490   1.942   .     S
O486   Zn490   1.889   .     S
O487   Zn489   1.889   .     S
C491   O580    1.281   .     A
C491   O575    1.282   .     A
C491   C494    1.412   .     S
C492   C494    1.395   .     A
C492   H567    1.085   .     S
C492   C823    1.375   .     S
C493   C502    1.412   .     S
C493   C530    1.395   .     A
C493   C529    1.400   .     A
C494   C528    1.404   .     A
C495   N570    1.364   .     A
C495   H568    1.080   .     S
C495   C301    1.434   1_655 S
C496   H532    1.080   .     S
C496   N569    1.362   .     A
C497   O577    1.392   .     S
C497   N569    1.371   .     A
C498   O578    1.392   .     S
C498   N570    1.371   .     A
C498   C300    1.435   1_655 S
C499   O582    1.291   .     A
C499   C501    1.458   .     S
C499   O584    1.297   .     A
C500   O583    1.292   .     A
C500   C503    1.452   .     S
C500   O585    1.292   .     A
C501   C508    1.388   .     A
C501   C506    1.401   .     A
C502   O581    1.282   .     A
C502   O579    1.282   .     A
C503   C509    1.385   .     A
C503   C507    1.395   .     A
C504   H564    1.083   .     S
C504   C506    1.396   .     A
C504   C512    1.410   .     A
C505   H565    1.083   .     S
C505   C514    1.411   .     A
C505   C507    1.392   .     A
C506   H563    1.083   .     S
C507   H553    1.083   .     S
C508   H542    1.081   .     S
C508   C510    1.392   .     A
C509   C511    1.392   .     A
C509   H531    1.068   .     S
C510   C512    1.407   .     A
C510   C515    1.405   .     A
C511   C516    1.423   .     A
C511   C514    1.423   .     A
C512   C1408   1.400   .     S
C513   O586    1.396   .     S
C513   C516    1.444   .     A
C513   C526    1.425   .     A
C514   C1409   1.399   1_554 S
C515   C524    1.428   .     A
C515   C1398   1.414   .     S
C516   C1397   1.414   1_554 S
C517   H538    1.116   .     S
C517   O586    1.425   .     S
C517   H537    1.110   .     S
C517   C518    1.525   .     S
C518   H541    1.107   .     S
C518   H540    1.111   .     S
C518   H539    1.109   .     S
C519   H544    1.112   .     S
C519   C520    1.524   .     S
C519   O576    1.415   .     S
C519   H543    1.115   .     S
C520   H547    1.110   .     S
C520   H546    1.111   .     S
C520   H545    1.110   .     S
C521   H552    1.112   .     S
C521   O577    1.412   .     S
C521   C522    1.521   .     S
C521   H554    1.115   .     S
C522   H556    1.111   .     S
C522   H557    1.111   .     S
C522   H555    1.110   .     S
C523   O578    1.412   .     S
C523   H559    1.112   .     S
C523   C525    1.520   .     S
C523   H558    1.115   .     S
C524   C527    1.399   .     A
C524   O576    1.387   .     S
C525   H560    1.111   .     S
C525   H561    1.110   .     S
C525   H562    1.110   .     S
C526   N571    1.435   .     S
C526   C1394   1.400   1_554 S
C527   N572    1.436   .     S
C527   C1396   1.399   .     S
C528   N573    1.440   .     S
C528   C824    1.379   .     S
C529   N574    1.434   .     S
C530   H566    1.085   .     S
H533   N571    1.045   .     S
H534   N571    1.044   .     S
H535   N572    1.045   .     S
H536   N572    1.046   .     S
H548   N573    1.046   .     S
H549   N573    1.046   .     S
H550   N574    1.046   .     S
H551   N574    1.046   .     S
N569   Zn587   2.012   .     S
N570   Zn588   2.012   .     S
O575   Zn587   1.988   .     S
O579   Zn588   1.988   .     S
O580   Zn588   1.994   .     S
O581   Zn587   1.994   .     S
O582   Zn587   1.942   .     S
O583   Zn588   1.942   .     S
O584   Zn588   1.889   .     S
O585   Zn587   1.889   .     S
C589   O678    1.281   .     A
C589   O673    1.282   .     A
C589   C592    1.412   .     S
C590   C592    1.395   .     A
C590   H665    1.085   .     S
C590   C39     1.375   1_565 S
C591   C600    1.412   .     S
C591   C628    1.395   .     A
C591   C627    1.400   .     A
C592   C626    1.404   .     A
C593   N668    1.364   .     A
C593   H666    1.080   .     S
C593   C693    1.434   .     S
C594   H630    1.080   .     S
C594   N667    1.362   .     A
C594   C792    1.435   1_455 S
C595   O675    1.392   .     S
C595   N667    1.371   .     A
C595   C789    1.434   1_455 S
C596   O676    1.392   .     S
C596   N668    1.371   .     A
C596   C692    1.435   .     S
C597   O680    1.291   .     A
C597   C599    1.458   .     S
C597   O682    1.297   .     A
C598   O681    1.292   .     A
C598   C601    1.452   .     S
C598   O683    1.292   .     A
C599   C606    1.388   .     A
C599   C604    1.401   .     A
C600   O679    1.282   .     A
C600   O677    1.282   .     A
C601   C607    1.385   .     A
C601   C605    1.395   .     A
C602   H662    1.083   .     S
C602   C604    1.396   .     A
C602   C610    1.410   .     A
C603   H663    1.083   .     S
C603   C612    1.411   .     A
C603   C605    1.392   .     A
C604   H661    1.083   .     S
C605   H651    1.083   .     S
C606   H640    1.081   .     S
C606   C608    1.392   .     A
C607   C609    1.392   .     A
C607   H629    1.068   .     S
C608   C610    1.407   .     A
C608   C613    1.405   .     A
C609   C614    1.423   .     A
C609   C612    1.423   .     A
C610   C1506   1.400   .     S
C611   O684    1.396   .     S
C611   C614    1.444   .     A
C611   C624    1.425   .     A
C612   C1507   1.399   1_554 S
C613   C622    1.428   .     A
C613   C1496   1.414   .     S
C614   C1495   1.414   1_554 S
C615   H636    1.116   .     S
C615   O684    1.425   .     S
C615   H635    1.110   .     S
C615   C616    1.525   .     S
C616   H639    1.107   .     S
C616   H638    1.111   .     S
C616   H637    1.109   .     S
C617   H642    1.112   .     S
C617   C618    1.524   .     S
C617   O674    1.415   .     S
C617   H641    1.115   .     S
C618   H645    1.110   .     S
C618   H644    1.111   .     S
C618   H643    1.110   .     S
C619   H650    1.112   .     S
C619   O675    1.412   .     S
C619   C620    1.521   .     S
C619   H652    1.115   .     S
C620   H654    1.111   .     S
C620   H655    1.111   .     S
C620   H653    1.110   .     S
C621   O676    1.412   .     S
C621   H657    1.112   .     S
C621   C623    1.520   .     S
C621   H656    1.115   .     S
C622   C625    1.399   .     A
C622   O674    1.387   .     S
C623   H658    1.111   .     S
C623   H659    1.110   .     S
C623   H660    1.110   .     S
C624   N669    1.435   .     S
C624   C1492   1.400   1_554 S
C625   N670    1.436   .     S
C625   C1494   1.399   .     S
C626   N671    1.440   .     S
C626   C40     1.379   1_565 S
C627   N672    1.434   .     S
C628   H664    1.085   .     S
H631   N669    1.045   .     S
H632   N669    1.044   .     S
H633   N670    1.045   .     S
H634   N670    1.046   .     S
H646   N671    1.046   .     S
H647   N671    1.046   .     S
H648   N672    1.046   .     S
H649   N672    1.046   .     S
N667   Zn685   2.012   .     S
N668   Zn686   2.012   .     S
O673   Zn685   1.988   .     S
O677   Zn686   1.988   .     S
O678   Zn686   1.994   .     S
O679   Zn685   1.994   .     S
O680   Zn685   1.942   .     S
O681   Zn686   1.942   .     S
O682   Zn686   1.889   .     S
O683   Zn685   1.889   .     S
C687   O776    1.281   .     A
C687   O771    1.282   .     A
C687   C690    1.412   .     S
C688   C690    1.395   .     A
C688   H763    1.085   .     S
C688   C137    1.375   1_565 S
C689   C698    1.412   .     S
C689   C726    1.395   .     A
C689   C725    1.400   .     A
C690   C724    1.404   .     A
C691   N766    1.364   .     A
C691   H764    1.080   .     S
C691   C791    1.434   .     S
C692   H728    1.080   .     S
C692   N765    1.362   .     A
C693   O773    1.392   .     S
C693   N765    1.371   .     A
C694   O774    1.392   .     S
C694   N766    1.371   .     A
C694   C790    1.435   .     S
C695   O778    1.291   .     A
C695   C697    1.458   .     S
C695   O780    1.297   .     A
C696   O779    1.292   .     A
C696   C699    1.452   .     S
C696   O781    1.292   .     A
C697   C704    1.388   .     A
C697   C702    1.401   .     A
C698   O777    1.282   .     A
C698   O775    1.282   .     A
C699   C705    1.385   .     A
C699   C703    1.395   .     A
C700   H760    1.083   .     S
C700   C702    1.396   .     A
C700   C708    1.410   .     A
C701   H761    1.083   .     S
C701   C710    1.411   .     A
C701   C703    1.392   .     A
C702   H759    1.083   .     S
C703   H749    1.083   .     S
C704   H738    1.081   .     S
C704   C706    1.392   .     A
C705   C707    1.392   .     A
C705   H727    1.068   .     S
C706   C708    1.407   .     A
C706   C711    1.405   .     A
C707   C712    1.423   .     A
C707   C710    1.423   .     A
C708   C1604   1.400   .     S
C709   O782    1.396   .     S
C709   C712    1.444   .     A
C709   C722    1.425   .     A
C710   C1605   1.399   1_554 S
C711   C720    1.428   .     A
C711   C1594   1.414   .     S
C712   C1593   1.414   1_554 S
C713   H734    1.116   .     S
C713   O782    1.425   .     S
C713   H733    1.110   .     S
C713   C714    1.525   .     S
C714   H737    1.107   .     S
C714   H736    1.111   .     S
C714   H735    1.109   .     S
C715   H740    1.112   .     S
C715   C716    1.524   .     S
C715   O772    1.415   .     S
C715   H739    1.115   .     S
C716   H743    1.110   .     S
C716   H742    1.111   .     S
C716   H741    1.110   .     S
C717   H748    1.112   .     S
C717   O773    1.412   .     S
C717   C718    1.521   .     S
C717   H750    1.115   .     S
C718   H752    1.111   .     S
C718   H753    1.111   .     S
C718   H751    1.110   .     S
C719   O774    1.412   .     S
C719   H755    1.112   .     S
C719   C721    1.520   .     S
C719   H754    1.115   .     S
C720   C723    1.399   .     A
C720   O772    1.387   .     S
C721   H756    1.111   .     S
C721   H757    1.110   .     S
C721   H758    1.110   .     S
C722   N767    1.435   .     S
C722   C1590   1.400   1_554 S
C723   N768    1.436   .     S
C723   C1592   1.399   .     S
C724   N769    1.440   .     S
C724   C138    1.379   1_565 S
C725   N770    1.434   .     S
C726   H762    1.085   .     S
H729   N767    1.045   .     S
H730   N767    1.044   .     S
H731   N768    1.045   .     S
H732   N768    1.046   .     S
H744   N769    1.046   .     S
H745   N769    1.046   .     S
H746   N770    1.046   .     S
H747   N770    1.046   .     S
N765   Zn783   2.012   .     S
N766   Zn784   2.012   .     S
O771   Zn783   1.988   .     S
O775   Zn784   1.988   .     S
O776   Zn784   1.994   .     S
O777   Zn783   1.994   .     S
O778   Zn783   1.942   .     S
O779   Zn784   1.942   .     S
O780   Zn784   1.889   .     S
O781   Zn783   1.889   .     S
C785   O874    1.281   .     A
C785   O869    1.282   .     A
C785   C788    1.412   .     S
C786   C788    1.395   .     A
C786   H861    1.085   .     S
C786   C235    1.375   1_565 S
C787   C796    1.412   .     S
C787   C824    1.395   .     A
C787   C823    1.400   .     A
C788   C822    1.404   .     A
C789   N864    1.364   .     A
C789   H862    1.080   .     S
C789   C595    1.434   1_655 S
C790   H826    1.080   .     S
C790   N863    1.362   .     A
C791   O871    1.392   .     S
C791   N863    1.371   .     A
C792   O872    1.392   .     S
C792   N864    1.371   .     A
C792   C594    1.435   1_655 S
C793   O876    1.291   .     A
C793   C795    1.458   .     S
C793   O878    1.297   .     A
C794   O877    1.292   .     A
C794   C797    1.452   .     S
C794   O879    1.292   .     A
C795   C802    1.388   .     A
C795   C800    1.401   .     A
C796   O875    1.282   .     A
C796   O873    1.282   .     A
C797   C803    1.385   .     A
C797   C801    1.395   .     A
C798   H858    1.083   .     S
C798   C800    1.396   .     A
C798   C806    1.410   .     A
C799   H859    1.083   .     S
C799   C808    1.411   .     A
C799   C801    1.392   .     A
C800   H857    1.083   .     S
C801   H847    1.083   .     S
C802   H836    1.081   .     S
C802   C804    1.392   .     A
C803   C805    1.392   .     A
C803   H825    1.068   .     S
C804   C806    1.407   .     A
C804   C809    1.405   .     A
C805   C810    1.423   .     A
C805   C808    1.423   .     A
C806   C1702   1.400   .     S
C807   O880    1.396   .     S
C807   C810    1.444   .     A
C807   C820    1.425   .     A
C808   C1703   1.399   1_554 S
C809   C818    1.428   .     A
C809   C1692   1.414   .     S
C810   C1691   1.414   1_554 S
C811   H832    1.116   .     S
C811   O880    1.425   .     S
C811   H831    1.110   .     S
C811   C812    1.525   .     S
C812   H835    1.107   .     S
C812   H834    1.111   .     S
C812   H833    1.109   .     S
C813   H838    1.112   .     S
C813   C814    1.524   .     S
C813   O870    1.415   .     S
C813   H837    1.115   .     S
C814   H841    1.110   .     S
C814   H840    1.111   .     S
C814   H839    1.110   .     S
C815   H846    1.112   .     S
C815   O871    1.412   .     S
C815   C816    1.521   .     S
C815   H848    1.115   .     S
C816   H850    1.111   .     S
C816   H851    1.111   .     S
C816   H849    1.110   .     S
C817   O872    1.412   .     S
C817   H853    1.112   .     S
C817   C819    1.520   .     S
C817   H852    1.115   .     S
C818   C821    1.399   .     A
C818   O870    1.387   .     S
C819   H854    1.111   .     S
C819   H855    1.110   .     S
C819   H856    1.110   .     S
C820   N865    1.435   .     S
C820   C1688   1.400   1_554 S
C821   N866    1.436   .     S
C821   C1690   1.399   .     S
C822   N867    1.440   .     S
C822   C236    1.379   1_565 S
C823   N868    1.434   .     S
C824   H860    1.085   .     S
H827   N865    1.045   .     S
H828   N865    1.044   .     S
H829   N866    1.045   .     S
H830   N866    1.046   .     S
H842   N867    1.046   .     S
H843   N867    1.046   .     S
H844   N868    1.046   .     S
H845   N868    1.046   .     S
N863   Zn881   2.012   .     S
N864   Zn882   2.012   .     S
O869   Zn881   1.988   .     S
O873   Zn882   1.988   .     S
O874   Zn882   1.994   .     S
O875   Zn881   1.994   .     S
O876   Zn881   1.942   .     S
O877   Zn882   1.942   .     S
O878   Zn882   1.889   .     S
O879   Zn881   1.889   .     S
C883   O972    1.281   .     A
C883   O967    1.282   .     A
C883   C886    1.412   .     S
C884   C886    1.395   .     A
C884   H959    1.085   .     S
C884   C1215   1.375   .     S
C885   C894    1.412   .     S
C885   C922    1.395   .     A
C885   C921    1.400   .     A
C886   C920    1.404   .     A
C887   N962    1.364   .     A
C887   H960    1.080   .     S
C887   C987    1.434   .     S
C888   H924    1.080   .     S
C888   N961    1.362   .     A
C888   C1086   1.435   1_455 S
C889   O969    1.392   .     S
C889   N961    1.371   .     A
C889   C1083   1.434   1_455 S
C890   O970    1.392   .     S
C890   N962    1.371   .     A
C890   C986    1.435   .     S
C891   O974    1.291   .     A
C891   C893    1.458   .     S
C891   O976    1.297   .     A
C892   O975    1.292   .     A
C892   C895    1.452   .     S
C892   O977    1.292   .     A
C893   C900    1.388   .     A
C893   C898    1.401   .     A
C894   O973    1.282   .     A
C894   O971    1.282   .     A
C895   C901    1.385   .     A
C895   C899    1.395   .     A
C896   H956    1.083   .     S
C896   C898    1.396   .     A
C896   C904    1.410   .     A
C897   H957    1.083   .     S
C897   C906    1.411   .     A
C897   C899    1.392   .     A
C898   H955    1.083   .     S
C899   H945    1.083   .     S
C900   H934    1.081   .     S
C900   C902    1.392   .     A
C901   C903    1.392   .     A
C901   H923    1.068   .     S
C902   C904    1.407   .     A
C902   C907    1.405   .     A
C903   C908    1.423   .     A
C903   C906    1.423   .     A
C904   C36     1.400   1_556 S
C905   O978    1.396   .     S
C905   C908    1.444   .     A
C905   C918    1.425   .     A
C907   C916    1.428   .     A
C907   C26     1.414   1_556 S
C909   H930    1.116   .     S
C909   O978    1.425   .     S
C909   H929    1.110   .     S
C909   C910    1.525   .     S
C910   H933    1.107   .     S
C910   H932    1.111   .     S
C910   H931    1.109   .     S
C911   H936    1.112   .     S
C911   C912    1.524   .     S
C911   O968    1.415   .     S
C911   H935    1.115   .     S
C912   H939    1.110   .     S
C912   H938    1.111   .     S
C912   H937    1.110   .     S
C913   H944    1.112   .     S
C913   O969    1.412   .     S
C913   C914    1.521   .     S
C913   H946    1.115   .     S
C914   H948    1.111   .     S
C914   H949    1.111   .     S
C914   H947    1.110   .     S
C915   O970    1.412   .     S
C915   H951    1.112   .     S
C915   C917    1.520   .     S
C915   H950    1.115   .     S
C916   C919    1.399   .     A
C916   O968    1.387   .     S
C917   H952    1.111   .     S
C917   H953    1.110   .     S
C917   H954    1.110   .     S
C918   N963    1.435   .     S
C919   N964    1.436   .     S
C919   C24     1.399   1_556 S
C920   N965    1.440   .     S
C920   C1216   1.379   .     S
C921   N966    1.434   .     S
C921   C1472   1.375   1_545 S
C922   H958    1.085   .     S
C922   C1508   1.379   1_545 S
H925   N963    1.045   .     S
H926   N963    1.044   .     S
H927   N964    1.045   .     S
H928   N964    1.046   .     S
H940   N965    1.046   .     S
H941   N965    1.046   .     S
H942   N966    1.046   .     S
H943   N966    1.046   .     S
N961   Zn979   2.012   .     S
N962   Zn980   2.012   .     S
O967   Zn979   1.988   .     S
O971   Zn980   1.988   .     S
O972   Zn980   1.994   .     S
O973   Zn979   1.994   .     S
O974   Zn979   1.942   .     S
O975   Zn980   1.942   .     S
O976   Zn980   1.889   .     S
O977   Zn979   1.889   .     S
C981   O1070   1.281   .     A
C981   O1065   1.282   .     A
C981   C984    1.412   .     S
C982   C984    1.395   .     A
C982   H1057   1.085   .     S
C982   C1313   1.375   .     S
C983   C992    1.412   .     S
C983   C1020   1.395   .     A
C983   C1019   1.400   .     A
C984   C1018   1.404   .     A
C985   N1060   1.364   .     A
C985   H1058   1.080   .     S
C985   C1085   1.434   .     S
C986   H1022   1.080   .     S
C986   N1059   1.362   .     A
C987   O1067   1.392   .     S
C987   N1059   1.371   .     A
C988   O1068   1.392   .     S
C988   N1060   1.371   .     A
C988   C1084   1.435   .     S
C989   O1072   1.291   .     A
C989   C991    1.458   .     S
C989   O1074   1.297   .     A
C990   O1073   1.292   .     A
C990   C993    1.452   .     S
C990   O1075   1.292   .     A
C991   C998    1.388   .     A
C991   C996    1.401   .     A
C992   O1071   1.282   .     A
C992   O1069   1.282   .     A
C993   C999    1.385   .     A
C993   C997    1.395   .     A
C994   H1054   1.083   .     S
C994   C996    1.396   .     A
C994   C1002   1.410   .     A
C995   H1055   1.083   .     S
C995   C1004   1.411   .     A
C995   C997    1.392   .     A
C996   H1053   1.083   .     S
C997   H1043   1.083   .     S
C998   H1032   1.081   .     S
C998   C1000   1.392   .     A
C999   C1001   1.392   .     A
C999   H1021   1.068   .     S
C1000  C1002   1.407   .     A
C1000  C1005   1.405   .     A
C1001  C1006   1.423   .     A
C1001  C1004   1.423   .     A
C1002  C134    1.400   1_556 S
C1003  O1076   1.396   .     S
C1003  C1006   1.444   .     A
C1003  C1016   1.425   .     A
C1005  C1014   1.428   .     A
C1005  C124    1.414   1_556 S
C1007  H1028   1.116   .     S
C1007  O1076   1.425   .     S
C1007  H1027   1.110   .     S
C1007  C1008   1.525   .     S
C1008  H1031   1.107   .     S
C1008  H1030   1.111   .     S
C1008  H1029   1.109   .     S
C1009  H1034   1.112   .     S
C1009  C1010   1.524   .     S
C1009  O1066   1.415   .     S
C1009  H1033   1.115   .     S
C1010  H1037   1.110   .     S
C1010  H1036   1.111   .     S
C1010  H1035   1.110   .     S
C1011  H1042   1.112   .     S
C1011  O1067   1.412   .     S
C1011  C1012   1.521   .     S
C1011  H1044   1.115   .     S
C1012  H1046   1.111   .     S
C1012  H1047   1.111   .     S
C1012  H1045   1.110   .     S
C1013  O1068   1.412   .     S
C1013  H1049   1.112   .     S
C1013  C1015   1.520   .     S
C1013  H1048   1.115   .     S
C1014  C1017   1.399   .     A
C1014  O1066   1.387   .     S
C1015  H1050   1.111   .     S
C1015  H1051   1.110   .     S
C1015  H1052   1.110   .     S
C1016  N1061   1.435   .     S
C1017  N1062   1.436   .     S
C1017  C122    1.399   1_556 S
C1018  N1063   1.440   .     S
C1018  C1314   1.379   .     S
C1019  N1064   1.434   .     S
C1019  C1570   1.375   1_545 S
C1020  H1056   1.085   .     S
C1020  C1606   1.379   1_545 S
H1023  N1061   1.045   .     S
H1024  N1061   1.044   .     S
H1025  N1062   1.045   .     S
H1026  N1062   1.046   .     S
H1038  N1063   1.046   .     S
H1039  N1063   1.046   .     S
H1040  N1064   1.046   .     S
H1041  N1064   1.046   .     S
N1059  Zn1077  2.012   .     S
N1060  Zn1078  2.012   .     S
O1065  Zn1077  1.988   .     S
O1069  Zn1078  1.988   .     S
O1070  Zn1078  1.994   .     S
O1071  Zn1077  1.994   .     S
O1072  Zn1077  1.942   .     S
O1073  Zn1078  1.942   .     S
O1074  Zn1078  1.889   .     S
O1075  Zn1077  1.889   .     S
C1079  O1168   1.281   .     A
C1079  O1163   1.282   .     A
C1079  C1082   1.412   .     S
C1080  C1082   1.395   .     A
C1080  H1155   1.085   .     S
C1080  C1411   1.375   .     S
C1081  C1090   1.412   .     S
C1081  C1118   1.395   .     A
C1081  C1117   1.400   .     A
C1082  C1116   1.404   .     A
C1083  N1158   1.364   .     A
C1083  H1156   1.080   .     S
C1083  C889    1.434   1_655 S
C1084  H1120   1.080   .     S
C1084  N1157   1.362   .     A
C1085  O1165   1.392   .     S
C1085  N1157   1.371   .     A
C1086  O1166   1.392   .     S
C1086  N1158   1.371   .     A
C1086  C888    1.435   1_655 S
C1087  O1170   1.291   .     A
C1087  C1089   1.458   .     S
C1087  O1172   1.297   .     A
C1088  O1171   1.292   .     A
C1088  C1091   1.452   .     S
C1088  O1173   1.292   .     A
C1089  C1096   1.388   .     A
C1089  C1094   1.401   .     A
C1090  O1169   1.282   .     A
C1090  O1167   1.282   .     A
C1091  C1097   1.385   .     A
C1091  C1095   1.395   .     A
C1092  H1152   1.083   .     S
C1092  C1094   1.396   .     A
C1092  C1100   1.410   .     A
C1093  H1153   1.083   .     S
C1093  C1102   1.411   .     A
C1093  C1095   1.392   .     A
C1094  H1151   1.083   .     S
C1095  H1141   1.083   .     S
C1096  H1130   1.081   .     S
C1096  C1098   1.392   .     A
C1097  C1099   1.392   .     A
C1097  H1119   1.068   .     S
C1098  C1100   1.407   .     A
C1098  C1103   1.405   .     A
C1099  C1104   1.423   .     A
C1099  C1102   1.423   .     A
C1100  C232    1.400   1_556 S
C1101  O1174   1.396   .     S
C1101  C1104   1.444   .     A
C1101  C1114   1.425   .     A
C1103  C1112   1.428   .     A
C1103  C222    1.414   1_556 S
C1105  H1126   1.116   .     S
C1105  O1174   1.425   .     S
C1105  H1125   1.110   .     S
C1105  C1106   1.525   .     S
C1106  H1129   1.107   .     S
C1106  H1128   1.111   .     S
C1106  H1127   1.109   .     S
C1107  H1132   1.112   .     S
C1107  C1108   1.524   .     S
C1107  O1164   1.415   .     S
C1107  H1131   1.115   .     S
C1108  H1135   1.110   .     S
C1108  H1134   1.111   .     S
C1108  H1133   1.110   .     S
C1109  H1140   1.112   .     S
C1109  O1165   1.412   .     S
C1109  C1110   1.521   .     S
C1109  H1142   1.115   .     S
C1110  H1144   1.111   .     S
C1110  H1145   1.111   .     S
C1110  H1143   1.110   .     S
C1111  O1166   1.412   .     S
C1111  H1147   1.112   .     S
C1111  C1113   1.520   .     S
C1111  H1146   1.115   .     S
C1112  C1115   1.399   .     A
C1112  O1164   1.387   .     S
C1113  H1148   1.111   .     S
C1113  H1149   1.110   .     S
C1113  H1150   1.110   .     S
C1114  N1159   1.435   .     S
C1115  N1160   1.436   .     S
C1115  C220    1.399   1_556 S
C1116  N1161   1.440   .     S
C1116  C1412   1.379   .     S
C1117  N1162   1.434   .     S
C1117  C1668   1.375   1_545 S
C1118  H1154   1.085   .     S
C1118  C1704   1.379   1_545 S
H1121  N1159   1.045   .     S
H1122  N1159   1.044   .     S
H1123  N1160   1.045   .     S
H1124  N1160   1.046   .     S
H1136  N1161   1.046   .     S
H1137  N1161   1.046   .     S
H1138  N1162   1.046   .     S
H1139  N1162   1.046   .     S
N1157  Zn1175  2.012   .     S
N1158  Zn1176  2.012   .     S
O1163  Zn1175  1.988   .     S
O1167  Zn1176  1.988   .     S
O1168  Zn1176  1.994   .     S
O1169  Zn1175  1.994   .     S
O1170  Zn1175  1.942   .     S
O1171  Zn1176  1.942   .     S
O1172  Zn1176  1.889   .     S
O1173  Zn1175  1.889   .     S
C1177  O1266   1.281   .     A
C1177  O1261   1.282   .     A
C1177  C1180   1.412   .     S
C1178  C1180   1.395   .     A
C1178  H1253   1.085   .     S
C1178  C1509   1.375   .     S
C1179  C1188   1.412   .     S
C1179  C1216   1.395   .     A
C1179  C1215   1.400   .     A
C1180  C1214   1.404   .     A
C1181  N1256   1.364   .     A
C1181  H1254   1.080   .     S
C1181  C1281   1.434   .     S
C1182  H1218   1.080   .     S
C1182  N1255   1.362   .     A
C1182  C1380   1.435   1_455 S
C1183  O1263   1.392   .     S
C1183  N1255   1.371   .     A
C1183  C1377   1.434   1_455 S
C1184  O1264   1.392   .     S
C1184  N1256   1.371   .     A
C1184  C1280   1.435   .     S
C1185  O1268   1.291   .     A
C1185  C1187   1.458   .     S
C1185  O1270   1.297   .     A
C1186  O1269   1.292   .     A
C1186  C1189   1.452   .     S
C1186  O1271   1.292   .     A
C1187  C1194   1.388   .     A
C1187  C1192   1.401   .     A
C1188  O1267   1.282   .     A
C1188  O1265   1.282   .     A
C1189  C1195   1.385   .     A
C1189  C1193   1.395   .     A
C1190  H1250   1.083   .     S
C1190  C1192   1.396   .     A
C1190  C1198   1.410   .     A
C1191  H1251   1.083   .     S
C1191  C1200   1.411   .     A
C1191  C1193   1.392   .     A
C1192  H1249   1.083   .     S
C1193  H1239   1.083   .     S
C1194  H1228   1.081   .     S
C1194  C1196   1.392   .     A
C1195  C1197   1.392   .     A
C1195  H1217   1.068   .     S
C1196  C1198   1.407   .     A
C1196  C1201   1.405   .     A
C1197  C1202   1.423   .     A
C1197  C1200   1.423   .     A
C1198  C330    1.400   1_556 S
C1199  O1272   1.396   .     S
C1199  C1202   1.444   .     A
C1199  C1212   1.425   .     A
C1201  C1210   1.428   .     A
C1201  C320    1.414   1_556 S
C1203  H1224   1.116   .     S
C1203  O1272   1.425   .     S
C1203  H1223   1.110   .     S
C1203  C1204   1.525   .     S
C1204  H1227   1.107   .     S
C1204  H1226   1.111   .     S
C1204  H1225   1.109   .     S
C1205  H1230   1.112   .     S
C1205  C1206   1.524   .     S
C1205  O1262   1.415   .     S
C1205  H1229   1.115   .     S
C1206  H1233   1.110   .     S
C1206  H1232   1.111   .     S
C1206  H1231   1.110   .     S
C1207  H1238   1.112   .     S
C1207  O1263   1.412   .     S
C1207  C1208   1.521   .     S
C1207  H1240   1.115   .     S
C1208  H1242   1.111   .     S
C1208  H1243   1.111   .     S
C1208  H1241   1.110   .     S
C1209  O1264   1.412   .     S
C1209  H1245   1.112   .     S
C1209  C1211   1.520   .     S
C1209  H1244   1.115   .     S
C1210  C1213   1.399   .     A
C1210  O1262   1.387   .     S
C1211  H1246   1.111   .     S
C1211  H1247   1.110   .     S
C1211  H1248   1.110   .     S
C1212  N1257   1.435   .     S
C1213  N1258   1.436   .     S
C1213  C318    1.399   1_556 S
C1214  N1259   1.440   .     S
C1214  C1510   1.379   .     S
C1215  N1260   1.434   .     S
C1216  H1252   1.085   .     S
H1219  N1257   1.045   .     S
H1220  N1257   1.044   .     S
H1221  N1258   1.045   .     S
H1222  N1258   1.046   .     S
H1234  N1259   1.046   .     S
H1235  N1259   1.046   .     S
H1236  N1260   1.046   .     S
H1237  N1260   1.046   .     S
N1255  Zn1273  2.012   .     S
N1256  Zn1274  2.012   .     S
O1261  Zn1273  1.988   .     S
O1265  Zn1274  1.988   .     S
O1266  Zn1274  1.994   .     S
O1267  Zn1273  1.994   .     S
O1268  Zn1273  1.942   .     S
O1269  Zn1274  1.942   .     S
O1270  Zn1274  1.889   .     S
O1271  Zn1273  1.889   .     S
C1275  O1364   1.281   .     A
C1275  O1359   1.282   .     A
C1275  C1278   1.412   .     S
C1276  C1278   1.395   .     A
C1276  H1351   1.085   .     S
C1276  C1607   1.375   .     S
C1277  C1286   1.412   .     S
C1277  C1314   1.395   .     A
C1277  C1313   1.400   .     A
C1278  C1312   1.404   .     A
C1279  N1354   1.364   .     A
C1279  H1352   1.080   .     S
C1279  C1379   1.434   .     S
C1280  H1316   1.080   .     S
C1280  N1353   1.362   .     A
C1281  O1361   1.392   .     S
C1281  N1353   1.371   .     A
C1282  O1362   1.392   .     S
C1282  N1354   1.371   .     A
C1282  C1378   1.435   .     S
C1283  O1366   1.291   .     A
C1283  C1285   1.458   .     S
C1283  O1368   1.297   .     A
C1284  O1367   1.292   .     A
C1284  C1287   1.452   .     S
C1284  O1369   1.292   .     A
C1285  C1292   1.388   .     A
C1285  C1290   1.401   .     A
C1286  O1365   1.282   .     A
C1286  O1363   1.282   .     A
C1287  C1293   1.385   .     A
C1287  C1291   1.395   .     A
C1288  H1348   1.083   .     S
C1288  C1290   1.396   .     A
C1288  C1296   1.410   .     A
C1289  H1349   1.083   .     S
C1289  C1298   1.411   .     A
C1289  C1291   1.392   .     A
C1290  H1347   1.083   .     S
C1291  H1337   1.083   .     S
C1292  H1326   1.081   .     S
C1292  C1294   1.392   .     A
C1293  C1295   1.392   .     A
C1293  H1315   1.068   .     S
C1294  C1296   1.407   .     A
C1294  C1299   1.405   .     A
C1295  C1300   1.423   .     A
C1295  C1298   1.423   .     A
C1296  C428    1.400   1_556 S
C1297  O1370   1.396   .     S
C1297  C1300   1.444   .     A
C1297  C1310   1.425   .     A
C1299  C1308   1.428   .     A
C1299  C418    1.414   1_556 S
C1301  H1322   1.116   .     S
C1301  O1370   1.425   .     S
C1301  H1321   1.110   .     S
C1301  C1302   1.525   .     S
C1302  H1325   1.107   .     S
C1302  H1324   1.111   .     S
C1302  H1323   1.109   .     S
C1303  H1328   1.112   .     S
C1303  C1304   1.524   .     S
C1303  O1360   1.415   .     S
C1303  H1327   1.115   .     S
C1304  H1331   1.110   .     S
C1304  H1330   1.111   .     S
C1304  H1329   1.110   .     S
C1305  H1336   1.112   .     S
C1305  O1361   1.412   .     S
C1305  C1306   1.521   .     S
C1305  H1338   1.115   .     S
C1306  H1340   1.111   .     S
C1306  H1341   1.111   .     S
C1306  H1339   1.110   .     S
C1307  O1362   1.412   .     S
C1307  H1343   1.112   .     S
C1307  C1309   1.520   .     S
C1307  H1342   1.115   .     S
C1308  C1311   1.399   .     A
C1308  O1360   1.387   .     S
C1309  H1344   1.111   .     S
C1309  H1345   1.110   .     S
C1309  H1346   1.110   .     S
C1310  N1355   1.435   .     S
C1311  N1356   1.436   .     S
C1311  C416    1.399   1_556 S
C1312  N1357   1.440   .     S
C1312  C1608   1.379   .     S
C1313  N1358   1.434   .     S
C1314  H1350   1.085   .     S
H1317  N1355   1.045   .     S
H1318  N1355   1.044   .     S
H1319  N1356   1.045   .     S
H1320  N1356   1.046   .     S
H1332  N1357   1.046   .     S
H1333  N1357   1.046   .     S
H1334  N1358   1.046   .     S
H1335  N1358   1.046   .     S
N1353  Zn1371  2.012   .     S
N1354  Zn1372  2.012   .     S
O1359  Zn1371  1.988   .     S
O1363  Zn1372  1.988   .     S
O1364  Zn1372  1.994   .     S
O1365  Zn1371  1.994   .     S
O1366  Zn1371  1.942   .     S
O1367  Zn1372  1.942   .     S
O1368  Zn1372  1.889   .     S
O1369  Zn1371  1.889   .     S
C1373  O1462   1.281   .     A
C1373  O1457   1.282   .     A
C1373  C1376   1.412   .     S
C1374  C1376   1.395   .     A
C1374  H1449   1.085   .     S
C1374  C1705   1.375   .     S
C1375  C1384   1.412   .     S
C1375  C1412   1.395   .     A
C1375  C1411   1.400   .     A
C1376  C1410   1.404   .     A
C1377  N1452   1.364   .     A
C1377  H1450   1.080   .     S
C1377  C1183   1.434   1_655 S
C1378  H1414   1.080   .     S
C1378  N1451   1.362   .     A
C1379  O1459   1.392   .     S
C1379  N1451   1.371   .     A
C1380  O1460   1.392   .     S
C1380  N1452   1.371   .     A
C1380  C1182   1.435   1_655 S
C1381  O1464   1.291   .     A
C1381  C1383   1.458   .     S
C1381  O1466   1.297   .     A
C1382  O1465   1.292   .     A
C1382  C1385   1.452   .     S
C1382  O1467   1.292   .     A
C1383  C1390   1.388   .     A
C1383  C1388   1.401   .     A
C1384  O1463   1.282   .     A
C1384  O1461   1.282   .     A
C1385  C1391   1.385   .     A
C1385  C1389   1.395   .     A
C1386  H1446   1.083   .     S
C1386  C1388   1.396   .     A
C1386  C1394   1.410   .     A
C1387  H1447   1.083   .     S
C1387  C1396   1.411   .     A
C1387  C1389   1.392   .     A
C1388  H1445   1.083   .     S
C1389  H1435   1.083   .     S
C1390  H1424   1.081   .     S
C1390  C1392   1.392   .     A
C1391  C1393   1.392   .     A
C1391  H1413   1.068   .     S
C1392  C1394   1.407   .     A
C1392  C1397   1.405   .     A
C1393  C1398   1.423   .     A
C1393  C1396   1.423   .     A
C1394  C526    1.400   1_556 S
C1395  O1468   1.396   .     S
C1395  C1398   1.444   .     A
C1395  C1408   1.425   .     A
C1397  C1406   1.428   .     A
C1397  C516    1.414   1_556 S
C1399  H1420   1.116   .     S
C1399  O1468   1.425   .     S
C1399  H1419   1.110   .     S
C1399  C1400   1.525   .     S
C1400  H1423   1.107   .     S
C1400  H1422   1.111   .     S
C1400  H1421   1.109   .     S
C1401  H1426   1.112   .     S
C1401  C1402   1.524   .     S
C1401  O1458   1.415   .     S
C1401  H1425   1.115   .     S
C1402  H1429   1.110   .     S
C1402  H1428   1.111   .     S
C1402  H1427   1.110   .     S
C1403  H1434   1.112   .     S
C1403  O1459   1.412   .     S
C1403  C1404   1.521   .     S
C1403  H1436   1.115   .     S
C1404  H1438   1.111   .     S
C1404  H1439   1.111   .     S
C1404  H1437   1.110   .     S
C1405  O1460   1.412   .     S
C1405  H1441   1.112   .     S
C1405  C1407   1.520   .     S
C1405  H1440   1.115   .     S
C1406  C1409   1.399   .     A
C1406  O1458   1.387   .     S
C1407  H1442   1.111   .     S
C1407  H1443   1.110   .     S
C1407  H1444   1.110   .     S
C1408  N1453   1.435   .     S
C1409  N1454   1.436   .     S
C1409  C514    1.399   1_556 S
C1410  N1455   1.440   .     S
C1410  C1706   1.379   .     S
C1411  N1456   1.434   .     S
C1412  H1448   1.085   .     S
H1415  N1453   1.045   .     S
H1416  N1453   1.044   .     S
H1417  N1454   1.045   .     S
H1418  N1454   1.046   .     S
H1430  N1455   1.046   .     S
H1431  N1455   1.046   .     S
H1432  N1456   1.046   .     S
H1433  N1456   1.046   .     S
N1451  Zn1469  2.012   .     S
N1452  Zn1470  2.012   .     S
O1457  Zn1469  1.988   .     S
O1461  Zn1470  1.988   .     S
O1462  Zn1470  1.994   .     S
O1463  Zn1469  1.994   .     S
O1464  Zn1469  1.942   .     S
O1465  Zn1470  1.942   .     S
O1466  Zn1470  1.889   .     S
O1467  Zn1469  1.889   .     S
C1471  O1560   1.281   .     A
C1471  O1555   1.282   .     A
C1471  C1474   1.412   .     S
C1472  C1474   1.395   .     A
C1472  H1547   1.085   .     S
C1472  C921    1.375   1_565 S
C1473  C1482   1.412   .     S
C1473  C1510   1.395   .     A
C1473  C1509   1.400   .     A
C1474  C1508   1.404   .     A
C1475  N1550   1.364   .     A
C1475  H1548   1.080   .     S
C1475  C1575   1.434   .     S
C1476  H1512   1.080   .     S
C1476  N1549   1.362   .     A
C1476  C1674   1.435   1_455 S
C1477  O1557   1.392   .     S
C1477  N1549   1.371   .     A
C1477  C1671   1.434   1_455 S
C1478  O1558   1.392   .     S
C1478  N1550   1.371   .     A
C1478  C1574   1.435   .     S
C1479  O1562   1.291   .     A
C1479  C1481   1.458   .     S
C1479  O1564   1.297   .     A
C1480  O1563   1.292   .     A
C1480  C1483   1.452   .     S
C1480  O1565   1.292   .     A
C1481  C1488   1.388   .     A
C1481  C1486   1.401   .     A
C1482  O1561   1.282   .     A
C1482  O1559   1.282   .     A
C1483  C1489   1.385   .     A
C1483  C1487   1.395   .     A
C1484  H1544   1.083   .     S
C1484  C1486   1.396   .     A
C1484  C1492   1.410   .     A
C1485  H1545   1.083   .     S
C1485  C1494   1.411   .     A
C1485  C1487   1.392   .     A
C1486  H1543   1.083   .     S
C1487  H1533   1.083   .     S
C1488  H1522   1.081   .     S
C1488  C1490   1.392   .     A
C1489  C1491   1.392   .     A
C1489  H1511   1.068   .     S
C1490  C1492   1.407   .     A
C1490  C1495   1.405   .     A
C1491  C1496   1.423   .     A
C1491  C1494   1.423   .     A
C1492  C624    1.400   1_556 S
C1493  O1566   1.396   .     S
C1493  C1496   1.444   .     A
C1493  C1506   1.425   .     A
C1495  C1504   1.428   .     A
C1495  C614    1.414   1_556 S
C1497  H1518   1.116   .     S
C1497  O1566   1.425   .     S
C1497  H1517   1.110   .     S
C1497  C1498   1.525   .     S
C1498  H1521   1.107   .     S
C1498  H1520   1.111   .     S
C1498  H1519   1.109   .     S
C1499  H1524   1.112   .     S
C1499  C1500   1.524   .     S
C1499  O1556   1.415   .     S
C1499  H1523   1.115   .     S
C1500  H1527   1.110   .     S
C1500  H1526   1.111   .     S
C1500  H1525   1.110   .     S
C1501  H1532   1.112   .     S
C1501  O1557   1.412   .     S
C1501  C1502   1.521   .     S
C1501  H1534   1.115   .     S
C1502  H1536   1.111   .     S
C1502  H1537   1.111   .     S
C1502  H1535   1.110   .     S
C1503  O1558   1.412   .     S
C1503  H1539   1.112   .     S
C1503  C1505   1.520   .     S
C1503  H1538   1.115   .     S
C1504  C1507   1.399   .     A
C1504  O1556   1.387   .     S
C1505  H1540   1.111   .     S
C1505  H1541   1.110   .     S
C1505  H1542   1.110   .     S
C1506  N1551   1.435   .     S
C1507  N1552   1.436   .     S
C1507  C612    1.399   1_556 S
C1508  N1553   1.440   .     S
C1508  C922    1.379   1_565 S
C1509  N1554   1.434   .     S
C1510  H1546   1.085   .     S
H1513  N1551   1.045   .     S
H1514  N1551   1.044   .     S
H1515  N1552   1.045   .     S
H1516  N1552   1.046   .     S
H1528  N1553   1.046   .     S
H1529  N1553   1.046   .     S
H1530  N1554   1.046   .     S
H1531  N1554   1.046   .     S
N1549  Zn1567  2.012   .     S
N1550  Zn1568  2.012   .     S
O1555  Zn1567  1.988   .     S
O1559  Zn1568  1.988   .     S
O1560  Zn1568  1.994   .     S
O1561  Zn1567  1.994   .     S
O1562  Zn1567  1.942   .     S
O1563  Zn1568  1.942   .     S
O1564  Zn1568  1.889   .     S
O1565  Zn1567  1.889   .     S
C1569  O1658   1.281   .     A
C1569  O1653   1.282   .     A
C1569  C1572   1.412   .     S
C1570  C1572   1.395   .     A
C1570  H1645   1.085   .     S
C1570  C1019   1.375   1_565 S
C1571  C1580   1.412   .     S
C1571  C1608   1.395   .     A
C1571  C1607   1.400   .     A
C1572  C1606   1.404   .     A
C1573  N1648   1.364   .     A
C1573  H1646   1.080   .     S
C1573  C1673   1.434   .     S
C1574  H1610   1.080   .     S
C1574  N1647   1.362   .     A
C1575  O1655   1.392   .     S
C1575  N1647   1.371   .     A
C1576  O1656   1.392   .     S
C1576  N1648   1.371   .     A
C1576  C1672   1.435   .     S
C1577  O1660   1.291   .     A
C1577  C1579   1.458   .     S
C1577  O1662   1.297   .     A
C1578  O1661   1.292   .     A
C1578  C1581   1.452   .     S
C1578  O1663   1.292   .     A
C1579  C1586   1.388   .     A
C1579  C1584   1.401   .     A
C1580  O1659   1.282   .     A
C1580  O1657   1.282   .     A
C1581  C1587   1.385   .     A
C1581  C1585   1.395   .     A
C1582  H1642   1.083   .     S
C1582  C1584   1.396   .     A
C1582  C1590   1.410   .     A
C1583  H1643   1.083   .     S
C1583  C1592   1.411   .     A
C1583  C1585   1.392   .     A
C1584  H1641   1.083   .     S
C1585  H1631   1.083   .     S
C1586  H1620   1.081   .     S
C1586  C1588   1.392   .     A
C1587  C1589   1.392   .     A
C1587  H1609   1.068   .     S
C1588  C1590   1.407   .     A
C1588  C1593   1.405   .     A
C1589  C1594   1.423   .     A
C1589  C1592   1.423   .     A
C1590  C722    1.400   1_556 S
C1591  O1664   1.396   .     S
C1591  C1594   1.444   .     A
C1591  C1604   1.425   .     A
C1593  C1602   1.428   .     A
C1593  C712    1.414   1_556 S
C1595  H1616   1.116   .     S
C1595  O1664   1.425   .     S
C1595  H1615   1.110   .     S
C1595  C1596   1.525   .     S
C1596  H1619   1.107   .     S
C1596  H1618   1.111   .     S
C1596  H1617   1.109   .     S
C1597  H1622   1.112   .     S
C1597  C1598   1.524   .     S
C1597  O1654   1.415   .     S
C1597  H1621   1.115   .     S
C1598  H1625   1.110   .     S
C1598  H1624   1.111   .     S
C1598  H1623   1.110   .     S
C1599  H1630   1.112   .     S
C1599  O1655   1.412   .     S
C1599  C1600   1.521   .     S
C1599  H1632   1.115   .     S
C1600  H1634   1.111   .     S
C1600  H1635   1.111   .     S
C1600  H1633   1.110   .     S
C1601  O1656   1.412   .     S
C1601  H1637   1.112   .     S
C1601  C1603   1.520   .     S
C1601  H1636   1.115   .     S
C1602  C1605   1.399   .     A
C1602  O1654   1.387   .     S
C1603  H1638   1.111   .     S
C1603  H1639   1.110   .     S
C1603  H1640   1.110   .     S
C1604  N1649   1.435   .     S
C1605  N1650   1.436   .     S
C1605  C710    1.399   1_556 S
C1606  N1651   1.440   .     S
C1606  C1020   1.379   1_565 S
C1607  N1652   1.434   .     S
C1608  H1644   1.085   .     S
H1611  N1649   1.045   .     S
H1612  N1649   1.044   .     S
H1613  N1650   1.045   .     S
H1614  N1650   1.046   .     S
H1626  N1651   1.046   .     S
H1627  N1651   1.046   .     S
H1628  N1652   1.046   .     S
H1629  N1652   1.046   .     S
N1647  Zn1665  2.012   .     S
N1648  Zn1666  2.012   .     S
O1653  Zn1665  1.988   .     S
O1657  Zn1666  1.988   .     S
O1658  Zn1666  1.994   .     S
O1659  Zn1665  1.994   .     S
O1660  Zn1665  1.942   .     S
O1661  Zn1666  1.942   .     S
O1662  Zn1666  1.889   .     S
O1663  Zn1665  1.889   .     S
C1667  O1756   1.281   .     A
C1667  O1751   1.282   .     A
C1667  C1670   1.412   .     S
C1668  C1670   1.395   .     A
C1668  H1743   1.085   .     S
C1668  C1117   1.375   1_565 S
C1669  C1678   1.412   .     S
C1669  C1706   1.395   .     A
C1669  C1705   1.400   .     A
C1670  C1704   1.404   .     A
C1671  N1746   1.364   .     A
C1671  H1744   1.080   .     S
C1671  C1477   1.434   1_655 S
C1672  H1708   1.080   .     S
C1672  N1745   1.362   .     A
C1673  O1753   1.392   .     S
C1673  N1745   1.371   .     A
C1674  O1754   1.392   .     S
C1674  N1746   1.371   .     A
C1674  C1476   1.435   1_655 S
C1675  O1758   1.291   .     A
C1675  C1677   1.458   .     S
C1675  O1760   1.297   .     A
C1676  O1759   1.292   .     A
C1676  C1679   1.452   .     S
C1676  O1761   1.292   .     A
C1677  C1684   1.388   .     A
C1677  C1682   1.401   .     A
C1678  O1757   1.282   .     A
C1678  O1755   1.282   .     A
C1679  C1685   1.385   .     A
C1679  C1683   1.395   .     A
C1680  H1740   1.083   .     S
C1680  C1682   1.396   .     A
C1680  C1688   1.410   .     A
C1681  H1741   1.083   .     S
C1681  C1690   1.411   .     A
C1681  C1683   1.392   .     A
C1682  H1739   1.083   .     S
C1683  H1729   1.083   .     S
C1684  H1718   1.081   .     S
C1684  C1686   1.392   .     A
C1685  C1687   1.392   .     A
C1685  H1707   1.068   .     S
C1686  C1688   1.407   .     A
C1686  C1691   1.405   .     A
C1687  C1692   1.423   .     A
C1687  C1690   1.423   .     A
C1688  C820    1.400   1_556 S
C1689  O1762   1.396   .     S
C1689  C1692   1.444   .     A
C1689  C1702   1.425   .     A
C1691  C1700   1.428   .     A
C1691  C810    1.414   1_556 S
C1693  H1714   1.116   .     S
C1693  O1762   1.425   .     S
C1693  H1713   1.110   .     S
C1693  C1694   1.525   .     S
C1694  H1717   1.107   .     S
C1694  H1716   1.111   .     S
C1694  H1715   1.109   .     S
C1695  H1720   1.112   .     S
C1695  C1696   1.524   .     S
C1695  O1752   1.415   .     S
C1695  H1719   1.115   .     S
C1696  H1723   1.110   .     S
C1696  H1722   1.111   .     S
C1696  H1721   1.110   .     S
C1697  H1728   1.112   .     S
C1697  O1753   1.412   .     S
C1697  C1698   1.521   .     S
C1697  H1730   1.115   .     S
C1698  H1732   1.111   .     S
C1698  H1733   1.111   .     S
C1698  H1731   1.110   .     S
C1699  O1754   1.412   .     S
C1699  H1735   1.112   .     S
C1699  C1701   1.520   .     S
C1699  H1734   1.115   .     S
C1700  C1703   1.399   .     A
C1700  O1752   1.387   .     S
C1701  H1736   1.111   .     S
C1701  H1737   1.110   .     S
C1701  H1738   1.110   .     S
C1702  N1747   1.435   .     S
C1703  N1748   1.436   .     S
C1703  C808    1.399   1_556 S
C1704  N1749   1.440   .     S
C1704  C1118   1.379   1_565 S
C1705  N1750   1.434   .     S
C1706  H1742   1.085   .     S
H1709  N1747   1.045   .     S
H1710  N1747   1.044   .     S
H1711  N1748   1.045   .     S
H1712  N1748   1.046   .     S
H1724  N1749   1.046   .     S
H1725  N1749   1.046   .     S
H1726  N1750   1.046   .     S
H1727  N1750   1.046   .     S
N1745  Zn1763  2.012   .     S
N1746  Zn1764  2.012   .     S
O1751  Zn1763  1.988   .     S
O1755  Zn1764  1.988   .     S
O1756  Zn1764  1.994   .     S
O1757  Zn1763  1.994   .     S
O1758  Zn1763  1.942   .     S
O1759  Zn1764  1.942   .     S
O1760  Zn1764  1.889   .     S
O1761  Zn1763  1.889   .     S
