data_str_m3_o1_o17_pcu_sym.109
_audit_creation_date              2020-01-03
_audit_creation_method            'Materials Studio'
_symmetry_space_group_name_H-M    'P1'
_symmetry_Int_Tables_number       1
_symmetry_cell_setting            triclinic
loop_
_symmetry_equiv_pos_as_xyz
  x,y,z
_cell_length_a                    32.1062
_cell_length_b                    29.5265
_cell_length_c                    29.8872
_cell_angle_alpha                 89.8704
_cell_angle_beta                  90.2430
_cell_angle_gamma                 90.0551
loop_
_atom_site_label
_atom_site_type_symbol
_atom_site_fract_x
_atom_site_fract_y
_atom_site_fract_z
_atom_site_U_iso_or_equiv
_atom_site_adp_type
_atom_site_occupancy
C1     C     0.08664   0.16665   0.25000   0.00000  Uiso   1.00
C2     C     0.24670   0.16668   0.25000   0.00000  Uiso   1.00
C3     C     0.10219   0.20830   0.02580   0.00000  Uiso   1.00
C4     C     0.23115   0.12503   0.47420   0.00000  Uiso   1.00
C5     C     0.02125   0.12729   0.23766   0.00000  Uiso   1.00
C6     C     0.31208   0.20604   0.26234   0.00000  Uiso   1.00
C7     C     0.31191   0.12732   0.23761   0.00000  Uiso   1.00
C8     C     0.02143   0.20601   0.26239   0.00000  Uiso   1.00
C9     C     0.29084   0.16669   0.24996   0.00000  Uiso   1.00
C10    C     0.04249   0.16664   0.25004   0.00000  Uiso   1.00
C11    C     0.19339   0.02395   0.27698   0.00000  Uiso   1.00
C12    C     0.13994   0.30938   0.22302   0.00000  Uiso   1.00
C13    C     0.13994   0.02402   0.22302   0.00000  Uiso   1.00
C14    C     0.19339   0.30932   0.27698   0.00000  Uiso   1.00
C15    C     0.16783   0.16672   0.16352   0.00000  Uiso   1.00
C16    C     0.16550   0.16661   0.33648   0.00000  Uiso   1.00
C17    C     0.19503   0.14302   0.40646   0.00000  Uiso   1.00
C18    C     0.13831   0.19032   0.09354   0.00000  Uiso   1.00
C19    C     0.16371   0.16624   0.38417   0.00000  Uiso   1.00
C20    C     0.16963   0.16709   0.11583   0.00000  Uiso   1.00
C21    C     0.13172   0.18880   0.40691   0.00000  Uiso   1.00
C22    C     0.20161   0.14453   0.09309   0.00000  Uiso   1.00
C23    C     0.13089   0.18665   0.45404   0.00000  Uiso   1.00
C24    C     0.20244   0.14668   0.04596   0.00000  Uiso   1.00
C25    C     0.16525   0.16604   0.47663   0.00000  Uiso   1.00
C26    C     0.16808   0.16729   0.02337   0.00000  Uiso   1.00
C27    C     0.19691   0.14408   0.45247   0.00000  Uiso   1.00
C28    C     0.13643   0.18925   0.04753   0.00000  Uiso   1.00
C29    C     0.09804   0.20538   0.47974   0.00000  Uiso   1.00
C30    C     0.23529   0.12795   0.02026   0.00000  Uiso   1.00
H31    H     0.21932   0.12613   0.38759   0.00000  Uiso   1.00
H32    H     0.11402   0.20720   0.11241   0.00000  Uiso   1.00
H33    H     0.07720   0.22348   0.04494   0.00000  Uiso   1.00
H34    H     0.25613   0.10985   0.45506   0.00000  Uiso   1.00
H35    H     0.03750   0.09681   0.22768   0.00000  Uiso   1.00
H36    H     0.29583   0.23652   0.27232   0.00000  Uiso   1.00
H37    H     0.29552   0.09686   0.22760   0.00000  Uiso   1.00
H38    H     0.03782   0.23648   0.27240   0.00000  Uiso   1.00
H39    H     0.21476   0.04210   0.29855   0.00000  Uiso   1.00
H40    H     0.11858   0.29123   0.20145   0.00000  Uiso   1.00
H41    H     0.11857   0.04222   0.20146   0.00000  Uiso   1.00
H42    H     0.21476   0.29111   0.29854   0.00000  Uiso   1.00
N43    N     0.16667   0.28573   0.25000   0.00000  Uiso   1.00
N44    N     0.16667   0.04760   0.25000   0.00000  Uiso   1.00
O45    O     0.10559   0.20487   0.24999   0.00000  Uiso   1.00
O46    O     0.22774   0.12846   0.25001   0.00000  Uiso   1.00
O47    O     0.22774   0.20487   0.25000   0.00000  Uiso   1.00
O48    O     0.10559   0.12846   0.24999   0.00000  Uiso   1.00
O49    O     0.16666   0.20489   0.18392   0.00000  Uiso   1.00
O50    O     0.16667   0.12844   0.31608   0.00000  Uiso   1.00
O51    O     0.16667   0.20489   0.31607   0.00000  Uiso   1.00
O52    O     0.16666   0.12844   0.18392   0.00000  Uiso   1.00
Zn53   Zn    0.16667   0.21771   0.25000   0.00000  Uiso   1.00
Zn54   Zn    0.16667   0.11563   0.25000   0.00000  Uiso   1.00
Cl55   Cl    0.09564   0.22169   0.37536   0.00000  Uiso   1.00
Cl56   Cl    0.23769   0.11164   0.12464   0.00000  Uiso   1.00
O57    O     0.06046   0.21855   0.46180   0.00000  Uiso   1.00
H58    H     0.05086   0.19328   0.44252   0.00000  Uiso   1.00
O59    O     0.27288   0.11478   0.03820   0.00000  Uiso   1.00
H60    H     0.28247   0.14005   0.05748   0.00000  Uiso   1.00
C61    C     0.41997   0.16665   0.25000   0.00000  Uiso   1.00
C62    C     0.58003   0.16668   0.25000   0.00000  Uiso   1.00
C63    C     0.43552   0.20830   0.02580   0.00000  Uiso   1.00
C64    C     0.56448   0.12503   0.47420   0.00000  Uiso   1.00
C65    C     0.35458   0.12729   0.23766   0.00000  Uiso   1.00
C66    C     0.64542   0.20604   0.26234   0.00000  Uiso   1.00
C67    C     0.64524   0.12732   0.23761   0.00000  Uiso   1.00
C68    C     0.35476   0.20601   0.26239   0.00000  Uiso   1.00
C69    C     0.62417   0.16669   0.24996   0.00000  Uiso   1.00
C70    C     0.37583   0.16664   0.25004   0.00000  Uiso   1.00
C71    C     0.52673   0.02395   0.27698   0.00000  Uiso   1.00
C72    C     0.47327   0.30938   0.22302   0.00000  Uiso   1.00
C73    C     0.47327   0.02402   0.22302   0.00000  Uiso   1.00
C74    C     0.52673   0.30932   0.27698   0.00000  Uiso   1.00
C75    C     0.50117   0.16672   0.16352   0.00000  Uiso   1.00
C76    C     0.49883   0.16661   0.33648   0.00000  Uiso   1.00
C77    C     0.52836   0.14302   0.40646   0.00000  Uiso   1.00
C78    C     0.47164   0.19032   0.09354   0.00000  Uiso   1.00
C79    C     0.49704   0.16624   0.38417   0.00000  Uiso   1.00
C80    C     0.50296   0.16709   0.11583   0.00000  Uiso   1.00
C81    C     0.46505   0.18880   0.40691   0.00000  Uiso   1.00
C82    C     0.53495   0.14453   0.09309   0.00000  Uiso   1.00
C83    C     0.46423   0.18665   0.45404   0.00000  Uiso   1.00
C84    C     0.53577   0.14668   0.04596   0.00000  Uiso   1.00
C85    C     0.49858   0.16604   0.47663   0.00000  Uiso   1.00
C86    C     0.50142   0.16729   0.02337   0.00000  Uiso   1.00
C87    C     0.53024   0.14408   0.45247   0.00000  Uiso   1.00
C88    C     0.46976   0.18925   0.04753   0.00000  Uiso   1.00
C89    C     0.43137   0.20538   0.47974   0.00000  Uiso   1.00
C90    C     0.56863   0.12795   0.02026   0.00000  Uiso   1.00
H91    H     0.55265   0.12613   0.38759   0.00000  Uiso   1.00
H92    H     0.44735   0.20720   0.11241   0.00000  Uiso   1.00
H93    H     0.41053   0.22348   0.04494   0.00000  Uiso   1.00
H94    H     0.58947   0.10985   0.45506   0.00000  Uiso   1.00
H95    H     0.37083   0.09681   0.22768   0.00000  Uiso   1.00
H96    H     0.62917   0.23652   0.27232   0.00000  Uiso   1.00
H97    H     0.62885   0.09686   0.22760   0.00000  Uiso   1.00
H98    H     0.37115   0.23648   0.27240   0.00000  Uiso   1.00
H99    H     0.54809   0.04210   0.29855   0.00000  Uiso   1.00
H100   H     0.45191   0.29123   0.20145   0.00000  Uiso   1.00
H101   H     0.45191   0.04222   0.20146   0.00000  Uiso   1.00
H102   H     0.54809   0.29111   0.29854   0.00000  Uiso   1.00
N103   N     0.50000   0.28573   0.25000   0.00000  Uiso   1.00
N104   N     0.50000   0.04760   0.25000   0.00000  Uiso   1.00
O105   O     0.43892   0.20487   0.24999   0.00000  Uiso   1.00
O106   O     0.56108   0.12846   0.25001   0.00000  Uiso   1.00
O107   O     0.56108   0.20487   0.25000   0.00000  Uiso   1.00
O108   O     0.43892   0.12846   0.24999   0.00000  Uiso   1.00
O109   O     0.49999   0.20489   0.18392   0.00000  Uiso   1.00
O110   O     0.50001   0.12844   0.31608   0.00000  Uiso   1.00
O111   O     0.50001   0.20489   0.31607   0.00000  Uiso   1.00
O112   O     0.49999   0.12844   0.18392   0.00000  Uiso   1.00
Zn113  Zn    0.50000   0.21771   0.25000   0.00000  Uiso   1.00
Zn114  Zn    0.50000   0.11563   0.25000   0.00000  Uiso   1.00
Cl115  Cl    0.42898   0.22169   0.37536   0.00000  Uiso   1.00
Cl116  Cl    0.57102   0.11164   0.12464   0.00000  Uiso   1.00
O117   O     0.39379   0.21855   0.46180   0.00000  Uiso   1.00
H118   H     0.38420   0.19328   0.44252   0.00000  Uiso   1.00
O119   O     0.60621   0.11478   0.03820   0.00000  Uiso   1.00
H120   H     0.61581   0.14005   0.05748   0.00000  Uiso   1.00
C121   C     0.75330   0.16665   0.25000   0.00000  Uiso   1.00
C122   C     0.91336   0.16668   0.25000   0.00000  Uiso   1.00
C123   C     0.76885   0.20830   0.02580   0.00000  Uiso   1.00
C124   C     0.89782   0.12503   0.47420   0.00000  Uiso   1.00
C125   C     0.68792   0.12729   0.23766   0.00000  Uiso   1.00
C126   C     0.97875   0.20604   0.26234   0.00000  Uiso   1.00
C127   C     0.97857   0.12732   0.23761   0.00000  Uiso   1.00
C128   C     0.68809   0.20601   0.26239   0.00000  Uiso   1.00
C129   C     0.95751   0.16669   0.24996   0.00000  Uiso   1.00
C130   C     0.70916   0.16664   0.25004   0.00000  Uiso   1.00
C131   C     0.86006   0.02395   0.27698   0.00000  Uiso   1.00
C132   C     0.80661   0.30938   0.22302   0.00000  Uiso   1.00
C133   C     0.80661   0.02402   0.22302   0.00000  Uiso   1.00
C134   C     0.86006   0.30932   0.27698   0.00000  Uiso   1.00
C135   C     0.83450   0.16672   0.16352   0.00000  Uiso   1.00
C136   C     0.83217   0.16661   0.33648   0.00000  Uiso   1.00
C137   C     0.86169   0.14302   0.40646   0.00000  Uiso   1.00
C138   C     0.80497   0.19032   0.09354   0.00000  Uiso   1.00
C139   C     0.83037   0.16624   0.38417   0.00000  Uiso   1.00
C140   C     0.83630   0.16709   0.11583   0.00000  Uiso   1.00
C141   C     0.79839   0.18880   0.40691   0.00000  Uiso   1.00
C142   C     0.86828   0.14453   0.09309   0.00000  Uiso   1.00
C143   C     0.79756   0.18665   0.45404   0.00000  Uiso   1.00
C144   C     0.86911   0.14668   0.04596   0.00000  Uiso   1.00
C145   C     0.83192   0.16604   0.47663   0.00000  Uiso   1.00
C146   C     0.83475   0.16729   0.02337   0.00000  Uiso   1.00
C147   C     0.86357   0.14408   0.45247   0.00000  Uiso   1.00
C148   C     0.80309   0.18925   0.04753   0.00000  Uiso   1.00
C149   C     0.76471   0.20538   0.47974   0.00000  Uiso   1.00
C150   C     0.90196   0.12795   0.02026   0.00000  Uiso   1.00
H151   H     0.88598   0.12613   0.38759   0.00000  Uiso   1.00
H152   H     0.78068   0.20720   0.11241   0.00000  Uiso   1.00
H153   H     0.74387   0.22348   0.04494   0.00000  Uiso   1.00
H154   H     0.92280   0.10985   0.45506   0.00000  Uiso   1.00
H155   H     0.70417   0.09681   0.22768   0.00000  Uiso   1.00
H156   H     0.96250   0.23652   0.27232   0.00000  Uiso   1.00
H157   H     0.96218   0.09686   0.22760   0.00000  Uiso   1.00
H158   H     0.70448   0.23648   0.27240   0.00000  Uiso   1.00
H159   H     0.88142   0.04210   0.29855   0.00000  Uiso   1.00
H160   H     0.78524   0.29123   0.20145   0.00000  Uiso   1.00
H161   H     0.78524   0.04222   0.20146   0.00000  Uiso   1.00
H162   H     0.88143   0.29111   0.29854   0.00000  Uiso   1.00
N163   N     0.83333   0.28573   0.25000   0.00000  Uiso   1.00
N164   N     0.83333   0.04760   0.25000   0.00000  Uiso   1.00
O165   O     0.77226   0.20487   0.24999   0.00000  Uiso   1.00
O166   O     0.89441   0.12846   0.25001   0.00000  Uiso   1.00
O167   O     0.89441   0.20487   0.25000   0.00000  Uiso   1.00
O168   O     0.77226   0.12846   0.24999   0.00000  Uiso   1.00
O169   O     0.83333   0.20489   0.18392   0.00000  Uiso   1.00
O170   O     0.83334   0.12844   0.31608   0.00000  Uiso   1.00
O171   O     0.83334   0.20489   0.31607   0.00000  Uiso   1.00
O172   O     0.83333   0.12844   0.18392   0.00000  Uiso   1.00
Zn173  Zn    0.83333   0.21771   0.25000   0.00000  Uiso   1.00
Zn174  Zn    0.83333   0.11563   0.25000   0.00000  Uiso   1.00
Cl175  Cl    0.76231   0.22169   0.37536   0.00000  Uiso   1.00
Cl176  Cl    0.90436   0.11164   0.12464   0.00000  Uiso   1.00
O177   O     0.72712   0.21855   0.46180   0.00000  Uiso   1.00
H178   H     0.71753   0.19328   0.44252   0.00000  Uiso   1.00
O179   O     0.93954   0.11478   0.03820   0.00000  Uiso   1.00
H180   H     0.94914   0.14005   0.05748   0.00000  Uiso   1.00
C181   C     0.08664   0.49999   0.25000   0.00000  Uiso   1.00
C182   C     0.24670   0.50001   0.25000   0.00000  Uiso   1.00
C183   C     0.10219   0.54164   0.02580   0.00000  Uiso   1.00
C184   C     0.23115   0.45836   0.47420   0.00000  Uiso   1.00
C185   C     0.02125   0.46063   0.23766   0.00000  Uiso   1.00
C186   C     0.31208   0.53937   0.26234   0.00000  Uiso   1.00
C187   C     0.31191   0.46065   0.23761   0.00000  Uiso   1.00
C188   C     0.02143   0.53935   0.26239   0.00000  Uiso   1.00
C189   C     0.29084   0.50002   0.24996   0.00000  Uiso   1.00
C190   C     0.04249   0.49998   0.25004   0.00000  Uiso   1.00
C191   C     0.19339   0.35728   0.27698   0.00000  Uiso   1.00
C192   C     0.13994   0.64272   0.22302   0.00000  Uiso   1.00
C193   C     0.13994   0.35735   0.22302   0.00000  Uiso   1.00
C194   C     0.19339   0.64265   0.27698   0.00000  Uiso   1.00
C195   C     0.16783   0.50005   0.16352   0.00000  Uiso   1.00
C196   C     0.16550   0.49995   0.33648   0.00000  Uiso   1.00
C197   C     0.19503   0.47635   0.40646   0.00000  Uiso   1.00
C198   C     0.13831   0.52365   0.09354   0.00000  Uiso   1.00
C199   C     0.16371   0.49958   0.38417   0.00000  Uiso   1.00
C200   C     0.16963   0.50042   0.11583   0.00000  Uiso   1.00
C201   C     0.13172   0.52214   0.40691   0.00000  Uiso   1.00
C202   C     0.20161   0.47786   0.09309   0.00000  Uiso   1.00
C203   C     0.13089   0.51998   0.45404   0.00000  Uiso   1.00
C204   C     0.20244   0.48002   0.04596   0.00000  Uiso   1.00
C205   C     0.16525   0.49938   0.47663   0.00000  Uiso   1.00
C206   C     0.16808   0.50062   0.02337   0.00000  Uiso   1.00
C207   C     0.19691   0.47741   0.45247   0.00000  Uiso   1.00
C208   C     0.13643   0.52259   0.04753   0.00000  Uiso   1.00
C209   C     0.09804   0.53871   0.47974   0.00000  Uiso   1.00
C210   C     0.23529   0.46129   0.02026   0.00000  Uiso   1.00
H211   H     0.21932   0.45946   0.38759   0.00000  Uiso   1.00
H212   H     0.11402   0.54054   0.11241   0.00000  Uiso   1.00
H213   H     0.07720   0.55681   0.04494   0.00000  Uiso   1.00
H214   H     0.25613   0.44319   0.45506   0.00000  Uiso   1.00
H215   H     0.03750   0.43015   0.22768   0.00000  Uiso   1.00
H216   H     0.29583   0.56986   0.27232   0.00000  Uiso   1.00
H217   H     0.29552   0.43019   0.22760   0.00000  Uiso   1.00
H218   H     0.03782   0.56981   0.27240   0.00000  Uiso   1.00
H219   H     0.21476   0.37543   0.29855   0.00000  Uiso   1.00
H220   H     0.11858   0.62457   0.20145   0.00000  Uiso   1.00
H221   H     0.11857   0.37555   0.20146   0.00000  Uiso   1.00
H222   H     0.21476   0.62445   0.29854   0.00000  Uiso   1.00
N223   N     0.16667   0.61907   0.25000   0.00000  Uiso   1.00
N224   N     0.16667   0.38093   0.25000   0.00000  Uiso   1.00
O225   O     0.10559   0.53821   0.24999   0.00000  Uiso   1.00
O226   O     0.22774   0.46179   0.25001   0.00000  Uiso   1.00
O227   O     0.22774   0.53821   0.25000   0.00000  Uiso   1.00
O228   O     0.10559   0.46179   0.24999   0.00000  Uiso   1.00
O229   O     0.16666   0.53823   0.18392   0.00000  Uiso   1.00
O230   O     0.16667   0.46177   0.31608   0.00000  Uiso   1.00
O231   O     0.16667   0.53823   0.31607   0.00000  Uiso   1.00
O232   O     0.16666   0.46177   0.18392   0.00000  Uiso   1.00
Zn233  Zn    0.16667   0.55104   0.25000   0.00000  Uiso   1.00
Zn234  Zn    0.16667   0.44896   0.25000   0.00000  Uiso   1.00
Cl235  Cl    0.09564   0.55502   0.37536   0.00000  Uiso   1.00
Cl236  Cl    0.23769   0.44498   0.12464   0.00000  Uiso   1.00
O237   O     0.06046   0.55188   0.46180   0.00000  Uiso   1.00
H238   H     0.05086   0.52662   0.44252   0.00000  Uiso   1.00
O239   O     0.27288   0.44812   0.03820   0.00000  Uiso   1.00
H240   H     0.28247   0.47338   0.05748   0.00000  Uiso   1.00
C241   C     0.41997   0.49999   0.25000   0.00000  Uiso   1.00
C242   C     0.58003   0.50001   0.25000   0.00000  Uiso   1.00
C243   C     0.43552   0.54164   0.02580   0.00000  Uiso   1.00
C244   C     0.56448   0.45836   0.47420   0.00000  Uiso   1.00
C245   C     0.35458   0.46063   0.23766   0.00000  Uiso   1.00
C246   C     0.64542   0.53937   0.26234   0.00000  Uiso   1.00
C247   C     0.64524   0.46065   0.23761   0.00000  Uiso   1.00
C248   C     0.35476   0.53935   0.26239   0.00000  Uiso   1.00
C249   C     0.62417   0.50002   0.24996   0.00000  Uiso   1.00
C250   C     0.37583   0.49998   0.25004   0.00000  Uiso   1.00
C251   C     0.52673   0.35728   0.27698   0.00000  Uiso   1.00
C252   C     0.47327   0.64272   0.22302   0.00000  Uiso   1.00
C253   C     0.47327   0.35735   0.22302   0.00000  Uiso   1.00
C254   C     0.52673   0.64265   0.27698   0.00000  Uiso   1.00
C255   C     0.50117   0.50005   0.16352   0.00000  Uiso   1.00
C256   C     0.49883   0.49995   0.33648   0.00000  Uiso   1.00
C257   C     0.52836   0.47635   0.40646   0.00000  Uiso   1.00
C258   C     0.47164   0.52365   0.09354   0.00000  Uiso   1.00
C259   C     0.49704   0.49958   0.38417   0.00000  Uiso   1.00
C260   C     0.50296   0.50042   0.11583   0.00000  Uiso   1.00
C261   C     0.46505   0.52214   0.40691   0.00000  Uiso   1.00
C262   C     0.53495   0.47786   0.09309   0.00000  Uiso   1.00
C263   C     0.46423   0.51998   0.45404   0.00000  Uiso   1.00
C264   C     0.53577   0.48002   0.04596   0.00000  Uiso   1.00
C265   C     0.49858   0.49938   0.47663   0.00000  Uiso   1.00
C266   C     0.50142   0.50062   0.02337   0.00000  Uiso   1.00
C267   C     0.53024   0.47741   0.45247   0.00000  Uiso   1.00
C268   C     0.46976   0.52259   0.04753   0.00000  Uiso   1.00
C269   C     0.43137   0.53871   0.47974   0.00000  Uiso   1.00
C270   C     0.56863   0.46129   0.02026   0.00000  Uiso   1.00
H271   H     0.55265   0.45946   0.38759   0.00000  Uiso   1.00
H272   H     0.44735   0.54054   0.11241   0.00000  Uiso   1.00
H273   H     0.41053   0.55681   0.04494   0.00000  Uiso   1.00
H274   H     0.58947   0.44319   0.45506   0.00000  Uiso   1.00
H275   H     0.37083   0.43015   0.22768   0.00000  Uiso   1.00
H276   H     0.62917   0.56986   0.27232   0.00000  Uiso   1.00
H277   H     0.62885   0.43019   0.22760   0.00000  Uiso   1.00
H278   H     0.37115   0.56981   0.27240   0.00000  Uiso   1.00
H279   H     0.54809   0.37543   0.29855   0.00000  Uiso   1.00
H280   H     0.45191   0.62457   0.20145   0.00000  Uiso   1.00
H281   H     0.45191   0.37555   0.20146   0.00000  Uiso   1.00
H282   H     0.54809   0.62445   0.29854   0.00000  Uiso   1.00
N283   N     0.50000   0.61907   0.25000   0.00000  Uiso   1.00
N284   N     0.50000   0.38093   0.25000   0.00000  Uiso   1.00
O285   O     0.43892   0.53821   0.24999   0.00000  Uiso   1.00
O286   O     0.56108   0.46179   0.25001   0.00000  Uiso   1.00
O287   O     0.56108   0.53821   0.25000   0.00000  Uiso   1.00
O288   O     0.43892   0.46179   0.24999   0.00000  Uiso   1.00
O289   O     0.49999   0.53823   0.18392   0.00000  Uiso   1.00
O290   O     0.50001   0.46177   0.31608   0.00000  Uiso   1.00
O291   O     0.50001   0.53823   0.31607   0.00000  Uiso   1.00
O292   O     0.49999   0.46177   0.18392   0.00000  Uiso   1.00
Zn293  Zn    0.50000   0.55104   0.25000   0.00000  Uiso   1.00
Zn294  Zn    0.50000   0.44896   0.25000   0.00000  Uiso   1.00
Cl295  Cl    0.42898   0.55502   0.37536   0.00000  Uiso   1.00
Cl296  Cl    0.57102   0.44498   0.12464   0.00000  Uiso   1.00
O297   O     0.39379   0.55188   0.46180   0.00000  Uiso   1.00
H298   H     0.38420   0.52662   0.44252   0.00000  Uiso   1.00
O299   O     0.60621   0.44812   0.03820   0.00000  Uiso   1.00
H300   H     0.61581   0.47338   0.05748   0.00000  Uiso   1.00
C301   C     0.75330   0.49999   0.25000   0.00000  Uiso   1.00
C302   C     0.91336   0.50001   0.25000   0.00000  Uiso   1.00
C303   C     0.76885   0.54164   0.02580   0.00000  Uiso   1.00
C304   C     0.89782   0.45836   0.47420   0.00000  Uiso   1.00
C305   C     0.68792   0.46063   0.23766   0.00000  Uiso   1.00
C306   C     0.97875   0.53937   0.26234   0.00000  Uiso   1.00
C307   C     0.97857   0.46065   0.23761   0.00000  Uiso   1.00
C308   C     0.68809   0.53935   0.26239   0.00000  Uiso   1.00
C309   C     0.95751   0.50002   0.24996   0.00000  Uiso   1.00
C310   C     0.70916   0.49998   0.25004   0.00000  Uiso   1.00
C311   C     0.86006   0.35728   0.27698   0.00000  Uiso   1.00
C312   C     0.80661   0.64272   0.22302   0.00000  Uiso   1.00
C313   C     0.80661   0.35735   0.22302   0.00000  Uiso   1.00
C314   C     0.86006   0.64265   0.27698   0.00000  Uiso   1.00
C315   C     0.83450   0.50005   0.16352   0.00000  Uiso   1.00
C316   C     0.83217   0.49995   0.33648   0.00000  Uiso   1.00
C317   C     0.86169   0.47635   0.40646   0.00000  Uiso   1.00
C318   C     0.80497   0.52365   0.09354   0.00000  Uiso   1.00
C319   C     0.83037   0.49958   0.38417   0.00000  Uiso   1.00
C320   C     0.83630   0.50042   0.11583   0.00000  Uiso   1.00
C321   C     0.79839   0.52214   0.40691   0.00000  Uiso   1.00
C322   C     0.86828   0.47786   0.09309   0.00000  Uiso   1.00
C323   C     0.79756   0.51998   0.45404   0.00000  Uiso   1.00
C324   C     0.86911   0.48002   0.04596   0.00000  Uiso   1.00
C325   C     0.83192   0.49938   0.47663   0.00000  Uiso   1.00
C326   C     0.83475   0.50062   0.02337   0.00000  Uiso   1.00
C327   C     0.86357   0.47741   0.45247   0.00000  Uiso   1.00
C328   C     0.80309   0.52259   0.04753   0.00000  Uiso   1.00
C329   C     0.76471   0.53871   0.47974   0.00000  Uiso   1.00
C330   C     0.90196   0.46129   0.02026   0.00000  Uiso   1.00
H331   H     0.88598   0.45946   0.38759   0.00000  Uiso   1.00
H332   H     0.78068   0.54054   0.11241   0.00000  Uiso   1.00
H333   H     0.74387   0.55681   0.04494   0.00000  Uiso   1.00
H334   H     0.92280   0.44319   0.45506   0.00000  Uiso   1.00
H335   H     0.70417   0.43015   0.22768   0.00000  Uiso   1.00
H336   H     0.96250   0.56986   0.27232   0.00000  Uiso   1.00
H337   H     0.96218   0.43019   0.22760   0.00000  Uiso   1.00
H338   H     0.70448   0.56981   0.27240   0.00000  Uiso   1.00
H339   H     0.88142   0.37543   0.29855   0.00000  Uiso   1.00
H340   H     0.78524   0.62457   0.20145   0.00000  Uiso   1.00
H341   H     0.78524   0.37555   0.20146   0.00000  Uiso   1.00
H342   H     0.88143   0.62445   0.29854   0.00000  Uiso   1.00
N343   N     0.83333   0.61907   0.25000   0.00000  Uiso   1.00
N344   N     0.83333   0.38093   0.25000   0.00000  Uiso   1.00
O345   O     0.77226   0.53821   0.24999   0.00000  Uiso   1.00
O346   O     0.89441   0.46179   0.25001   0.00000  Uiso   1.00
O347   O     0.89441   0.53821   0.25000   0.00000  Uiso   1.00
O348   O     0.77226   0.46179   0.24999   0.00000  Uiso   1.00
O349   O     0.83333   0.53823   0.18392   0.00000  Uiso   1.00
O350   O     0.83334   0.46177   0.31608   0.00000  Uiso   1.00
O351   O     0.83334   0.53823   0.31607   0.00000  Uiso   1.00
O352   O     0.83333   0.46177   0.18392   0.00000  Uiso   1.00
Zn353  Zn    0.83333   0.55104   0.25000   0.00000  Uiso   1.00
Zn354  Zn    0.83333   0.44896   0.25000   0.00000  Uiso   1.00
Cl355  Cl    0.76231   0.55502   0.37536   0.00000  Uiso   1.00
Cl356  Cl    0.90436   0.44498   0.12464   0.00000  Uiso   1.00
O357   O     0.72712   0.55188   0.46180   0.00000  Uiso   1.00
H358   H     0.71753   0.52662   0.44252   0.00000  Uiso   1.00
O359   O     0.93954   0.44812   0.03820   0.00000  Uiso   1.00
H360   H     0.94914   0.47338   0.05748   0.00000  Uiso   1.00
C361   C     0.08664   0.83332   0.25000   0.00000  Uiso   1.00
C362   C     0.24670   0.83335   0.25000   0.00000  Uiso   1.00
C363   C     0.10219   0.87497   0.02580   0.00000  Uiso   1.00
C364   C     0.23115   0.79170   0.47420   0.00000  Uiso   1.00
C365   C     0.02125   0.79396   0.23766   0.00000  Uiso   1.00
C366   C     0.31208   0.87271   0.26234   0.00000  Uiso   1.00
C367   C     0.31191   0.79399   0.23761   0.00000  Uiso   1.00
C368   C     0.02143   0.87268   0.26239   0.00000  Uiso   1.00
C369   C     0.29084   0.83336   0.24996   0.00000  Uiso   1.00
C370   C     0.04249   0.83331   0.25004   0.00000  Uiso   1.00
C371   C     0.19339   0.69062   0.27698   0.00000  Uiso   1.00
C372   C     0.13994   0.97605   0.22302   0.00000  Uiso   1.00
C373   C     0.13994   0.69068   0.22302   0.00000  Uiso   1.00
C374   C     0.19339   0.97598   0.27698   0.00000  Uiso   1.00
C375   C     0.16783   0.83339   0.16352   0.00000  Uiso   1.00
C376   C     0.16550   0.83328   0.33648   0.00000  Uiso   1.00
C377   C     0.19503   0.80968   0.40646   0.00000  Uiso   1.00
C378   C     0.13831   0.85698   0.09354   0.00000  Uiso   1.00
C379   C     0.16371   0.83291   0.38417   0.00000  Uiso   1.00
C380   C     0.16963   0.83376   0.11583   0.00000  Uiso   1.00
C381   C     0.13172   0.85547   0.40691   0.00000  Uiso   1.00
C382   C     0.20161   0.81120   0.09309   0.00000  Uiso   1.00
C383   C     0.13089   0.85332   0.45404   0.00000  Uiso   1.00
C384   C     0.20244   0.81335   0.04596   0.00000  Uiso   1.00
C385   C     0.16525   0.83271   0.47663   0.00000  Uiso   1.00
C386   C     0.16808   0.83396   0.02337   0.00000  Uiso   1.00
C387   C     0.19691   0.81075   0.45247   0.00000  Uiso   1.00
C388   C     0.13643   0.85592   0.04753   0.00000  Uiso   1.00
C389   C     0.09804   0.87205   0.47974   0.00000  Uiso   1.00
C390   C     0.23529   0.79462   0.02026   0.00000  Uiso   1.00
H391   H     0.21932   0.79280   0.38759   0.00000  Uiso   1.00
H392   H     0.11402   0.87387   0.11241   0.00000  Uiso   1.00
H393   H     0.07720   0.89015   0.04494   0.00000  Uiso   1.00
H394   H     0.25613   0.77652   0.45506   0.00000  Uiso   1.00
H395   H     0.03750   0.76348   0.22768   0.00000  Uiso   1.00
H396   H     0.29583   0.90319   0.27232   0.00000  Uiso   1.00
H397   H     0.29552   0.76352   0.22760   0.00000  Uiso   1.00
H398   H     0.03782   0.90314   0.27240   0.00000  Uiso   1.00
H399   H     0.21476   0.70877   0.29855   0.00000  Uiso   1.00
H400   H     0.11858   0.95790   0.20145   0.00000  Uiso   1.00
H401   H     0.11857   0.70889   0.20146   0.00000  Uiso   1.00
H402   H     0.21476   0.95778   0.29854   0.00000  Uiso   1.00
N403   N     0.16667   0.95240   0.25000   0.00000  Uiso   1.00
N404   N     0.16667   0.71427   0.25000   0.00000  Uiso   1.00
O405   O     0.10559   0.87154   0.24999   0.00000  Uiso   1.00
O406   O     0.22774   0.79513   0.25001   0.00000  Uiso   1.00
O407   O     0.22774   0.87154   0.25000   0.00000  Uiso   1.00
O408   O     0.10559   0.79513   0.24999   0.00000  Uiso   1.00
O409   O     0.16666   0.87156   0.18392   0.00000  Uiso   1.00
O410   O     0.16667   0.79511   0.31608   0.00000  Uiso   1.00
O411   O     0.16667   0.87156   0.31607   0.00000  Uiso   1.00
O412   O     0.16666   0.79511   0.18392   0.00000  Uiso   1.00
Zn413  Zn    0.16667   0.88437   0.25000   0.00000  Uiso   1.00
Zn414  Zn    0.16667   0.78229   0.25000   0.00000  Uiso   1.00
Cl415  Cl    0.09564   0.88836   0.37536   0.00000  Uiso   1.00
Cl416  Cl    0.23769   0.77831   0.12464   0.00000  Uiso   1.00
O417   O     0.06046   0.88522   0.46180   0.00000  Uiso   1.00
H418   H     0.05086   0.85995   0.44252   0.00000  Uiso   1.00
O419   O     0.27288   0.78145   0.03820   0.00000  Uiso   1.00
H420   H     0.28247   0.80672   0.05748   0.00000  Uiso   1.00
C421   C     0.41997   0.83332   0.25000   0.00000  Uiso   1.00
C422   C     0.58003   0.83335   0.25000   0.00000  Uiso   1.00
C423   C     0.43552   0.87497   0.02580   0.00000  Uiso   1.00
C424   C     0.56448   0.79170   0.47420   0.00000  Uiso   1.00
C425   C     0.35458   0.79396   0.23766   0.00000  Uiso   1.00
C426   C     0.64542   0.87271   0.26234   0.00000  Uiso   1.00
C427   C     0.64524   0.79399   0.23761   0.00000  Uiso   1.00
C428   C     0.35476   0.87268   0.26239   0.00000  Uiso   1.00
C429   C     0.62417   0.83336   0.24996   0.00000  Uiso   1.00
C430   C     0.37583   0.83331   0.25004   0.00000  Uiso   1.00
C431   C     0.52673   0.69062   0.27698   0.00000  Uiso   1.00
C432   C     0.47327   0.97605   0.22302   0.00000  Uiso   1.00
C433   C     0.47327   0.69068   0.22302   0.00000  Uiso   1.00
C434   C     0.52673   0.97598   0.27698   0.00000  Uiso   1.00
C435   C     0.50117   0.83339   0.16352   0.00000  Uiso   1.00
C436   C     0.49883   0.83328   0.33648   0.00000  Uiso   1.00
C437   C     0.52836   0.80968   0.40646   0.00000  Uiso   1.00
C438   C     0.47164   0.85698   0.09354   0.00000  Uiso   1.00
C439   C     0.49704   0.83291   0.38417   0.00000  Uiso   1.00
C440   C     0.50296   0.83376   0.11583   0.00000  Uiso   1.00
C441   C     0.46505   0.85547   0.40691   0.00000  Uiso   1.00
C442   C     0.53495   0.81120   0.09309   0.00000  Uiso   1.00
C443   C     0.46423   0.85332   0.45404   0.00000  Uiso   1.00
C444   C     0.53577   0.81335   0.04596   0.00000  Uiso   1.00
C445   C     0.49858   0.83271   0.47663   0.00000  Uiso   1.00
C446   C     0.50142   0.83396   0.02337   0.00000  Uiso   1.00
C447   C     0.53024   0.81075   0.45247   0.00000  Uiso   1.00
C448   C     0.46976   0.85592   0.04753   0.00000  Uiso   1.00
C449   C     0.43137   0.87205   0.47974   0.00000  Uiso   1.00
C450   C     0.56863   0.79462   0.02026   0.00000  Uiso   1.00
H451   H     0.55265   0.79280   0.38759   0.00000  Uiso   1.00
H452   H     0.44735   0.87387   0.11241   0.00000  Uiso   1.00
H453   H     0.41053   0.89015   0.04494   0.00000  Uiso   1.00
H454   H     0.58947   0.77652   0.45506   0.00000  Uiso   1.00
H455   H     0.37083   0.76348   0.22768   0.00000  Uiso   1.00
H456   H     0.62917   0.90319   0.27232   0.00000  Uiso   1.00
H457   H     0.62885   0.76352   0.22760   0.00000  Uiso   1.00
H458   H     0.37115   0.90314   0.27240   0.00000  Uiso   1.00
H459   H     0.54809   0.70877   0.29855   0.00000  Uiso   1.00
H460   H     0.45191   0.95790   0.20145   0.00000  Uiso   1.00
H461   H     0.45191   0.70889   0.20146   0.00000  Uiso   1.00
H462   H     0.54809   0.95778   0.29854   0.00000  Uiso   1.00
N463   N     0.50000   0.95240   0.25000   0.00000  Uiso   1.00
N464   N     0.50000   0.71427   0.25000   0.00000  Uiso   1.00
O465   O     0.43892   0.87154   0.24999   0.00000  Uiso   1.00
O466   O     0.56108   0.79513   0.25001   0.00000  Uiso   1.00
O467   O     0.56108   0.87154   0.25000   0.00000  Uiso   1.00
O468   O     0.43892   0.79513   0.24999   0.00000  Uiso   1.00
O469   O     0.49999   0.87156   0.18392   0.00000  Uiso   1.00
O470   O     0.50001   0.79511   0.31608   0.00000  Uiso   1.00
O471   O     0.50001   0.87156   0.31607   0.00000  Uiso   1.00
O472   O     0.49999   0.79511   0.18392   0.00000  Uiso   1.00
Zn473  Zn    0.50000   0.88437   0.25000   0.00000  Uiso   1.00
Zn474  Zn    0.50000   0.78229   0.25000   0.00000  Uiso   1.00
Cl475  Cl    0.42898   0.88836   0.37536   0.00000  Uiso   1.00
Cl476  Cl    0.57102   0.77831   0.12464   0.00000  Uiso   1.00
O477   O     0.39379   0.88522   0.46180   0.00000  Uiso   1.00
H478   H     0.38420   0.85995   0.44252   0.00000  Uiso   1.00
O479   O     0.60621   0.78145   0.03820   0.00000  Uiso   1.00
H480   H     0.61581   0.80672   0.05748   0.00000  Uiso   1.00
C481   C     0.75330   0.83332   0.25000   0.00000  Uiso   1.00
C482   C     0.91336   0.83335   0.25000   0.00000  Uiso   1.00
C483   C     0.76885   0.87497   0.02580   0.00000  Uiso   1.00
C484   C     0.89782   0.79170   0.47420   0.00000  Uiso   1.00
C485   C     0.68792   0.79396   0.23766   0.00000  Uiso   1.00
C486   C     0.97875   0.87271   0.26234   0.00000  Uiso   1.00
C487   C     0.97857   0.79399   0.23761   0.00000  Uiso   1.00
C488   C     0.68809   0.87268   0.26239   0.00000  Uiso   1.00
C489   C     0.95751   0.83336   0.24996   0.00000  Uiso   1.00
C490   C     0.70916   0.83331   0.25004   0.00000  Uiso   1.00
C491   C     0.86006   0.69062   0.27698   0.00000  Uiso   1.00
C492   C     0.80661   0.97605   0.22302   0.00000  Uiso   1.00
C493   C     0.80661   0.69068   0.22302   0.00000  Uiso   1.00
C494   C     0.86006   0.97598   0.27698   0.00000  Uiso   1.00
C495   C     0.83450   0.83339   0.16352   0.00000  Uiso   1.00
C496   C     0.83217   0.83328   0.33648   0.00000  Uiso   1.00
C497   C     0.86169   0.80968   0.40646   0.00000  Uiso   1.00
C498   C     0.80497   0.85698   0.09354   0.00000  Uiso   1.00
C499   C     0.83037   0.83291   0.38417   0.00000  Uiso   1.00
C500   C     0.83630   0.83376   0.11583   0.00000  Uiso   1.00
C501   C     0.79839   0.85547   0.40691   0.00000  Uiso   1.00
C502   C     0.86828   0.81120   0.09309   0.00000  Uiso   1.00
C503   C     0.79756   0.85332   0.45404   0.00000  Uiso   1.00
C504   C     0.86911   0.81335   0.04596   0.00000  Uiso   1.00
C505   C     0.83192   0.83271   0.47663   0.00000  Uiso   1.00
C506   C     0.83475   0.83396   0.02337   0.00000  Uiso   1.00
C507   C     0.86357   0.81075   0.45247   0.00000  Uiso   1.00
C508   C     0.80309   0.85592   0.04753   0.00000  Uiso   1.00
C509   C     0.76471   0.87205   0.47974   0.00000  Uiso   1.00
C510   C     0.90196   0.79462   0.02026   0.00000  Uiso   1.00
H511   H     0.88598   0.79280   0.38759   0.00000  Uiso   1.00
H512   H     0.78068   0.87387   0.11241   0.00000  Uiso   1.00
H513   H     0.74387   0.89015   0.04494   0.00000  Uiso   1.00
H514   H     0.92280   0.77652   0.45506   0.00000  Uiso   1.00
H515   H     0.70417   0.76348   0.22768   0.00000  Uiso   1.00
H516   H     0.96250   0.90319   0.27232   0.00000  Uiso   1.00
H517   H     0.96218   0.76352   0.22760   0.00000  Uiso   1.00
H518   H     0.70448   0.90314   0.27240   0.00000  Uiso   1.00
H519   H     0.88142   0.70877   0.29855   0.00000  Uiso   1.00
H520   H     0.78524   0.95790   0.20145   0.00000  Uiso   1.00
H521   H     0.78524   0.70889   0.20146   0.00000  Uiso   1.00
H522   H     0.88143   0.95778   0.29854   0.00000  Uiso   1.00
N523   N     0.83333   0.95240   0.25000   0.00000  Uiso   1.00
N524   N     0.83333   0.71427   0.25000   0.00000  Uiso   1.00
O525   O     0.77226   0.87154   0.24999   0.00000  Uiso   1.00
O526   O     0.89441   0.79513   0.25001   0.00000  Uiso   1.00
O527   O     0.89441   0.87154   0.25000   0.00000  Uiso   1.00
O528   O     0.77226   0.79513   0.24999   0.00000  Uiso   1.00
O529   O     0.83333   0.87156   0.18392   0.00000  Uiso   1.00
O530   O     0.83334   0.79511   0.31608   0.00000  Uiso   1.00
O531   O     0.83334   0.87156   0.31607   0.00000  Uiso   1.00
O532   O     0.83333   0.79511   0.18392   0.00000  Uiso   1.00
Zn533  Zn    0.83333   0.88437   0.25000   0.00000  Uiso   1.00
Zn534  Zn    0.83333   0.78229   0.25000   0.00000  Uiso   1.00
Cl535  Cl    0.76231   0.88836   0.37536   0.00000  Uiso   1.00
Cl536  Cl    0.90436   0.77831   0.12464   0.00000  Uiso   1.00
O537   O     0.72712   0.88522   0.46180   0.00000  Uiso   1.00
H538   H     0.71753   0.85995   0.44252   0.00000  Uiso   1.00
O539   O     0.93954   0.78145   0.03820   0.00000  Uiso   1.00
H540   H     0.94914   0.80672   0.05748   0.00000  Uiso   1.00
C541   C     0.08664   0.16665   0.75000   0.00000  Uiso   1.00
C542   C     0.24670   0.16668   0.75000   0.00000  Uiso   1.00
C543   C     0.10219   0.20830   0.52580   0.00000  Uiso   1.00
C544   C     0.23115   0.12503   0.97420   0.00000  Uiso   1.00
C545   C     0.02125   0.12729   0.73766   0.00000  Uiso   1.00
C546   C     0.31208   0.20604   0.76234   0.00000  Uiso   1.00
C547   C     0.31191   0.12732   0.73761   0.00000  Uiso   1.00
C548   C     0.02143   0.20601   0.76239   0.00000  Uiso   1.00
C549   C     0.29084   0.16669   0.74996   0.00000  Uiso   1.00
C550   C     0.04249   0.16664   0.75004   0.00000  Uiso   1.00
C551   C     0.19339   0.02395   0.77698   0.00000  Uiso   1.00
C552   C     0.13994   0.30938   0.72302   0.00000  Uiso   1.00
C553   C     0.13994   0.02402   0.72302   0.00000  Uiso   1.00
C554   C     0.19339   0.30932   0.77698   0.00000  Uiso   1.00
C555   C     0.16783   0.16672   0.66352   0.00000  Uiso   1.00
C556   C     0.16550   0.16661   0.83648   0.00000  Uiso   1.00
C557   C     0.19503   0.14302   0.90646   0.00000  Uiso   1.00
C558   C     0.13831   0.19032   0.59354   0.00000  Uiso   1.00
C559   C     0.16371   0.16624   0.88417   0.00000  Uiso   1.00
C560   C     0.16963   0.16709   0.61583   0.00000  Uiso   1.00
C561   C     0.13172   0.18880   0.90691   0.00000  Uiso   1.00
C562   C     0.20161   0.14453   0.59309   0.00000  Uiso   1.00
C563   C     0.13089   0.18665   0.95404   0.00000  Uiso   1.00
C564   C     0.20244   0.14668   0.54596   0.00000  Uiso   1.00
C565   C     0.16525   0.16604   0.97663   0.00000  Uiso   1.00
C566   C     0.16808   0.16729   0.52337   0.00000  Uiso   1.00
C567   C     0.19691   0.14408   0.95247   0.00000  Uiso   1.00
C568   C     0.13643   0.18925   0.54753   0.00000  Uiso   1.00
C569   C     0.09804   0.20538   0.97974   0.00000  Uiso   1.00
C570   C     0.23529   0.12795   0.52026   0.00000  Uiso   1.00
H571   H     0.21932   0.12613   0.88759   0.00000  Uiso   1.00
H572   H     0.11402   0.20720   0.61241   0.00000  Uiso   1.00
H573   H     0.07720   0.22348   0.54494   0.00000  Uiso   1.00
H574   H     0.25613   0.10985   0.95506   0.00000  Uiso   1.00
H575   H     0.03750   0.09681   0.72768   0.00000  Uiso   1.00
H576   H     0.29583   0.23652   0.77232   0.00000  Uiso   1.00
H577   H     0.29552   0.09686   0.72760   0.00000  Uiso   1.00
H578   H     0.03782   0.23648   0.77240   0.00000  Uiso   1.00
H579   H     0.21476   0.04210   0.79855   0.00000  Uiso   1.00
H580   H     0.11858   0.29123   0.70145   0.00000  Uiso   1.00
H581   H     0.11857   0.04222   0.70146   0.00000  Uiso   1.00
H582   H     0.21476   0.29111   0.79854   0.00000  Uiso   1.00
N583   N     0.16667   0.28573   0.75000   0.00000  Uiso   1.00
N584   N     0.16667   0.04760   0.75000   0.00000  Uiso   1.00
O585   O     0.10559   0.20487   0.74999   0.00000  Uiso   1.00
O586   O     0.22774   0.12846   0.75001   0.00000  Uiso   1.00
O587   O     0.22774   0.20487   0.75000   0.00000  Uiso   1.00
O588   O     0.10559   0.12846   0.74999   0.00000  Uiso   1.00
O589   O     0.16666   0.20489   0.68392   0.00000  Uiso   1.00
O590   O     0.16667   0.12844   0.81608   0.00000  Uiso   1.00
O591   O     0.16667   0.20489   0.81607   0.00000  Uiso   1.00
O592   O     0.16666   0.12844   0.68392   0.00000  Uiso   1.00
Zn593  Zn    0.16667   0.21771   0.75000   0.00000  Uiso   1.00
Zn594  Zn    0.16667   0.11563   0.75000   0.00000  Uiso   1.00
Cl595  Cl    0.09564   0.22169   0.87536   0.00000  Uiso   1.00
Cl596  Cl    0.23769   0.11164   0.62464   0.00000  Uiso   1.00
O597   O     0.06046   0.21855   0.96180   0.00000  Uiso   1.00
H598   H     0.05086   0.19328   0.94252   0.00000  Uiso   1.00
O599   O     0.27288   0.11478   0.53820   0.00000  Uiso   1.00
H600   H     0.28247   0.14005   0.55748   0.00000  Uiso   1.00
C601   C     0.41997   0.16665   0.75000   0.00000  Uiso   1.00
C602   C     0.58003   0.16668   0.75000   0.00000  Uiso   1.00
C603   C     0.43552   0.20830   0.52580   0.00000  Uiso   1.00
C604   C     0.56448   0.12503   0.97420   0.00000  Uiso   1.00
C605   C     0.35458   0.12729   0.73766   0.00000  Uiso   1.00
C606   C     0.64542   0.20604   0.76234   0.00000  Uiso   1.00
C607   C     0.64524   0.12732   0.73761   0.00000  Uiso   1.00
C608   C     0.35476   0.20601   0.76239   0.00000  Uiso   1.00
C609   C     0.62417   0.16669   0.74996   0.00000  Uiso   1.00
C610   C     0.37583   0.16664   0.75004   0.00000  Uiso   1.00
C611   C     0.52673   0.02395   0.77698   0.00000  Uiso   1.00
C612   C     0.47327   0.30938   0.72302   0.00000  Uiso   1.00
C613   C     0.47327   0.02402   0.72302   0.00000  Uiso   1.00
C614   C     0.52673   0.30932   0.77698   0.00000  Uiso   1.00
C615   C     0.50117   0.16672   0.66352   0.00000  Uiso   1.00
C616   C     0.49883   0.16661   0.83648   0.00000  Uiso   1.00
C617   C     0.52836   0.14302   0.90646   0.00000  Uiso   1.00
C618   C     0.47164   0.19032   0.59354   0.00000  Uiso   1.00
C619   C     0.49704   0.16624   0.88417   0.00000  Uiso   1.00
C620   C     0.50296   0.16709   0.61583   0.00000  Uiso   1.00
C621   C     0.46505   0.18880   0.90691   0.00000  Uiso   1.00
C622   C     0.53495   0.14453   0.59309   0.00000  Uiso   1.00
C623   C     0.46423   0.18665   0.95404   0.00000  Uiso   1.00
C624   C     0.53577   0.14668   0.54596   0.00000  Uiso   1.00
C625   C     0.49858   0.16604   0.97663   0.00000  Uiso   1.00
C626   C     0.50142   0.16729   0.52337   0.00000  Uiso   1.00
C627   C     0.53024   0.14408   0.95247   0.00000  Uiso   1.00
C628   C     0.46976   0.18925   0.54753   0.00000  Uiso   1.00
C629   C     0.43137   0.20538   0.97974   0.00000  Uiso   1.00
C630   C     0.56863   0.12795   0.52026   0.00000  Uiso   1.00
H631   H     0.55265   0.12613   0.88759   0.00000  Uiso   1.00
H632   H     0.44735   0.20720   0.61241   0.00000  Uiso   1.00
H633   H     0.41053   0.22348   0.54494   0.00000  Uiso   1.00
H634   H     0.58947   0.10985   0.95506   0.00000  Uiso   1.00
H635   H     0.37083   0.09681   0.72768   0.00000  Uiso   1.00
H636   H     0.62917   0.23652   0.77232   0.00000  Uiso   1.00
H637   H     0.62885   0.09686   0.72760   0.00000  Uiso   1.00
H638   H     0.37115   0.23648   0.77240   0.00000  Uiso   1.00
H639   H     0.54809   0.04210   0.79855   0.00000  Uiso   1.00
H640   H     0.45191   0.29123   0.70145   0.00000  Uiso   1.00
H641   H     0.45191   0.04222   0.70146   0.00000  Uiso   1.00
H642   H     0.54809   0.29111   0.79854   0.00000  Uiso   1.00
N643   N     0.50000   0.28573   0.75000   0.00000  Uiso   1.00
N644   N     0.50000   0.04760   0.75000   0.00000  Uiso   1.00
O645   O     0.43892   0.20487   0.74999   0.00000  Uiso   1.00
O646   O     0.56108   0.12846   0.75001   0.00000  Uiso   1.00
O647   O     0.56108   0.20487   0.75000   0.00000  Uiso   1.00
O648   O     0.43892   0.12846   0.74999   0.00000  Uiso   1.00
O649   O     0.49999   0.20489   0.68392   0.00000  Uiso   1.00
O650   O     0.50001   0.12844   0.81608   0.00000  Uiso   1.00
O651   O     0.50001   0.20489   0.81607   0.00000  Uiso   1.00
O652   O     0.49999   0.12844   0.68392   0.00000  Uiso   1.00
Zn653  Zn    0.50000   0.21771   0.75000   0.00000  Uiso   1.00
Zn654  Zn    0.50000   0.11563   0.75000   0.00000  Uiso   1.00
Cl655  Cl    0.42898   0.22169   0.87536   0.00000  Uiso   1.00
Cl656  Cl    0.57102   0.11164   0.62464   0.00000  Uiso   1.00
O657   O     0.39379   0.21855   0.96180   0.00000  Uiso   1.00
H658   H     0.38420   0.19328   0.94252   0.00000  Uiso   1.00
O659   O     0.60621   0.11478   0.53820   0.00000  Uiso   1.00
H660   H     0.61581   0.14005   0.55748   0.00000  Uiso   1.00
C661   C     0.75330   0.16665   0.75000   0.00000  Uiso   1.00
C662   C     0.91336   0.16668   0.75000   0.00000  Uiso   1.00
C663   C     0.76885   0.20830   0.52580   0.00000  Uiso   1.00
C664   C     0.89782   0.12503   0.97420   0.00000  Uiso   1.00
C665   C     0.68792   0.12729   0.73766   0.00000  Uiso   1.00
C666   C     0.97875   0.20604   0.76234   0.00000  Uiso   1.00
C667   C     0.97857   0.12732   0.73761   0.00000  Uiso   1.00
C668   C     0.68809   0.20601   0.76239   0.00000  Uiso   1.00
C669   C     0.95751   0.16669   0.74996   0.00000  Uiso   1.00
C670   C     0.70916   0.16664   0.75004   0.00000  Uiso   1.00
C671   C     0.86006   0.02395   0.77698   0.00000  Uiso   1.00
C672   C     0.80661   0.30938   0.72302   0.00000  Uiso   1.00
C673   C     0.80661   0.02402   0.72302   0.00000  Uiso   1.00
C674   C     0.86006   0.30932   0.77698   0.00000  Uiso   1.00
C675   C     0.83450   0.16672   0.66352   0.00000  Uiso   1.00
C676   C     0.83217   0.16661   0.83648   0.00000  Uiso   1.00
C677   C     0.86169   0.14302   0.90646   0.00000  Uiso   1.00
C678   C     0.80497   0.19032   0.59354   0.00000  Uiso   1.00
C679   C     0.83037   0.16624   0.88417   0.00000  Uiso   1.00
C680   C     0.83630   0.16709   0.61583   0.00000  Uiso   1.00
C681   C     0.79839   0.18880   0.90691   0.00000  Uiso   1.00
C682   C     0.86828   0.14453   0.59309   0.00000  Uiso   1.00
C683   C     0.79756   0.18665   0.95404   0.00000  Uiso   1.00
C684   C     0.86911   0.14668   0.54596   0.00000  Uiso   1.00
C685   C     0.83192   0.16604   0.97663   0.00000  Uiso   1.00
C686   C     0.83475   0.16729   0.52337   0.00000  Uiso   1.00
C687   C     0.86357   0.14408   0.95247   0.00000  Uiso   1.00
C688   C     0.80309   0.18925   0.54753   0.00000  Uiso   1.00
C689   C     0.76471   0.20538   0.97974   0.00000  Uiso   1.00
C690   C     0.90196   0.12795   0.52026   0.00000  Uiso   1.00
H691   H     0.88598   0.12613   0.88759   0.00000  Uiso   1.00
H692   H     0.78068   0.20720   0.61241   0.00000  Uiso   1.00
H693   H     0.74387   0.22348   0.54494   0.00000  Uiso   1.00
H694   H     0.92280   0.10985   0.95506   0.00000  Uiso   1.00
H695   H     0.70417   0.09681   0.72768   0.00000  Uiso   1.00
H696   H     0.96250   0.23652   0.77232   0.00000  Uiso   1.00
H697   H     0.96218   0.09686   0.72760   0.00000  Uiso   1.00
H698   H     0.70448   0.23648   0.77240   0.00000  Uiso   1.00
H699   H     0.88142   0.04210   0.79855   0.00000  Uiso   1.00
H700   H     0.78524   0.29123   0.70145   0.00000  Uiso   1.00
H701   H     0.78524   0.04222   0.70146   0.00000  Uiso   1.00
H702   H     0.88143   0.29111   0.79854   0.00000  Uiso   1.00
N703   N     0.83333   0.28573   0.75000   0.00000  Uiso   1.00
N704   N     0.83333   0.04760   0.75000   0.00000  Uiso   1.00
O705   O     0.77226   0.20487   0.74999   0.00000  Uiso   1.00
O706   O     0.89441   0.12846   0.75001   0.00000  Uiso   1.00
O707   O     0.89441   0.20487   0.75000   0.00000  Uiso   1.00
O708   O     0.77226   0.12846   0.74999   0.00000  Uiso   1.00
O709   O     0.83333   0.20489   0.68392   0.00000  Uiso   1.00
O710   O     0.83334   0.12844   0.81608   0.00000  Uiso   1.00
O711   O     0.83334   0.20489   0.81607   0.00000  Uiso   1.00
O712   O     0.83333   0.12844   0.68392   0.00000  Uiso   1.00
Zn713  Zn    0.83333   0.21771   0.75000   0.00000  Uiso   1.00
Zn714  Zn    0.83333   0.11563   0.75000   0.00000  Uiso   1.00
Cl715  Cl    0.76231   0.22169   0.87536   0.00000  Uiso   1.00
Cl716  Cl    0.90436   0.11164   0.62464   0.00000  Uiso   1.00
O717   O     0.72712   0.21855   0.96180   0.00000  Uiso   1.00
H718   H     0.71753   0.19328   0.94252   0.00000  Uiso   1.00
O719   O     0.93954   0.11478   0.53820   0.00000  Uiso   1.00
H720   H     0.94914   0.14005   0.55748   0.00000  Uiso   1.00
C721   C     0.08664   0.49999   0.75000   0.00000  Uiso   1.00
C722   C     0.24670   0.50001   0.75000   0.00000  Uiso   1.00
C723   C     0.10219   0.54164   0.52580   0.00000  Uiso   1.00
C724   C     0.23115   0.45836   0.97420   0.00000  Uiso   1.00
C725   C     0.02125   0.46063   0.73766   0.00000  Uiso   1.00
C726   C     0.31208   0.53937   0.76234   0.00000  Uiso   1.00
C727   C     0.31191   0.46065   0.73761   0.00000  Uiso   1.00
C728   C     0.02143   0.53935   0.76239   0.00000  Uiso   1.00
C729   C     0.29084   0.50002   0.74996   0.00000  Uiso   1.00
C730   C     0.04249   0.49998   0.75004   0.00000  Uiso   1.00
C731   C     0.19339   0.35728   0.77698   0.00000  Uiso   1.00
C732   C     0.13994   0.64272   0.72302   0.00000  Uiso   1.00
C733   C     0.13994   0.35735   0.72302   0.00000  Uiso   1.00
C734   C     0.19339   0.64265   0.77698   0.00000  Uiso   1.00
C735   C     0.16783   0.50005   0.66352   0.00000  Uiso   1.00
C736   C     0.16550   0.49995   0.83648   0.00000  Uiso   1.00
C737   C     0.19503   0.47635   0.90646   0.00000  Uiso   1.00
C738   C     0.13831   0.52365   0.59354   0.00000  Uiso   1.00
C739   C     0.16371   0.49958   0.88417   0.00000  Uiso   1.00
C740   C     0.16963   0.50042   0.61583   0.00000  Uiso   1.00
C741   C     0.13172   0.52214   0.90691   0.00000  Uiso   1.00
C742   C     0.20161   0.47786   0.59309   0.00000  Uiso   1.00
C743   C     0.13089   0.51998   0.95404   0.00000  Uiso   1.00
C744   C     0.20244   0.48002   0.54596   0.00000  Uiso   1.00
C745   C     0.16525   0.49938   0.97663   0.00000  Uiso   1.00
C746   C     0.16808   0.50062   0.52337   0.00000  Uiso   1.00
C747   C     0.19691   0.47741   0.95247   0.00000  Uiso   1.00
C748   C     0.13643   0.52259   0.54753   0.00000  Uiso   1.00
C749   C     0.09804   0.53871   0.97974   0.00000  Uiso   1.00
C750   C     0.23529   0.46129   0.52026   0.00000  Uiso   1.00
H751   H     0.21932   0.45946   0.88759   0.00000  Uiso   1.00
H752   H     0.11402   0.54054   0.61241   0.00000  Uiso   1.00
H753   H     0.07720   0.55681   0.54494   0.00000  Uiso   1.00
H754   H     0.25613   0.44319   0.95506   0.00000  Uiso   1.00
H755   H     0.03750   0.43015   0.72768   0.00000  Uiso   1.00
H756   H     0.29583   0.56986   0.77232   0.00000  Uiso   1.00
H757   H     0.29552   0.43019   0.72760   0.00000  Uiso   1.00
H758   H     0.03782   0.56981   0.77240   0.00000  Uiso   1.00
H759   H     0.21476   0.37543   0.79855   0.00000  Uiso   1.00
H760   H     0.11858   0.62457   0.70145   0.00000  Uiso   1.00
H761   H     0.11857   0.37555   0.70146   0.00000  Uiso   1.00
H762   H     0.21476   0.62445   0.79854   0.00000  Uiso   1.00
N763   N     0.16667   0.61907   0.75000   0.00000  Uiso   1.00
N764   N     0.16667   0.38093   0.75000   0.00000  Uiso   1.00
O765   O     0.10559   0.53821   0.74999   0.00000  Uiso   1.00
O766   O     0.22774   0.46179   0.75001   0.00000  Uiso   1.00
O767   O     0.22774   0.53821   0.75000   0.00000  Uiso   1.00
O768   O     0.10559   0.46179   0.74999   0.00000  Uiso   1.00
O769   O     0.16666   0.53823   0.68392   0.00000  Uiso   1.00
O770   O     0.16667   0.46177   0.81608   0.00000  Uiso   1.00
O771   O     0.16667   0.53823   0.81607   0.00000  Uiso   1.00
O772   O     0.16666   0.46177   0.68392   0.00000  Uiso   1.00
Zn773  Zn    0.16667   0.55104   0.75000   0.00000  Uiso   1.00
Zn774  Zn    0.16667   0.44896   0.75000   0.00000  Uiso   1.00
Cl775  Cl    0.09564   0.55502   0.87536   0.00000  Uiso   1.00
Cl776  Cl    0.23769   0.44498   0.62464   0.00000  Uiso   1.00
O777   O     0.06046   0.55188   0.96180   0.00000  Uiso   1.00
H778   H     0.05086   0.52662   0.94252   0.00000  Uiso   1.00
O779   O     0.27288   0.44812   0.53820   0.00000  Uiso   1.00
H780   H     0.28247   0.47338   0.55748   0.00000  Uiso   1.00
C781   C     0.41997   0.49999   0.75000   0.00000  Uiso   1.00
C782   C     0.58003   0.50001   0.75000   0.00000  Uiso   1.00
C783   C     0.43552   0.54164   0.52580   0.00000  Uiso   1.00
C784   C     0.56448   0.45836   0.97420   0.00000  Uiso   1.00
C785   C     0.35458   0.46063   0.73766   0.00000  Uiso   1.00
C786   C     0.64542   0.53937   0.76234   0.00000  Uiso   1.00
C787   C     0.64524   0.46065   0.73761   0.00000  Uiso   1.00
C788   C     0.35476   0.53935   0.76239   0.00000  Uiso   1.00
C789   C     0.62417   0.50002   0.74996   0.00000  Uiso   1.00
C790   C     0.37583   0.49998   0.75004   0.00000  Uiso   1.00
C791   C     0.52673   0.35728   0.77698   0.00000  Uiso   1.00
C792   C     0.47327   0.64272   0.72302   0.00000  Uiso   1.00
C793   C     0.47327   0.35735   0.72302   0.00000  Uiso   1.00
C794   C     0.52673   0.64265   0.77698   0.00000  Uiso   1.00
C795   C     0.50117   0.50005   0.66352   0.00000  Uiso   1.00
C796   C     0.49883   0.49995   0.83648   0.00000  Uiso   1.00
C797   C     0.52836   0.47635   0.90646   0.00000  Uiso   1.00
C798   C     0.47164   0.52365   0.59354   0.00000  Uiso   1.00
C799   C     0.49704   0.49958   0.88417   0.00000  Uiso   1.00
C800   C     0.50296   0.50042   0.61583   0.00000  Uiso   1.00
C801   C     0.46505   0.52214   0.90691   0.00000  Uiso   1.00
C802   C     0.53495   0.47786   0.59309   0.00000  Uiso   1.00
C803   C     0.46423   0.51998   0.95404   0.00000  Uiso   1.00
C804   C     0.53577   0.48002   0.54596   0.00000  Uiso   1.00
C805   C     0.49858   0.49938   0.97663   0.00000  Uiso   1.00
C806   C     0.50142   0.50062   0.52337   0.00000  Uiso   1.00
C807   C     0.53024   0.47741   0.95247   0.00000  Uiso   1.00
C808   C     0.46976   0.52259   0.54753   0.00000  Uiso   1.00
C809   C     0.43137   0.53871   0.97974   0.00000  Uiso   1.00
C810   C     0.56863   0.46129   0.52026   0.00000  Uiso   1.00
H811   H     0.55265   0.45946   0.88759   0.00000  Uiso   1.00
H812   H     0.44735   0.54054   0.61241   0.00000  Uiso   1.00
H813   H     0.41053   0.55681   0.54494   0.00000  Uiso   1.00
H814   H     0.58947   0.44319   0.95506   0.00000  Uiso   1.00
H815   H     0.37083   0.43015   0.72768   0.00000  Uiso   1.00
H816   H     0.62917   0.56986   0.77232   0.00000  Uiso   1.00
H817   H     0.62885   0.43019   0.72760   0.00000  Uiso   1.00
H818   H     0.37115   0.56981   0.77240   0.00000  Uiso   1.00
H819   H     0.54809   0.37543   0.79855   0.00000  Uiso   1.00
H820   H     0.45191   0.62457   0.70145   0.00000  Uiso   1.00
H821   H     0.45191   0.37555   0.70146   0.00000  Uiso   1.00
H822   H     0.54809   0.62445   0.79854   0.00000  Uiso   1.00
N823   N     0.50000   0.61907   0.75000   0.00000  Uiso   1.00
N824   N     0.50000   0.38093   0.75000   0.00000  Uiso   1.00
O825   O     0.43892   0.53821   0.74999   0.00000  Uiso   1.00
O826   O     0.56108   0.46179   0.75001   0.00000  Uiso   1.00
O827   O     0.56108   0.53821   0.75000   0.00000  Uiso   1.00
O828   O     0.43892   0.46179   0.74999   0.00000  Uiso   1.00
O829   O     0.49999   0.53823   0.68392   0.00000  Uiso   1.00
O830   O     0.50001   0.46177   0.81608   0.00000  Uiso   1.00
O831   O     0.50001   0.53823   0.81607   0.00000  Uiso   1.00
O832   O     0.49999   0.46177   0.68392   0.00000  Uiso   1.00
Zn833  Zn    0.50000   0.55104   0.75000   0.00000  Uiso   1.00
Zn834  Zn    0.50000   0.44896   0.75000   0.00000  Uiso   1.00
Cl835  Cl    0.42898   0.55502   0.87536   0.00000  Uiso   1.00
Cl836  Cl    0.57102   0.44498   0.62464   0.00000  Uiso   1.00
O837   O     0.39379   0.55188   0.96180   0.00000  Uiso   1.00
H838   H     0.38420   0.52662   0.94252   0.00000  Uiso   1.00
O839   O     0.60621   0.44812   0.53820   0.00000  Uiso   1.00
H840   H     0.61581   0.47338   0.55748   0.00000  Uiso   1.00
C841   C     0.75330   0.49999   0.75000   0.00000  Uiso   1.00
C842   C     0.91336   0.50001   0.75000   0.00000  Uiso   1.00
C843   C     0.76885   0.54164   0.52580   0.00000  Uiso   1.00
C844   C     0.89782   0.45836   0.97420   0.00000  Uiso   1.00
C845   C     0.68792   0.46063   0.73766   0.00000  Uiso   1.00
C846   C     0.97875   0.53937   0.76234   0.00000  Uiso   1.00
C847   C     0.97857   0.46065   0.73761   0.00000  Uiso   1.00
C848   C     0.68809   0.53935   0.76239   0.00000  Uiso   1.00
C849   C     0.95751   0.50002   0.74996   0.00000  Uiso   1.00
C850   C     0.70916   0.49998   0.75004   0.00000  Uiso   1.00
C851   C     0.86006   0.35728   0.77698   0.00000  Uiso   1.00
C852   C     0.80661   0.64272   0.72302   0.00000  Uiso   1.00
C853   C     0.80661   0.35735   0.72302   0.00000  Uiso   1.00
C854   C     0.86006   0.64265   0.77698   0.00000  Uiso   1.00
C855   C     0.83450   0.50005   0.66352   0.00000  Uiso   1.00
C856   C     0.83217   0.49995   0.83648   0.00000  Uiso   1.00
C857   C     0.86169   0.47635   0.90646   0.00000  Uiso   1.00
C858   C     0.80497   0.52365   0.59354   0.00000  Uiso   1.00
C859   C     0.83037   0.49958   0.88417   0.00000  Uiso   1.00
C860   C     0.83630   0.50042   0.61583   0.00000  Uiso   1.00
C861   C     0.79839   0.52214   0.90691   0.00000  Uiso   1.00
C862   C     0.86828   0.47786   0.59309   0.00000  Uiso   1.00
C863   C     0.79756   0.51998   0.95404   0.00000  Uiso   1.00
C864   C     0.86911   0.48002   0.54596   0.00000  Uiso   1.00
C865   C     0.83192   0.49938   0.97663   0.00000  Uiso   1.00
C866   C     0.83475   0.50062   0.52337   0.00000  Uiso   1.00
C867   C     0.86357   0.47741   0.95247   0.00000  Uiso   1.00
C868   C     0.80309   0.52259   0.54753   0.00000  Uiso   1.00
C869   C     0.76471   0.53871   0.97974   0.00000  Uiso   1.00
C870   C     0.90196   0.46129   0.52026   0.00000  Uiso   1.00
H871   H     0.88598   0.45946   0.88759   0.00000  Uiso   1.00
H872   H     0.78068   0.54054   0.61241   0.00000  Uiso   1.00
H873   H     0.74387   0.55681   0.54494   0.00000  Uiso   1.00
H874   H     0.92280   0.44319   0.95506   0.00000  Uiso   1.00
H875   H     0.70417   0.43015   0.72768   0.00000  Uiso   1.00
H876   H     0.96250   0.56986   0.77232   0.00000  Uiso   1.00
H877   H     0.96218   0.43019   0.72760   0.00000  Uiso   1.00
H878   H     0.70448   0.56981   0.77240   0.00000  Uiso   1.00
H879   H     0.88142   0.37543   0.79855   0.00000  Uiso   1.00
H880   H     0.78524   0.62457   0.70145   0.00000  Uiso   1.00
H881   H     0.78524   0.37555   0.70146   0.00000  Uiso   1.00
H882   H     0.88143   0.62445   0.79854   0.00000  Uiso   1.00
N883   N     0.83333   0.61907   0.75000   0.00000  Uiso   1.00
N884   N     0.83333   0.38093   0.75000   0.00000  Uiso   1.00
O885   O     0.77226   0.53821   0.74999   0.00000  Uiso   1.00
O886   O     0.89441   0.46179   0.75001   0.00000  Uiso   1.00
O887   O     0.89441   0.53821   0.75000   0.00000  Uiso   1.00
O888   O     0.77226   0.46179   0.74999   0.00000  Uiso   1.00
O889   O     0.83333   0.53823   0.68392   0.00000  Uiso   1.00
O890   O     0.83334   0.46177   0.81608   0.00000  Uiso   1.00
O891   O     0.83334   0.53823   0.81607   0.00000  Uiso   1.00
O892   O     0.83333   0.46177   0.68392   0.00000  Uiso   1.00
Zn893  Zn    0.83333   0.55104   0.75000   0.00000  Uiso   1.00
Zn894  Zn    0.83333   0.44896   0.75000   0.00000  Uiso   1.00
Cl895  Cl    0.76231   0.55502   0.87536   0.00000  Uiso   1.00
Cl896  Cl    0.90436   0.44498   0.62464   0.00000  Uiso   1.00
O897   O     0.72712   0.55188   0.96180   0.00000  Uiso   1.00
H898   H     0.71753   0.52662   0.94252   0.00000  Uiso   1.00
O899   O     0.93954   0.44812   0.53820   0.00000  Uiso   1.00
H900   H     0.94914   0.47338   0.55748   0.00000  Uiso   1.00
C901   C     0.08664   0.83332   0.75000   0.00000  Uiso   1.00
C902   C     0.24670   0.83335   0.75000   0.00000  Uiso   1.00
C903   C     0.10219   0.87497   0.52580   0.00000  Uiso   1.00
C904   C     0.23115   0.79170   0.97420   0.00000  Uiso   1.00
C905   C     0.02125   0.79396   0.73766   0.00000  Uiso   1.00
C906   C     0.31208   0.87271   0.76234   0.00000  Uiso   1.00
C907   C     0.31191   0.79399   0.73761   0.00000  Uiso   1.00
C908   C     0.02143   0.87268   0.76239   0.00000  Uiso   1.00
C909   C     0.29084   0.83336   0.74996   0.00000  Uiso   1.00
C910   C     0.04249   0.83331   0.75004   0.00000  Uiso   1.00
C911   C     0.19339   0.69062   0.77698   0.00000  Uiso   1.00
C912   C     0.13994   0.97605   0.72302   0.00000  Uiso   1.00
C913   C     0.13994   0.69068   0.72302   0.00000  Uiso   1.00
C914   C     0.19339   0.97598   0.77698   0.00000  Uiso   1.00
C915   C     0.16783   0.83339   0.66352   0.00000  Uiso   1.00
C916   C     0.16550   0.83328   0.83648   0.00000  Uiso   1.00
C917   C     0.19503   0.80968   0.90646   0.00000  Uiso   1.00
C918   C     0.13831   0.85698   0.59354   0.00000  Uiso   1.00
C919   C     0.16371   0.83291   0.88417   0.00000  Uiso   1.00
C920   C     0.16963   0.83376   0.61583   0.00000  Uiso   1.00
C921   C     0.13172   0.85547   0.90691   0.00000  Uiso   1.00
C922   C     0.20161   0.81120   0.59309   0.00000  Uiso   1.00
C923   C     0.13089   0.85332   0.95404   0.00000  Uiso   1.00
C924   C     0.20244   0.81335   0.54596   0.00000  Uiso   1.00
C925   C     0.16525   0.83271   0.97663   0.00000  Uiso   1.00
C926   C     0.16808   0.83396   0.52337   0.00000  Uiso   1.00
C927   C     0.19691   0.81075   0.95247   0.00000  Uiso   1.00
C928   C     0.13643   0.85592   0.54753   0.00000  Uiso   1.00
C929   C     0.09804   0.87205   0.97974   0.00000  Uiso   1.00
C930   C     0.23529   0.79462   0.52026   0.00000  Uiso   1.00
H931   H     0.21932   0.79280   0.88759   0.00000  Uiso   1.00
H932   H     0.11402   0.87387   0.61241   0.00000  Uiso   1.00
H933   H     0.07720   0.89015   0.54494   0.00000  Uiso   1.00
H934   H     0.25613   0.77652   0.95506   0.00000  Uiso   1.00
H935   H     0.03750   0.76348   0.72768   0.00000  Uiso   1.00
H936   H     0.29583   0.90319   0.77232   0.00000  Uiso   1.00
H937   H     0.29552   0.76352   0.72760   0.00000  Uiso   1.00
H938   H     0.03782   0.90314   0.77240   0.00000  Uiso   1.00
H939   H     0.21476   0.70877   0.79855   0.00000  Uiso   1.00
H940   H     0.11858   0.95790   0.70145   0.00000  Uiso   1.00
H941   H     0.11857   0.70889   0.70146   0.00000  Uiso   1.00
H942   H     0.21476   0.95778   0.79854   0.00000  Uiso   1.00
N943   N     0.16667   0.95240   0.75000   0.00000  Uiso   1.00
N944   N     0.16667   0.71427   0.75000   0.00000  Uiso   1.00
O945   O     0.10559   0.87154   0.74999   0.00000  Uiso   1.00
O946   O     0.22774   0.79513   0.75001   0.00000  Uiso   1.00
O947   O     0.22774   0.87154   0.75000   0.00000  Uiso   1.00
O948   O     0.10559   0.79513   0.74999   0.00000  Uiso   1.00
O949   O     0.16666   0.87156   0.68392   0.00000  Uiso   1.00
O950   O     0.16667   0.79511   0.81608   0.00000  Uiso   1.00
O951   O     0.16667   0.87156   0.81607   0.00000  Uiso   1.00
O952   O     0.16666   0.79511   0.68392   0.00000  Uiso   1.00
Zn953  Zn    0.16667   0.88437   0.75000   0.00000  Uiso   1.00
Zn954  Zn    0.16667   0.78229   0.75000   0.00000  Uiso   1.00
Cl955  Cl    0.09564   0.88836   0.87536   0.00000  Uiso   1.00
Cl956  Cl    0.23769   0.77831   0.62464   0.00000  Uiso   1.00
O957   O     0.06046   0.88522   0.96180   0.00000  Uiso   1.00
H958   H     0.05086   0.85995   0.94252   0.00000  Uiso   1.00
O959   O     0.27288   0.78145   0.53820   0.00000  Uiso   1.00
H960   H     0.28247   0.80672   0.55748   0.00000  Uiso   1.00
C961   C     0.41997   0.83332   0.75000   0.00000  Uiso   1.00
C962   C     0.58003   0.83335   0.75000   0.00000  Uiso   1.00
C963   C     0.43552   0.87497   0.52580   0.00000  Uiso   1.00
C964   C     0.56448   0.79170   0.97420   0.00000  Uiso   1.00
C965   C     0.35458   0.79396   0.73766   0.00000  Uiso   1.00
C966   C     0.64542   0.87271   0.76234   0.00000  Uiso   1.00
C967   C     0.64524   0.79399   0.73761   0.00000  Uiso   1.00
C968   C     0.35476   0.87268   0.76239   0.00000  Uiso   1.00
C969   C     0.62417   0.83336   0.74996   0.00000  Uiso   1.00
C970   C     0.37583   0.83331   0.75004   0.00000  Uiso   1.00
C971   C     0.52673   0.69062   0.77698   0.00000  Uiso   1.00
C972   C     0.47327   0.97605   0.72302   0.00000  Uiso   1.00
C973   C     0.47327   0.69068   0.72302   0.00000  Uiso   1.00
C974   C     0.52673   0.97598   0.77698   0.00000  Uiso   1.00
C975   C     0.50117   0.83339   0.66352   0.00000  Uiso   1.00
C976   C     0.49883   0.83328   0.83648   0.00000  Uiso   1.00
C977   C     0.52836   0.80968   0.90646   0.00000  Uiso   1.00
C978   C     0.47164   0.85698   0.59354   0.00000  Uiso   1.00
C979   C     0.49704   0.83291   0.88417   0.00000  Uiso   1.00
C980   C     0.50296   0.83376   0.61583   0.00000  Uiso   1.00
C981   C     0.46505   0.85547   0.90691   0.00000  Uiso   1.00
C982   C     0.53495   0.81120   0.59309   0.00000  Uiso   1.00
C983   C     0.46423   0.85332   0.95404   0.00000  Uiso   1.00
C984   C     0.53577   0.81335   0.54596   0.00000  Uiso   1.00
C985   C     0.49858   0.83271   0.97663   0.00000  Uiso   1.00
C986   C     0.50142   0.83396   0.52337   0.00000  Uiso   1.00
C987   C     0.53024   0.81075   0.95247   0.00000  Uiso   1.00
C988   C     0.46976   0.85592   0.54753   0.00000  Uiso   1.00
C989   C     0.43137   0.87205   0.97974   0.00000  Uiso   1.00
C990   C     0.56863   0.79462   0.52026   0.00000  Uiso   1.00
H991   H     0.55265   0.79280   0.88759   0.00000  Uiso   1.00
H992   H     0.44735   0.87387   0.61241   0.00000  Uiso   1.00
H993   H     0.41053   0.89015   0.54494   0.00000  Uiso   1.00
H994   H     0.58947   0.77652   0.95506   0.00000  Uiso   1.00
H995   H     0.37083   0.76348   0.72768   0.00000  Uiso   1.00
H996   H     0.62917   0.90319   0.77232   0.00000  Uiso   1.00
H997   H     0.62885   0.76352   0.72760   0.00000  Uiso   1.00
H998   H     0.37115   0.90314   0.77240   0.00000  Uiso   1.00
H999   H     0.54809   0.70877   0.79855   0.00000  Uiso   1.00
H1000  H     0.45191   0.95790   0.70145   0.00000  Uiso   1.00
H1001  H     0.45191   0.70889   0.70146   0.00000  Uiso   1.00
H1002  H     0.54809   0.95778   0.79854   0.00000  Uiso   1.00
N1003  N     0.50000   0.95240   0.75000   0.00000  Uiso   1.00
N1004  N     0.50000   0.71427   0.75000   0.00000  Uiso   1.00
O1005  O     0.43892   0.87154   0.74999   0.00000  Uiso   1.00
O1006  O     0.56108   0.79513   0.75001   0.00000  Uiso   1.00
O1007  O     0.56108   0.87154   0.75000   0.00000  Uiso   1.00
O1008  O     0.43892   0.79513   0.74999   0.00000  Uiso   1.00
O1009  O     0.49999   0.87156   0.68392   0.00000  Uiso   1.00
O1010  O     0.50001   0.79511   0.81608   0.00000  Uiso   1.00
O1011  O     0.50001   0.87156   0.81607   0.00000  Uiso   1.00
O1012  O     0.49999   0.79511   0.68392   0.00000  Uiso   1.00
Zn1013 Zn    0.50000   0.88437   0.75000   0.00000  Uiso   1.00
Zn1014 Zn    0.50000   0.78229   0.75000   0.00000  Uiso   1.00
Cl1015 Cl    0.42898   0.88836   0.87536   0.00000  Uiso   1.00
Cl1016 Cl    0.57102   0.77831   0.62464   0.00000  Uiso   1.00
O1017  O     0.39379   0.88522   0.96180   0.00000  Uiso   1.00
H1018  H     0.38420   0.85995   0.94252   0.00000  Uiso   1.00
O1019  O     0.60621   0.78145   0.53820   0.00000  Uiso   1.00
H1020  H     0.61581   0.80672   0.55748   0.00000  Uiso   1.00
C1021  C     0.75330   0.83332   0.75000   0.00000  Uiso   1.00
C1022  C     0.91336   0.83335   0.75000   0.00000  Uiso   1.00
C1023  C     0.76885   0.87497   0.52580   0.00000  Uiso   1.00
C1024  C     0.89782   0.79170   0.97420   0.00000  Uiso   1.00
C1025  C     0.68792   0.79396   0.73766   0.00000  Uiso   1.00
C1026  C     0.97875   0.87271   0.76234   0.00000  Uiso   1.00
C1027  C     0.97857   0.79399   0.73761   0.00000  Uiso   1.00
C1028  C     0.68809   0.87268   0.76239   0.00000  Uiso   1.00
C1029  C     0.95751   0.83336   0.74996   0.00000  Uiso   1.00
C1030  C     0.70916   0.83331   0.75004   0.00000  Uiso   1.00
C1031  C     0.86006   0.69062   0.77698   0.00000  Uiso   1.00
C1032  C     0.80661   0.97605   0.72302   0.00000  Uiso   1.00
C1033  C     0.80661   0.69068   0.72302   0.00000  Uiso   1.00
C1034  C     0.86006   0.97598   0.77698   0.00000  Uiso   1.00
C1035  C     0.83450   0.83339   0.66352   0.00000  Uiso   1.00
C1036  C     0.83217   0.83328   0.83648   0.00000  Uiso   1.00
C1037  C     0.86169   0.80968   0.90646   0.00000  Uiso   1.00
C1038  C     0.80497   0.85698   0.59354   0.00000  Uiso   1.00
C1039  C     0.83037   0.83291   0.88417   0.00000  Uiso   1.00
C1040  C     0.83630   0.83376   0.61583   0.00000  Uiso   1.00
C1041  C     0.79839   0.85547   0.90691   0.00000  Uiso   1.00
C1042  C     0.86828   0.81120   0.59309   0.00000  Uiso   1.00
C1043  C     0.79756   0.85332   0.95404   0.00000  Uiso   1.00
C1044  C     0.86911   0.81335   0.54596   0.00000  Uiso   1.00
C1045  C     0.83192   0.83271   0.97663   0.00000  Uiso   1.00
C1046  C     0.83475   0.83396   0.52337   0.00000  Uiso   1.00
C1047  C     0.86357   0.81075   0.95247   0.00000  Uiso   1.00
C1048  C     0.80309   0.85592   0.54753   0.00000  Uiso   1.00
C1049  C     0.76471   0.87205   0.97974   0.00000  Uiso   1.00
C1050  C     0.90196   0.79462   0.52026   0.00000  Uiso   1.00
H1051  H     0.88598   0.79280   0.88759   0.00000  Uiso   1.00
H1052  H     0.78068   0.87387   0.61241   0.00000  Uiso   1.00
H1053  H     0.74387   0.89015   0.54494   0.00000  Uiso   1.00
H1054  H     0.92280   0.77652   0.95506   0.00000  Uiso   1.00
H1055  H     0.70417   0.76348   0.72768   0.00000  Uiso   1.00
H1056  H     0.96250   0.90319   0.77232   0.00000  Uiso   1.00
H1057  H     0.96218   0.76352   0.72760   0.00000  Uiso   1.00
H1058  H     0.70448   0.90314   0.77240   0.00000  Uiso   1.00
H1059  H     0.88142   0.70877   0.79855   0.00000  Uiso   1.00
H1060  H     0.78524   0.95790   0.70145   0.00000  Uiso   1.00
H1061  H     0.78524   0.70889   0.70146   0.00000  Uiso   1.00
H1062  H     0.88143   0.95778   0.79854   0.00000  Uiso   1.00
N1063  N     0.83333   0.95240   0.75000   0.00000  Uiso   1.00
N1064  N     0.83333   0.71427   0.75000   0.00000  Uiso   1.00
O1065  O     0.77226   0.87154   0.74999   0.00000  Uiso   1.00
O1066  O     0.89441   0.79513   0.75001   0.00000  Uiso   1.00
O1067  O     0.89441   0.87154   0.75000   0.00000  Uiso   1.00
O1068  O     0.77226   0.79513   0.74999   0.00000  Uiso   1.00
O1069  O     0.83333   0.87156   0.68392   0.00000  Uiso   1.00
O1070  O     0.83334   0.79511   0.81608   0.00000  Uiso   1.00
O1071  O     0.83334   0.87156   0.81607   0.00000  Uiso   1.00
O1072  O     0.83333   0.79511   0.68392   0.00000  Uiso   1.00
Zn1073 Zn    0.83333   0.88437   0.75000   0.00000  Uiso   1.00
Zn1074 Zn    0.83333   0.78229   0.75000   0.00000  Uiso   1.00
Cl1075 Cl    0.76231   0.88836   0.87536   0.00000  Uiso   1.00
Cl1076 Cl    0.90436   0.77831   0.62464   0.00000  Uiso   1.00
O1077  O     0.72712   0.88522   0.96180   0.00000  Uiso   1.00
H1078  H     0.71753   0.85995   0.94252   0.00000  Uiso   1.00
O1079  O     0.93954   0.78145   0.53820   0.00000  Uiso   1.00
H1080  H     0.94914   0.80672   0.55748   0.00000  Uiso   1.00
loop_
_geom_bond_atom_site_label_1
_geom_bond_atom_site_label_2
_geom_bond_distance
_geom_bond_site_symmetry_2
_ccdc_geom_bond_type
C1     O48     1.282   .     A
C1     O45     1.282   .     A
C1     C10     1.417   .     S
C2     O47     1.282   .     A
C2     O46     1.282   .     A
C2     C9      1.417   .     S
C3     C28     1.393   .     A
C3     H33     1.085   .     S
C3     C569    1.385   1_554 S
C4     H34     1.085   .     S
C4     C27     1.393   .     A
C4     C570    1.385   .     S
C5     C10     1.397   .     A
C5     H35     1.084   .     S
C5     C127    1.370   1_455 S
C6     C9      1.397   .     A
C6     H36     1.084   .     S
C6     C68     1.370   .     S
C7     C9      1.397   .     A
C7     H37     1.084   .     S
C7     C65     1.370   .     S
C8     H38     1.084   .     S
C8     C10     1.397   .     A
C8     C126    1.370   1_455 S
C11    N44     1.366   .     A
C11    H39     1.082   .     S
C11    C374    1.416   1_545 S
C12    H40     1.082   .     S
C12    N43     1.366   .     A
C12    C193    1.416   .     S
C13    H41     1.082   .     S
C13    N44     1.366   .     A
C13    C372    1.416   1_545 S
C14    H42     1.082   .     S
C14    N43     1.366   .     A
C14    C191    1.416   .     S
C15    O52     1.284   .     A
C15    O49     1.283   .     A
C15    C20     1.427   .     S
C16    O51     1.284   .     A
C16    C19     1.427   .     S
C16    O50     1.283   .     A
C17    H31     1.087   .     S
C17    C27     1.377   .     A
C17    C19     1.385   .     A
C18    H32     1.087   .     S
C18    C28     1.377   .     A
C18    C20     1.385   .     A
C19    C21     1.403   .     A
C20    C22     1.403   .     A
C21    C23     1.410   .     A
C21    Cl55    1.778   .     S
C22    C24     1.410   .     A
C22    Cl56    1.778   .     S
C23    C29     1.421   .     A
C23    C25     1.427   .     A
C24    C30     1.421   .     A
C24    C26     1.427   .     A
C25    C27     1.409   .     A
C25    C566    1.400   .     S
C26    C28     1.409   .     A
C26    C565    1.400   1_554 S
C29    O57     1.374   .     S
C29    C543    1.385   .     S
C30    O59     1.374   .     S
C30    C544    1.385   1_554 S
N43    Zn53    2.009   .     S
N44    Zn54    2.009   .     S
O45    Zn53    1.997   .     S
O46    Zn54    1.997   .     S
O47    Zn53    1.998   .     S
O48    Zn54    1.998   .     S
O49    Zn53    2.012   .     S
O50    Zn54    2.012   .     S
O51    Zn53    2.010   .     S
O52    Zn54    2.010   .     S
O57    H58     0.992   .     S
O59    H60     0.992   .     S
C61    O108    1.282   .     A
C61    O105    1.282   .     A
C61    C70     1.417   .     S
C62    O107    1.282   .     A
C62    O106    1.282   .     A
C62    C69     1.417   .     S
C63    C88     1.393   .     A
C63    H93     1.085   .     S
C63    C629    1.385   1_554 S
C64    H94     1.085   .     S
C64    C87     1.393   .     A
C64    C630    1.385   .     S
C65    C70     1.397   .     A
C65    H95     1.084   .     S
C66    C69     1.397   .     A
C66    H96     1.084   .     S
C66    C128    1.370   .     S
C67    C69     1.397   .     A
C67    H97     1.084   .     S
C67    C125    1.370   .     S
C68    H98     1.084   .     S
C68    C70     1.397   .     A
C71    N104    1.366   .     A
C71    H99     1.082   .     S
C71    C434    1.416   1_545 S
C72    H100    1.082   .     S
C72    N103    1.366   .     A
C72    C253    1.416   .     S
C73    H101    1.082   .     S
C73    N104    1.366   .     A
C73    C432    1.416   1_545 S
C74    H102    1.082   .     S
C74    N103    1.366   .     A
C74    C251    1.416   .     S
C75    O112    1.284   .     A
C75    O109    1.283   .     A
C75    C80     1.427   .     S
C76    O111    1.284   .     A
C76    C79     1.427   .     S
C76    O110    1.283   .     A
C77    H91     1.087   .     S
C77    C87     1.377   .     A
C77    C79     1.385   .     A
C78    H92     1.087   .     S
C78    C88     1.377   .     A
C78    C80     1.385   .     A
C79    C81     1.403   .     A
C80    C82     1.403   .     A
C81    C83     1.410   .     A
C81    Cl115   1.778   .     S
C82    C84     1.410   .     A
C82    Cl116   1.778   .     S
C83    C89     1.421   .     A
C83    C85     1.427   .     A
C84    C90     1.421   .     A
C84    C86     1.427   .     A
C85    C87     1.409   .     A
C85    C626    1.400   .     S
C86    C88     1.409   .     A
C86    C625    1.400   1_554 S
C89    O117    1.374   .     S
C89    C603    1.385   .     S
C90    O119    1.374   .     S
C90    C604    1.385   1_554 S
N103   Zn113   2.009   .     S
N104   Zn114   2.009   .     S
O105   Zn113   1.997   .     S
O106   Zn114   1.997   .     S
O107   Zn113   1.998   .     S
O108   Zn114   1.998   .     S
O109   Zn113   2.012   .     S
O110   Zn114   2.012   .     S
O111   Zn113   2.010   .     S
O112   Zn114   2.010   .     S
O117   H118    0.992   .     S
O119   H120    0.992   .     S
C121   O168    1.282   .     A
C121   O165    1.282   .     A
C121   C130    1.417   .     S
C122   O167    1.282   .     A
C122   O166    1.282   .     A
C122   C129    1.417   .     S
C123   C148    1.393   .     A
C123   H153    1.085   .     S
C123   C689    1.385   1_554 S
C124   H154    1.085   .     S
C124   C147    1.393   .     A
C124   C690    1.385   .     S
C125   C130    1.397   .     A
C125   H155    1.084   .     S
C126   C129    1.397   .     A
C126   H156    1.084   .     S
C126   C8      1.370   1_655 S
C127   C129    1.397   .     A
C127   H157    1.084   .     S
C127   C5      1.370   1_655 S
C128   H158    1.084   .     S
C128   C130    1.397   .     A
C131   N164    1.366   .     A
C131   H159    1.082   .     S
C131   C494    1.416   1_545 S
C132   H160    1.082   .     S
C132   N163    1.366   .     A
C132   C313    1.416   .     S
C133   H161    1.082   .     S
C133   N164    1.366   .     A
C133   C492    1.416   1_545 S
C134   H162    1.082   .     S
C134   N163    1.366   .     A
C134   C311    1.416   .     S
C135   O172    1.284   .     A
C135   O169    1.283   .     A
C135   C140    1.427   .     S
C136   O171    1.284   .     A
C136   C139    1.427   .     S
C136   O170    1.283   .     A
C137   H151    1.087   .     S
C137   C147    1.377   .     A
C137   C139    1.385   .     A
C138   H152    1.087   .     S
C138   C148    1.377   .     A
C138   C140    1.385   .     A
C139   C141    1.403   .     A
C140   C142    1.403   .     A
C141   C143    1.410   .     A
C141   Cl175   1.778   .     S
C142   C144    1.410   .     A
C142   Cl176   1.778   .     S
C143   C149    1.421   .     A
C143   C145    1.427   .     A
C144   C150    1.421   .     A
C144   C146    1.427   .     A
C145   C147    1.409   .     A
C145   C686    1.400   .     S
C146   C148    1.409   .     A
C146   C685    1.400   1_554 S
C149   O177    1.374   .     S
C149   C663    1.385   .     S
C150   O179    1.374   .     S
C150   C664    1.385   1_554 S
N163   Zn173   2.009   .     S
N164   Zn174   2.009   .     S
O165   Zn173   1.997   .     S
O166   Zn174   1.997   .     S
O167   Zn173   1.998   .     S
O168   Zn174   1.998   .     S
O169   Zn173   2.012   .     S
O170   Zn174   2.012   .     S
O171   Zn173   2.010   .     S
O172   Zn174   2.010   .     S
O177   H178    0.992   .     S
O179   H180    0.992   .     S
C181   O228    1.282   .     A
C181   O225    1.282   .     A
C181   C190    1.417   .     S
C182   O227    1.282   .     A
C182   O226    1.282   .     A
C182   C189    1.417   .     S
C183   C208    1.393   .     A
C183   H213    1.085   .     S
C183   C749    1.385   1_554 S
C184   H214    1.085   .     S
C184   C207    1.393   .     A
C184   C750    1.385   .     S
C185   C190    1.397   .     A
C185   H215    1.084   .     S
C185   C307    1.370   1_455 S
C186   C189    1.397   .     A
C186   H216    1.084   .     S
C186   C248    1.370   .     S
C187   C189    1.397   .     A
C187   H217    1.084   .     S
C187   C245    1.370   .     S
C188   H218    1.084   .     S
C188   C190    1.397   .     A
C188   C306    1.370   1_455 S
C191   N224    1.366   .     A
C191   H219    1.082   .     S
C192   H220    1.082   .     S
C192   N223    1.366   .     A
C192   C373    1.416   .     S
C193   H221    1.082   .     S
C193   N224    1.366   .     A
C194   H222    1.082   .     S
C194   N223    1.366   .     A
C194   C371    1.416   .     S
C195   O232    1.284   .     A
C195   O229    1.283   .     A
C195   C200    1.427   .     S
C196   O231    1.284   .     A
C196   C199    1.427   .     S
C196   O230    1.283   .     A
C197   H211    1.087   .     S
C197   C207    1.377   .     A
C197   C199    1.385   .     A
C198   H212    1.087   .     S
C198   C208    1.377   .     A
C198   C200    1.385   .     A
C199   C201    1.403   .     A
C200   C202    1.403   .     A
C201   C203    1.410   .     A
C201   Cl235   1.778   .     S
C202   C204    1.410   .     A
C202   Cl236   1.778   .     S
C203   C209    1.421   .     A
C203   C205    1.427   .     A
C204   C210    1.421   .     A
C204   C206    1.427   .     A
C205   C207    1.409   .     A
C205   C746    1.400   .     S
C206   C208    1.409   .     A
C206   C745    1.400   1_554 S
C209   O237    1.374   .     S
C209   C723    1.385   .     S
C210   O239    1.374   .     S
C210   C724    1.385   1_554 S
N223   Zn233   2.009   .     S
N224   Zn234   2.009   .     S
O225   Zn233   1.997   .     S
O226   Zn234   1.997   .     S
O227   Zn233   1.998   .     S
O228   Zn234   1.998   .     S
O229   Zn233   2.012   .     S
O230   Zn234   2.012   .     S
O231   Zn233   2.010   .     S
O232   Zn234   2.010   .     S
O237   H238    0.992   .     S
O239   H240    0.992   .     S
C241   O288    1.282   .     A
C241   O285    1.282   .     A
C241   C250    1.417   .     S
C242   O287    1.282   .     A
C242   O286    1.282   .     A
C242   C249    1.417   .     S
C243   C268    1.393   .     A
C243   H273    1.085   .     S
C243   C809    1.385   1_554 S
C244   H274    1.085   .     S
C244   C267    1.393   .     A
C244   C810    1.385   .     S
C245   C250    1.397   .     A
C245   H275    1.084   .     S
C246   C249    1.397   .     A
C246   H276    1.084   .     S
C246   C308    1.370   .     S
C247   C249    1.397   .     A
C247   H277    1.084   .     S
C247   C305    1.370   .     S
C248   H278    1.084   .     S
C248   C250    1.397   .     A
C251   N284    1.366   .     A
C251   H279    1.082   .     S
C252   H280    1.082   .     S
C252   N283    1.366   .     A
C252   C433    1.416   .     S
C253   H281    1.082   .     S
C253   N284    1.366   .     A
C254   H282    1.082   .     S
C254   N283    1.366   .     A
C254   C431    1.416   .     S
C255   O292    1.284   .     A
C255   O289    1.283   .     A
C255   C260    1.427   .     S
C256   O291    1.284   .     A
C256   C259    1.427   .     S
C256   O290    1.283   .     A
C257   H271    1.087   .     S
C257   C267    1.377   .     A
C257   C259    1.385   .     A
C258   H272    1.087   .     S
C258   C268    1.377   .     A
C258   C260    1.385   .     A
C259   C261    1.403   .     A
C260   C262    1.403   .     A
C261   C263    1.410   .     A
C261   Cl295   1.778   .     S
C262   C264    1.410   .     A
C262   Cl296   1.778   .     S
C263   C269    1.421   .     A
C263   C265    1.427   .     A
C264   C270    1.421   .     A
C264   C266    1.427   .     A
C265   C267    1.409   .     A
C265   C806    1.400   .     S
C266   C268    1.409   .     A
C266   C805    1.400   1_554 S
C269   O297    1.374   .     S
C269   C783    1.385   .     S
C270   O299    1.374   .     S
C270   C784    1.385   1_554 S
N283   Zn293   2.009   .     S
N284   Zn294   2.009   .     S
O285   Zn293   1.997   .     S
O286   Zn294   1.997   .     S
O287   Zn293   1.998   .     S
O288   Zn294   1.998   .     S
O289   Zn293   2.012   .     S
O290   Zn294   2.012   .     S
O291   Zn293   2.010   .     S
O292   Zn294   2.010   .     S
O297   H298    0.992   .     S
O299   H300    0.992   .     S
C301   O348    1.282   .     A
C301   O345    1.282   .     A
C301   C310    1.417   .     S
C302   O347    1.282   .     A
C302   O346    1.282   .     A
C302   C309    1.417   .     S
C303   C328    1.393   .     A
C303   H333    1.085   .     S
C303   C869    1.385   1_554 S
C304   H334    1.085   .     S
C304   C327    1.393   .     A
C304   C870    1.385   .     S
C305   C310    1.397   .     A
C305   H335    1.084   .     S
C306   C309    1.397   .     A
C306   H336    1.084   .     S
C306   C188    1.370   1_655 S
C307   C309    1.397   .     A
C307   H337    1.084   .     S
C307   C185    1.370   1_655 S
C308   H338    1.084   .     S
C308   C310    1.397   .     A
C311   N344    1.366   .     A
C311   H339    1.082   .     S
C312   H340    1.082   .     S
C312   N343    1.366   .     A
C312   C493    1.416   .     S
C313   H341    1.082   .     S
C313   N344    1.366   .     A
C314   H342    1.082   .     S
C314   N343    1.366   .     A
C314   C491    1.416   .     S
C315   O352    1.284   .     A
C315   O349    1.283   .     A
C315   C320    1.427   .     S
C316   O351    1.284   .     A
C316   C319    1.427   .     S
C316   O350    1.283   .     A
C317   H331    1.087   .     S
C317   C327    1.377   .     A
C317   C319    1.385   .     A
C318   H332    1.087   .     S
C318   C328    1.377   .     A
C318   C320    1.385   .     A
C319   C321    1.403   .     A
C320   C322    1.403   .     A
C321   C323    1.410   .     A
C321   Cl355   1.778   .     S
C322   C324    1.410   .     A
C322   Cl356   1.778   .     S
C323   C329    1.421   .     A
C323   C325    1.427   .     A
C324   C330    1.421   .     A
C324   C326    1.427   .     A
C325   C327    1.409   .     A
C325   C866    1.400   .     S
C326   C328    1.409   .     A
C326   C865    1.400   1_554 S
C329   O357    1.374   .     S
C329   C843    1.385   .     S
C330   O359    1.374   .     S
C330   C844    1.385   1_554 S
N343   Zn353   2.009   .     S
N344   Zn354   2.009   .     S
O345   Zn353   1.997   .     S
O346   Zn354   1.997   .     S
O347   Zn353   1.998   .     S
O348   Zn354   1.998   .     S
O349   Zn353   2.012   .     S
O350   Zn354   2.012   .     S
O351   Zn353   2.010   .     S
O352   Zn354   2.010   .     S
O357   H358    0.992   .     S
O359   H360    0.992   .     S
C361   O408    1.282   .     A
C361   O405    1.282   .     A
C361   C370    1.417   .     S
C362   O407    1.282   .     A
C362   O406    1.282   .     A
C362   C369    1.417   .     S
C363   C388    1.393   .     A
C363   H393    1.085   .     S
C363   C929    1.385   1_554 S
C364   H394    1.085   .     S
C364   C387    1.393   .     A
C364   C930    1.385   .     S
C365   C370    1.397   .     A
C365   H395    1.084   .     S
C365   C487    1.370   1_455 S
C366   C369    1.397   .     A
C366   H396    1.084   .     S
C366   C428    1.370   .     S
C367   C369    1.397   .     A
C367   H397    1.084   .     S
C367   C425    1.370   .     S
C368   H398    1.084   .     S
C368   C370    1.397   .     A
C368   C486    1.370   1_455 S
C371   N404    1.366   .     A
C371   H399    1.082   .     S
C372   H400    1.082   .     S
C372   N403    1.366   .     A
C372   C13     1.416   1_565 S
C373   H401    1.082   .     S
C373   N404    1.366   .     A
C374   H402    1.082   .     S
C374   N403    1.366   .     A
C374   C11     1.416   1_565 S
C375   O412    1.284   .     A
C375   O409    1.283   .     A
C375   C380    1.427   .     S
C376   O411    1.284   .     A
C376   C379    1.427   .     S
C376   O410    1.283   .     A
C377   H391    1.087   .     S
C377   C387    1.377   .     A
C377   C379    1.385   .     A
C378   H392    1.087   .     S
C378   C388    1.377   .     A
C378   C380    1.385   .     A
C379   C381    1.403   .     A
C380   C382    1.403   .     A
C381   C383    1.410   .     A
C381   Cl415   1.778   .     S
C382   C384    1.410   .     A
C382   Cl416   1.778   .     S
C383   C389    1.421   .     A
C383   C385    1.427   .     A
C384   C390    1.421   .     A
C384   C386    1.427   .     A
C385   C387    1.409   .     A
C385   C926    1.400   .     S
C386   C388    1.409   .     A
C386   C925    1.400   1_554 S
C389   O417    1.374   .     S
C389   C903    1.385   .     S
C390   O419    1.374   .     S
C390   C904    1.385   1_554 S
N403   Zn413   2.009   .     S
N404   Zn414   2.009   .     S
O405   Zn413   1.997   .     S
O406   Zn414   1.997   .     S
O407   Zn413   1.998   .     S
O408   Zn414   1.998   .     S
O409   Zn413   2.012   .     S
O410   Zn414   2.012   .     S
O411   Zn413   2.010   .     S
O412   Zn414   2.010   .     S
O417   H418    0.992   .     S
O419   H420    0.992   .     S
C421   O468    1.282   .     A
C421   O465    1.282   .     A
C421   C430    1.417   .     S
C422   O467    1.282   .     A
C422   O466    1.282   .     A
C422   C429    1.417   .     S
C423   C448    1.393   .     A
C423   H453    1.085   .     S
C423   C989    1.385   1_554 S
C424   H454    1.085   .     S
C424   C447    1.393   .     A
C424   C990    1.385   .     S
C425   C430    1.397   .     A
C425   H455    1.084   .     S
C426   C429    1.397   .     A
C426   H456    1.084   .     S
C426   C488    1.370   .     S
C427   C429    1.397   .     A
C427   H457    1.084   .     S
C427   C485    1.370   .     S
C428   H458    1.084   .     S
C428   C430    1.397   .     A
C431   N464    1.366   .     A
C431   H459    1.082   .     S
C432   H460    1.082   .     S
C432   N463    1.366   .     A
C432   C73     1.416   1_565 S
C433   H461    1.082   .     S
C433   N464    1.366   .     A
C434   H462    1.082   .     S
C434   N463    1.366   .     A
C434   C71     1.416   1_565 S
C435   O472    1.284   .     A
C435   O469    1.283   .     A
C435   C440    1.427   .     S
C436   O471    1.284   .     A
C436   C439    1.427   .     S
C436   O470    1.283   .     A
C437   H451    1.087   .     S
C437   C447    1.377   .     A
C437   C439    1.385   .     A
C438   H452    1.087   .     S
C438   C448    1.377   .     A
C438   C440    1.385   .     A
C439   C441    1.403   .     A
C440   C442    1.403   .     A
C441   C443    1.410   .     A
C441   Cl475   1.778   .     S
C442   C444    1.410   .     A
C442   Cl476   1.778   .     S
C443   C449    1.421   .     A
C443   C445    1.427   .     A
C444   C450    1.421   .     A
C444   C446    1.427   .     A
C445   C447    1.409   .     A
C445   C986    1.400   .     S
C446   C448    1.409   .     A
C446   C985    1.400   1_554 S
C449   O477    1.374   .     S
C449   C963    1.385   .     S
C450   O479    1.374   .     S
C450   C964    1.385   1_554 S
N463   Zn473   2.009   .     S
N464   Zn474   2.009   .     S
O465   Zn473   1.997   .     S
O466   Zn474   1.997   .     S
O467   Zn473   1.998   .     S
O468   Zn474   1.998   .     S
O469   Zn473   2.012   .     S
O470   Zn474   2.012   .     S
O471   Zn473   2.010   .     S
O472   Zn474   2.010   .     S
O477   H478    0.992   .     S
O479   H480    0.992   .     S
C481   O528    1.282   .     A
C481   O525    1.282   .     A
C481   C490    1.417   .     S
C482   O527    1.282   .     A
C482   O526    1.282   .     A
C482   C489    1.417   .     S
C483   C508    1.393   .     A
C483   H513    1.085   .     S
C483   C1049   1.385   1_554 S
C484   H514    1.085   .     S
C484   C507    1.393   .     A
C484   C1050   1.385   .     S
C485   C490    1.397   .     A
C485   H515    1.084   .     S
C486   C489    1.397   .     A
C486   H516    1.084   .     S
C486   C368    1.370   1_655 S
C487   C489    1.397   .     A
C487   H517    1.084   .     S
C487   C365    1.370   1_655 S
C488   H518    1.084   .     S
C488   C490    1.397   .     A
C491   N524    1.366   .     A
C491   H519    1.082   .     S
C492   H520    1.082   .     S
C492   N523    1.366   .     A
C492   C133    1.416   1_565 S
C493   H521    1.082   .     S
C493   N524    1.366   .     A
C494   H522    1.082   .     S
C494   N523    1.366   .     A
C494   C131    1.416   1_565 S
C495   O532    1.284   .     A
C495   O529    1.283   .     A
C495   C500    1.427   .     S
C496   O531    1.284   .     A
C496   C499    1.427   .     S
C496   O530    1.283   .     A
C497   H511    1.087   .     S
C497   C507    1.377   .     A
C497   C499    1.385   .     A
C498   H512    1.087   .     S
C498   C508    1.377   .     A
C498   C500    1.385   .     A
C499   C501    1.403   .     A
C500   C502    1.403   .     A
C501   C503    1.410   .     A
C501   Cl535   1.778   .     S
C502   C504    1.410   .     A
C502   Cl536   1.778   .     S
C503   C509    1.421   .     A
C503   C505    1.427   .     A
C504   C510    1.421   .     A
C504   C506    1.427   .     A
C505   C507    1.409   .     A
C505   C1046   1.400   .     S
C506   C508    1.409   .     A
C506   C1045   1.400   1_554 S
C509   O537    1.374   .     S
C509   C1023   1.385   .     S
C510   O539    1.374   .     S
C510   C1024   1.385   1_554 S
N523   Zn533   2.009   .     S
N524   Zn534   2.009   .     S
O525   Zn533   1.997   .     S
O526   Zn534   1.997   .     S
O527   Zn533   1.998   .     S
O528   Zn534   1.998   .     S
O529   Zn533   2.012   .     S
O530   Zn534   2.012   .     S
O531   Zn533   2.010   .     S
O532   Zn534   2.010   .     S
O537   H538    0.992   .     S
O539   H540    0.992   .     S
C541   O588    1.282   .     A
C541   O585    1.282   .     A
C541   C550    1.417   .     S
C542   O587    1.282   .     A
C542   O586    1.282   .     A
C542   C549    1.417   .     S
C543   C568    1.393   .     A
C543   H573    1.085   .     S
C544   H574    1.085   .     S
C544   C567    1.393   .     A
C544   C30     1.385   1_556 S
C545   C550    1.397   .     A
C545   H575    1.084   .     S
C545   C667    1.370   1_455 S
C546   C549    1.397   .     A
C546   H576    1.084   .     S
C546   C608    1.370   .     S
C547   C549    1.397   .     A
C547   H577    1.084   .     S
C547   C605    1.370   .     S
C548   H578    1.084   .     S
C548   C550    1.397   .     A
C548   C666    1.370   1_455 S
C551   N584    1.366   .     A
C551   H579    1.082   .     S
C551   C914    1.416   1_545 S
C552   H580    1.082   .     S
C552   N583    1.366   .     A
C552   C733    1.416   .     S
C553   H581    1.082   .     S
C553   N584    1.366   .     A
C553   C912    1.416   1_545 S
C554   H582    1.082   .     S
C554   N583    1.366   .     A
C554   C731    1.416   .     S
C555   O592    1.284   .     A
C555   O589    1.283   .     A
C555   C560    1.427   .     S
C556   O591    1.284   .     A
C556   C559    1.427   .     S
C556   O590    1.283   .     A
C557   H571    1.087   .     S
C557   C567    1.377   .     A
C557   C559    1.385   .     A
C558   H572    1.087   .     S
C558   C568    1.377   .     A
C558   C560    1.385   .     A
C559   C561    1.403   .     A
C560   C562    1.403   .     A
C561   C563    1.410   .     A
C561   Cl595   1.778   .     S
C562   C564    1.410   .     A
C562   Cl596   1.778   .     S
C563   C569    1.421   .     A
C563   C565    1.427   .     A
C564   C570    1.421   .     A
C564   C566    1.427   .     A
C565   C567    1.409   .     A
C565   C26     1.400   1_556 S
C566   C568    1.409   .     A
C569   O597    1.374   .     S
C569   C3      1.385   1_556 S
C570   O599    1.374   .     S
N583   Zn593   2.009   .     S
N584   Zn594   2.009   .     S
O585   Zn593   1.997   .     S
O586   Zn594   1.997   .     S
O587   Zn593   1.998   .     S
O588   Zn594   1.998   .     S
O589   Zn593   2.012   .     S
O590   Zn594   2.012   .     S
O591   Zn593   2.010   .     S
O592   Zn594   2.010   .     S
O597   H598    0.992   .     S
O599   H600    0.992   .     S
C601   O648    1.282   .     A
C601   O645    1.282   .     A
C601   C610    1.417   .     S
C602   O647    1.282   .     A
C602   O646    1.282   .     A
C602   C609    1.417   .     S
C603   C628    1.393   .     A
C603   H633    1.085   .     S
C604   H634    1.085   .     S
C604   C627    1.393   .     A
C604   C90     1.385   1_556 S
C605   C610    1.397   .     A
C605   H635    1.084   .     S
C606   C609    1.397   .     A
C606   H636    1.084   .     S
C606   C668    1.370   .     S
C607   C609    1.397   .     A
C607   H637    1.084   .     S
C607   C665    1.370   .     S
C608   H638    1.084   .     S
C608   C610    1.397   .     A
C611   N644    1.366   .     A
C611   H639    1.082   .     S
C611   C974    1.416   1_545 S
C612   H640    1.082   .     S
C612   N643    1.366   .     A
C612   C793    1.416   .     S
C613   H641    1.082   .     S
C613   N644    1.366   .     A
C613   C972    1.416   1_545 S
C614   H642    1.082   .     S
C614   N643    1.366   .     A
C614   C791    1.416   .     S
C615   O652    1.284   .     A
C615   O649    1.283   .     A
C615   C620    1.427   .     S
C616   O651    1.284   .     A
C616   C619    1.427   .     S
C616   O650    1.283   .     A
C617   H631    1.087   .     S
C617   C627    1.377   .     A
C617   C619    1.385   .     A
C618   H632    1.087   .     S
C618   C628    1.377   .     A
C618   C620    1.385   .     A
C619   C621    1.403   .     A
C620   C622    1.403   .     A
C621   C623    1.410   .     A
C621   Cl655   1.778   .     S
C622   C624    1.410   .     A
C622   Cl656   1.778   .     S
C623   C629    1.421   .     A
C623   C625    1.427   .     A
C624   C630    1.421   .     A
C624   C626    1.427   .     A
C625   C627    1.409   .     A
C625   C86     1.400   1_556 S
C626   C628    1.409   .     A
C629   O657    1.374   .     S
C629   C63     1.385   1_556 S
C630   O659    1.374   .     S
N643   Zn653   2.009   .     S
N644   Zn654   2.009   .     S
O645   Zn653   1.997   .     S
O646   Zn654   1.997   .     S
O647   Zn653   1.998   .     S
O648   Zn654   1.998   .     S
O649   Zn653   2.012   .     S
O650   Zn654   2.012   .     S
O651   Zn653   2.010   .     S
O652   Zn654   2.010   .     S
O657   H658    0.992   .     S
O659   H660    0.992   .     S
C661   O708    1.282   .     A
C661   O705    1.282   .     A
C661   C670    1.417   .     S
C662   O707    1.282   .     A
C662   O706    1.282   .     A
C662   C669    1.417   .     S
C663   C688    1.393   .     A
C663   H693    1.085   .     S
C664   H694    1.085   .     S
C664   C687    1.393   .     A
C664   C150    1.385   1_556 S
C665   C670    1.397   .     A
C665   H695    1.084   .     S
C666   C669    1.397   .     A
C666   H696    1.084   .     S
C666   C548    1.370   1_655 S
C667   C669    1.397   .     A
C667   H697    1.084   .     S
C667   C545    1.370   1_655 S
C668   H698    1.084   .     S
C668   C670    1.397   .     A
C671   N704    1.366   .     A
C671   H699    1.082   .     S
C671   C1034   1.416   1_545 S
C672   H700    1.082   .     S
C672   N703    1.366   .     A
C672   C853    1.416   .     S
C673   H701    1.082   .     S
C673   N704    1.366   .     A
C673   C1032   1.416   1_545 S
C674   H702    1.082   .     S
C674   N703    1.366   .     A
C674   C851    1.416   .     S
C675   O712    1.284   .     A
C675   O709    1.283   .     A
C675   C680    1.427   .     S
C676   O711    1.284   .     A
C676   C679    1.427   .     S
C676   O710    1.283   .     A
C677   H691    1.087   .     S
C677   C687    1.377   .     A
C677   C679    1.385   .     A
C678   H692    1.087   .     S
C678   C688    1.377   .     A
C678   C680    1.385   .     A
C679   C681    1.403   .     A
C680   C682    1.403   .     A
C681   C683    1.410   .     A
C681   Cl715   1.778   .     S
C682   C684    1.410   .     A
C682   Cl716   1.778   .     S
C683   C689    1.421   .     A
C683   C685    1.427   .     A
C684   C690    1.421   .     A
C684   C686    1.427   .     A
C685   C687    1.409   .     A
C685   C146    1.400   1_556 S
C686   C688    1.409   .     A
C689   O717    1.374   .     S
C689   C123    1.385   1_556 S
C690   O719    1.374   .     S
N703   Zn713   2.009   .     S
N704   Zn714   2.009   .     S
O705   Zn713   1.997   .     S
O706   Zn714   1.997   .     S
O707   Zn713   1.998   .     S
O708   Zn714   1.998   .     S
O709   Zn713   2.012   .     S
O710   Zn714   2.012   .     S
O711   Zn713   2.010   .     S
O712   Zn714   2.010   .     S
O717   H718    0.992   .     S
O719   H720    0.992   .     S
C721   O768    1.282   .     A
C721   O765    1.282   .     A
C721   C730    1.417   .     S
C722   O767    1.282   .     A
C722   O766    1.282   .     A
C722   C729    1.417   .     S
C723   C748    1.393   .     A
C723   H753    1.085   .     S
C724   H754    1.085   .     S
C724   C747    1.393   .     A
C724   C210    1.385   1_556 S
C725   C730    1.397   .     A
C725   H755    1.084   .     S
C725   C847    1.370   1_455 S
C726   C729    1.397   .     A
C726   H756    1.084   .     S
C726   C788    1.370   .     S
C727   C729    1.397   .     A
C727   H757    1.084   .     S
C727   C785    1.370   .     S
C728   H758    1.084   .     S
C728   C730    1.397   .     A
C728   C846    1.370   1_455 S
C731   N764    1.366   .     A
C731   H759    1.082   .     S
C732   H760    1.082   .     S
C732   N763    1.366   .     A
C732   C913    1.416   .     S
C733   H761    1.082   .     S
C733   N764    1.366   .     A
C734   H762    1.082   .     S
C734   N763    1.366   .     A
C734   C911    1.416   .     S
C735   O772    1.284   .     A
C735   O769    1.283   .     A
C735   C740    1.427   .     S
C736   O771    1.284   .     A
C736   C739    1.427   .     S
C736   O770    1.283   .     A
C737   H751    1.087   .     S
C737   C747    1.377   .     A
C737   C739    1.385   .     A
C738   H752    1.087   .     S
C738   C748    1.377   .     A
C738   C740    1.385   .     A
C739   C741    1.403   .     A
C740   C742    1.403   .     A
C741   C743    1.410   .     A
C741   Cl775   1.778   .     S
C742   C744    1.410   .     A
C742   Cl776   1.778   .     S
C743   C749    1.421   .     A
C743   C745    1.427   .     A
C744   C750    1.421   .     A
C744   C746    1.427   .     A
C745   C747    1.409   .     A
C745   C206    1.400   1_556 S
C746   C748    1.409   .     A
C749   O777    1.374   .     S
C749   C183    1.385   1_556 S
C750   O779    1.374   .     S
N763   Zn773   2.009   .     S
N764   Zn774   2.009   .     S
O765   Zn773   1.997   .     S
O766   Zn774   1.997   .     S
O767   Zn773   1.998   .     S
O768   Zn774   1.998   .     S
O769   Zn773   2.012   .     S
O770   Zn774   2.012   .     S
O771   Zn773   2.010   .     S
O772   Zn774   2.010   .     S
O777   H778    0.992   .     S
O779   H780    0.992   .     S
C781   O828    1.282   .     A
C781   O825    1.282   .     A
C781   C790    1.417   .     S
C782   O827    1.282   .     A
C782   O826    1.282   .     A
C782   C789    1.417   .     S
C783   C808    1.393   .     A
C783   H813    1.085   .     S
C784   H814    1.085   .     S
C784   C807    1.393   .     A
C784   C270    1.385   1_556 S
C785   C790    1.397   .     A
C785   H815    1.084   .     S
C786   C789    1.397   .     A
C786   H816    1.084   .     S
C786   C848    1.370   .     S
C787   C789    1.397   .     A
C787   H817    1.084   .     S
C787   C845    1.370   .     S
C788   H818    1.084   .     S
C788   C790    1.397   .     A
C791   N824    1.366   .     A
C791   H819    1.082   .     S
C792   H820    1.082   .     S
C792   N823    1.366   .     A
C792   C973    1.416   .     S
C793   H821    1.082   .     S
C793   N824    1.366   .     A
C794   H822    1.082   .     S
C794   N823    1.366   .     A
C794   C971    1.416   .     S
C795   O832    1.284   .     A
C795   O829    1.283   .     A
C795   C800    1.427   .     S
C796   O831    1.284   .     A
C796   C799    1.427   .     S
C796   O830    1.283   .     A
C797   H811    1.087   .     S
C797   C807    1.377   .     A
C797   C799    1.385   .     A
C798   H812    1.087   .     S
C798   C808    1.377   .     A
C798   C800    1.385   .     A
C799   C801    1.403   .     A
C800   C802    1.403   .     A
C801   C803    1.410   .     A
C801   Cl835   1.778   .     S
C802   C804    1.410   .     A
C802   Cl836   1.778   .     S
C803   C809    1.421   .     A
C803   C805    1.427   .     A
C804   C810    1.421   .     A
C804   C806    1.427   .     A
C805   C807    1.409   .     A
C805   C266    1.400   1_556 S
C806   C808    1.409   .     A
C809   O837    1.374   .     S
C809   C243    1.385   1_556 S
C810   O839    1.374   .     S
N823   Zn833   2.009   .     S
N824   Zn834   2.009   .     S
O825   Zn833   1.997   .     S
O826   Zn834   1.997   .     S
O827   Zn833   1.998   .     S
O828   Zn834   1.998   .     S
O829   Zn833   2.012   .     S
O830   Zn834   2.012   .     S
O831   Zn833   2.010   .     S
O832   Zn834   2.010   .     S
O837   H838    0.992   .     S
O839   H840    0.992   .     S
C841   O888    1.282   .     A
C841   O885    1.282   .     A
C841   C850    1.417   .     S
C842   O887    1.282   .     A
C842   O886    1.282   .     A
C842   C849    1.417   .     S
C843   C868    1.393   .     A
C843   H873    1.085   .     S
C844   H874    1.085   .     S
C844   C867    1.393   .     A
C844   C330    1.385   1_556 S
C845   C850    1.397   .     A
C845   H875    1.084   .     S
C846   C849    1.397   .     A
C846   H876    1.084   .     S
C846   C728    1.370   1_655 S
C847   C849    1.397   .     A
C847   H877    1.084   .     S
C847   C725    1.370   1_655 S
C848   H878    1.084   .     S
C848   C850    1.397   .     A
C851   N884    1.366   .     A
C851   H879    1.082   .     S
C852   H880    1.082   .     S
C852   N883    1.366   .     A
C852   C1033   1.416   .     S
C853   H881    1.082   .     S
C853   N884    1.366   .     A
C854   H882    1.082   .     S
C854   N883    1.366   .     A
C854   C1031   1.416   .     S
C855   O892    1.284   .     A
C855   O889    1.283   .     A
C855   C860    1.427   .     S
C856   O891    1.284   .     A
C856   C859    1.427   .     S
C856   O890    1.283   .     A
C857   H871    1.087   .     S
C857   C867    1.377   .     A
C857   C859    1.385   .     A
C858   H872    1.087   .     S
C858   C868    1.377   .     A
C858   C860    1.385   .     A
C859   C861    1.403   .     A
C860   C862    1.403   .     A
C861   C863    1.410   .     A
C861   Cl895   1.778   .     S
C862   C864    1.410   .     A
C862   Cl896   1.778   .     S
C863   C869    1.421   .     A
C863   C865    1.427   .     A
C864   C870    1.421   .     A
C864   C866    1.427   .     A
C865   C867    1.409   .     A
C865   C326    1.400   1_556 S
C866   C868    1.409   .     A
C869   O897    1.374   .     S
C869   C303    1.385   1_556 S
C870   O899    1.374   .     S
N883   Zn893   2.009   .     S
N884   Zn894   2.009   .     S
O885   Zn893   1.997   .     S
O886   Zn894   1.997   .     S
O887   Zn893   1.998   .     S
O888   Zn894   1.998   .     S
O889   Zn893   2.012   .     S
O890   Zn894   2.012   .     S
O891   Zn893   2.010   .     S
O892   Zn894   2.010   .     S
O897   H898    0.992   .     S
O899   H900    0.992   .     S
C901   O948    1.282   .     A
C901   O945    1.282   .     A
C901   C910    1.417   .     S
C902   O947    1.282   .     A
C902   O946    1.282   .     A
C902   C909    1.417   .     S
C903   C928    1.393   .     A
C903   H933    1.085   .     S
C904   H934    1.085   .     S
C904   C927    1.393   .     A
C904   C390    1.385   1_556 S
C905   C910    1.397   .     A
C905   H935    1.084   .     S
C905   C1027   1.370   1_455 S
C906   C909    1.397   .     A
C906   H936    1.084   .     S
C906   C968    1.370   .     S
C907   C909    1.397   .     A
C907   H937    1.084   .     S
C907   C965    1.370   .     S
C908   H938    1.084   .     S
C908   C910    1.397   .     A
C908   C1026   1.370   1_455 S
C911   N944    1.366   .     A
C911   H939    1.082   .     S
C912   H940    1.082   .     S
C912   N943    1.366   .     A
C912   C553    1.416   1_565 S
C913   H941    1.082   .     S
C913   N944    1.366   .     A
C914   H942    1.082   .     S
C914   N943    1.366   .     A
C914   C551    1.416   1_565 S
C915   O952    1.284   .     A
C915   O949    1.283   .     A
C915   C920    1.427   .     S
C916   O951    1.284   .     A
C916   C919    1.427   .     S
C916   O950    1.283   .     A
C917   H931    1.087   .     S
C917   C927    1.377   .     A
C917   C919    1.385   .     A
C918   H932    1.087   .     S
C918   C928    1.377   .     A
C918   C920    1.385   .     A
C919   C921    1.403   .     A
C920   C922    1.403   .     A
C921   C923    1.410   .     A
C921   Cl955   1.778   .     S
C922   C924    1.410   .     A
C922   Cl956   1.778   .     S
C923   C929    1.421   .     A
C923   C925    1.427   .     A
C924   C930    1.421   .     A
C924   C926    1.427   .     A
C925   C927    1.409   .     A
C925   C386    1.400   1_556 S
C926   C928    1.409   .     A
C929   O957    1.374   .     S
C929   C363    1.385   1_556 S
C930   O959    1.374   .     S
N943   Zn953   2.009   .     S
N944   Zn954   2.009   .     S
O945   Zn953   1.997   .     S
O946   Zn954   1.997   .     S
O947   Zn953   1.998   .     S
O948   Zn954   1.998   .     S
O949   Zn953   2.012   .     S
O950   Zn954   2.012   .     S
O951   Zn953   2.010   .     S
O952   Zn954   2.010   .     S
O957   H958    0.992   .     S
O959   H960    0.992   .     S
C961   O1008   1.282   .     A
C961   O1005   1.282   .     A
C961   C970    1.417   .     S
C962   O1007   1.282   .     A
C962   O1006   1.282   .     A
C962   C969    1.417   .     S
C963   C988    1.393   .     A
C963   H993    1.085   .     S
C964   H994    1.085   .     S
C964   C987    1.393   .     A
C964   C450    1.385   1_556 S
C965   C970    1.397   .     A
C965   H995    1.084   .     S
C966   C969    1.397   .     A
C966   H996    1.084   .     S
C966   C1028   1.370   .     S
C967   C969    1.397   .     A
C967   H997    1.084   .     S
C967   C1025   1.370   .     S
C968   H998    1.084   .     S
C968   C970    1.397   .     A
C971   N1004   1.366   .     A
C971   H999    1.082   .     S
C972   H1000   1.082   .     S
C972   N1003   1.366   .     A
C972   C613    1.416   1_565 S
C973   H1001   1.082   .     S
C973   N1004   1.366   .     A
C974   H1002   1.082   .     S
C974   N1003   1.366   .     A
C974   C611    1.416   1_565 S
C975   O1012   1.284   .     A
C975   O1009   1.283   .     A
C975   C980    1.427   .     S
C976   O1011   1.284   .     A
C976   C979    1.427   .     S
C976   O1010   1.283   .     A
C977   H991    1.087   .     S
C977   C987    1.377   .     A
C977   C979    1.385   .     A
C978   H992    1.087   .     S
C978   C988    1.377   .     A
C978   C980    1.385   .     A
C979   C981    1.403   .     A
C980   C982    1.403   .     A
C981   C983    1.410   .     A
C981   Cl1015  1.778   .     S
C982   C984    1.410   .     A
C982   Cl1016  1.778   .     S
C983   C989    1.421   .     A
C983   C985    1.427   .     A
C984   C990    1.421   .     A
C984   C986    1.427   .     A
C985   C987    1.409   .     A
C985   C446    1.400   1_556 S
C986   C988    1.409   .     A
C989   O1017   1.374   .     S
C989   C423    1.385   1_556 S
C990   O1019   1.374   .     S
N1003  Zn1013  2.009   .     S
N1004  Zn1014  2.009   .     S
O1005  Zn1013  1.997   .     S
O1006  Zn1014  1.997   .     S
O1007  Zn1013  1.998   .     S
O1008  Zn1014  1.998   .     S
O1009  Zn1013  2.012   .     S
O1010  Zn1014  2.012   .     S
O1011  Zn1013  2.010   .     S
O1012  Zn1014  2.010   .     S
O1017  H1018   0.992   .     S
O1019  H1020   0.992   .     S
C1021  O1068   1.282   .     A
C1021  O1065   1.282   .     A
C1021  C1030   1.417   .     S
C1022  O1067   1.282   .     A
C1022  O1066   1.282   .     A
C1022  C1029   1.417   .     S
C1023  C1048   1.393   .     A
C1023  H1053   1.085   .     S
C1024  H1054   1.085   .     S
C1024  C1047   1.393   .     A
C1024  C510    1.385   1_556 S
C1025  C1030   1.397   .     A
C1025  H1055   1.084   .     S
C1026  C1029   1.397   .     A
C1026  H1056   1.084   .     S
C1026  C908    1.370   1_655 S
C1027  C1029   1.397   .     A
C1027  H1057   1.084   .     S
C1027  C905    1.370   1_655 S
C1028  H1058   1.084   .     S
C1028  C1030   1.397   .     A
C1031  N1064   1.366   .     A
C1031  H1059   1.082   .     S
C1032  H1060   1.082   .     S
C1032  N1063   1.366   .     A
C1032  C673    1.416   1_565 S
C1033  H1061   1.082   .     S
C1033  N1064   1.366   .     A
C1034  H1062   1.082   .     S
C1034  N1063   1.366   .     A
C1034  C671    1.416   1_565 S
C1035  O1072   1.284   .     A
C1035  O1069   1.283   .     A
C1035  C1040   1.427   .     S
C1036  O1071   1.284   .     A
C1036  C1039   1.427   .     S
C1036  O1070   1.283   .     A
C1037  H1051   1.087   .     S
C1037  C1047   1.377   .     A
C1037  C1039   1.385   .     A
C1038  H1052   1.087   .     S
C1038  C1048   1.377   .     A
C1038  C1040   1.385   .     A
C1039  C1041   1.403   .     A
C1040  C1042   1.403   .     A
C1041  C1043   1.410   .     A
C1041  Cl1075  1.778   .     S
C1042  C1044   1.410   .     A
C1042  Cl1076  1.778   .     S
C1043  C1049   1.421   .     A
C1043  C1045   1.427   .     A
C1044  C1050   1.421   .     A
C1044  C1046   1.427   .     A
C1045  C1047   1.409   .     A
C1045  C506    1.400   1_556 S
C1046  C1048   1.409   .     A
C1049  O1077   1.374   .     S
C1049  C483    1.385   1_556 S
C1050  O1079   1.374   .     S
N1063  Zn1073  2.009   .     S
N1064  Zn1074  2.009   .     S
O1065  Zn1073  1.997   .     S
O1066  Zn1074  1.997   .     S
O1067  Zn1073  1.998   .     S
O1068  Zn1074  1.998   .     S
O1069  Zn1073  2.012   .     S
O1070  Zn1074  2.012   .     S
O1071  Zn1073  2.010   .     S
O1072  Zn1074  2.010   .     S
O1077  H1078   0.992   .     S
O1079  H1080   0.992   .     S
