data_str_m3_o2_o5_pcu_sym.13
_audit_creation_date              2020-01-03
_audit_creation_method            'Materials Studio'
_symmetry_space_group_name_H-M    'P1'
_symmetry_Int_Tables_number       1
_symmetry_cell_setting            triclinic
loop_
_symmetry_equiv_pos_as_xyz
  x,y,z
_cell_length_a                    29.9496
_cell_length_b                    28.3771
_cell_length_c                    26.7307
_cell_angle_alpha                 90.0005
_cell_angle_beta                  90.0279
_cell_angle_gamma                 90.0000
loop_
_atom_site_label
_atom_site_type_symbol
_atom_site_fract_x
_atom_site_fract_y
_atom_site_fract_z
_atom_site_U_iso_or_equiv
_atom_site_adp_type
_atom_site_occupancy
O1     O     0.18453   0.28974   0.16667   0.00000  Uiso   1.00
O2     O     0.31547   0.21026   0.16666   0.00000  Uiso   1.00
O3     O     0.31547   0.28974   0.16666   0.00000  Uiso   1.00
O4     O     0.18453   0.21026   0.16667   0.00000  Uiso   1.00
C5     C     0.16398   0.25000   0.16666   0.00000  Uiso   1.00
C6     C     0.33602   0.25000   0.16667   0.00000  Uiso   1.00
O7     O     0.25000   0.28973   0.09511   0.00000  Uiso   1.00
O8     O     0.25000   0.21027   0.23822   0.00000  Uiso   1.00
O9     O     0.25000   0.28973   0.23822   0.00000  Uiso   1.00
O10    O     0.25000   0.21027   0.09511   0.00000  Uiso   1.00
C11    C     0.22750   0.05266   0.12935   0.00000  Uiso   1.00
C12    C     0.28642   0.44739   0.18568   0.00000  Uiso   1.00
C13    C     0.27250   0.05266   0.20398   0.00000  Uiso   1.00
C14    C     0.21358   0.44739   0.14765   0.00000  Uiso   1.00
C15    C     0.24998   0.25000   0.07286   0.00000  Uiso   1.00
C16    C     0.25001   0.25000   0.26047   0.00000  Uiso   1.00
Zn17   Zn    0.25000   0.30307   0.16667   0.00000  Uiso   1.00
Zn18   Zn    0.25000   0.19693   0.16667   0.00000  Uiso   1.00
H19    H     0.21032   0.12162   0.10129   0.00000  Uiso   1.00
H20    H     0.31388   0.37852   0.20031   0.00000  Uiso   1.00
H21    H     0.28968   0.12162   0.23204   0.00000  Uiso   1.00
H22    H     0.18612   0.37852   0.13303   0.00000  Uiso   1.00
N23    N     0.25000   0.12624   0.16667   0.00000  Uiso   1.00
N24    N     0.25000   0.37376   0.16667   0.00000  Uiso   1.00
C25    C     0.25000   0.02671   0.16667   0.00000  Uiso   1.00
C26    C     0.25000   0.47334   0.16667   0.00000  Uiso   1.00
C27    C     0.24999   0.24999   0.02178   0.00000  Uiso   1.00
C28    C     0.25000   0.24999   0.31155   0.00000  Uiso   1.00
C29    C     0.04658   0.27364   0.20447   0.00000  Uiso   1.00
C30    C     0.45342   0.22623   0.20452   0.00000  Uiso   1.00
C31    C     0.45342   0.27358   0.12882   0.00000  Uiso   1.00
C32    C     0.04657   0.22616   0.12886   0.00000  Uiso   1.00
H33    H     0.02804   0.29144   0.23374   0.00000  Uiso   1.00
H34    H     0.47196   0.20844   0.23381   0.00000  Uiso   1.00
H35    H     0.47196   0.29133   0.09952   0.00000  Uiso   1.00
H36    H     0.02804   0.20832   0.09961   0.00000  Uiso   1.00
C37    C     0.09288   0.27371   0.20522   0.00000  Uiso   1.00
C38    C     0.40712   0.22626   0.20528   0.00000  Uiso   1.00
C39    C     0.40712   0.27364   0.12807   0.00000  Uiso   1.00
C40    C     0.09288   0.22619   0.12809   0.00000  Uiso   1.00
C41    C     0.11604   0.24998   0.16665   0.00000  Uiso   1.00
C42    C     0.38396   0.24998   0.16669   0.00000  Uiso   1.00
C43    C     0.02394   0.24988   0.16667   0.00000  Uiso   1.00
C44    C     0.47606   0.24988   0.16666   0.00000  Uiso   1.00
C45    C     0.22780   0.10225   0.13014   0.00000  Uiso   1.00
C46    C     0.28568   0.39780   0.18547   0.00000  Uiso   1.00
C47    C     0.27220   0.10225   0.20319   0.00000  Uiso   1.00
C48    C     0.21432   0.39780   0.14786   0.00000  Uiso   1.00
H49    H     0.21022   0.03495   0.09918   0.00000  Uiso   1.00
H50    H     0.31573   0.46510   0.20005   0.00000  Uiso   1.00
H51    H     0.28978   0.03495   0.23415   0.00000  Uiso   1.00
H52    H     0.18427   0.46510   0.13329   0.00000  Uiso   1.00
N53    N     0.11565   0.29656   0.24594   0.00000  Uiso   1.00
O54    O     0.14881   0.27574   0.26828   0.00000  Uiso   1.00
O55    O     0.09901   0.33459   0.26576   0.00000  Uiso   1.00
N56    N     0.38434   0.20344   0.24600   0.00000  Uiso   1.00
O57    O     0.35118   0.22428   0.26829   0.00000  Uiso   1.00
O58    O     0.40092   0.16538   0.26582   0.00000  Uiso   1.00
N59    N     0.38435   0.29642   0.08731   0.00000  Uiso   1.00
O60    O     0.35117   0.27558   0.06502   0.00000  Uiso   1.00
O61    O     0.40100   0.33439   0.06738   0.00000  Uiso   1.00
N62    N     0.11565   0.20332   0.08742   0.00000  Uiso   1.00
O63    O     0.14881   0.22411   0.06509   0.00000  Uiso   1.00
O64    O     0.09907   0.16522   0.06767   0.00000  Uiso   1.00
O65    O     0.68453   0.28974   0.16667   0.00000  Uiso   1.00
O66    O     0.81547   0.21026   0.16666   0.00000  Uiso   1.00
O67    O     0.81547   0.28974   0.16666   0.00000  Uiso   1.00
O68    O     0.68453   0.21026   0.16667   0.00000  Uiso   1.00
C69    C     0.66398   0.25000   0.16666   0.00000  Uiso   1.00
C70    C     0.83602   0.25000   0.16667   0.00000  Uiso   1.00
O71    O     0.75000   0.28973   0.09511   0.00000  Uiso   1.00
O72    O     0.75000   0.21027   0.23822   0.00000  Uiso   1.00
O73    O     0.75000   0.28973   0.23822   0.00000  Uiso   1.00
O74    O     0.75000   0.21027   0.09511   0.00000  Uiso   1.00
C75    C     0.72750   0.05266   0.12935   0.00000  Uiso   1.00
C76    C     0.78642   0.44739   0.18568   0.00000  Uiso   1.00
C77    C     0.77250   0.05266   0.20398   0.00000  Uiso   1.00
C78    C     0.71358   0.44739   0.14765   0.00000  Uiso   1.00
C79    C     0.74998   0.25000   0.07286   0.00000  Uiso   1.00
C80    C     0.75001   0.25000   0.26047   0.00000  Uiso   1.00
Zn81   Zn    0.75000   0.30307   0.16667   0.00000  Uiso   1.00
Zn82   Zn    0.75000   0.19693   0.16667   0.00000  Uiso   1.00
H83    H     0.71032   0.12162   0.10129   0.00000  Uiso   1.00
H84    H     0.81388   0.37852   0.20031   0.00000  Uiso   1.00
H85    H     0.78968   0.12162   0.23204   0.00000  Uiso   1.00
H86    H     0.68612   0.37852   0.13303   0.00000  Uiso   1.00
N87    N     0.75000   0.12624   0.16667   0.00000  Uiso   1.00
N88    N     0.75000   0.37376   0.16667   0.00000  Uiso   1.00
C89    C     0.75000   0.02671   0.16667   0.00000  Uiso   1.00
C90    C     0.75000   0.47334   0.16667   0.00000  Uiso   1.00
C91    C     0.74999   0.24999   0.02178   0.00000  Uiso   1.00
C92    C     0.75000   0.24999   0.31155   0.00000  Uiso   1.00
C93    C     0.54658   0.27364   0.20447   0.00000  Uiso   1.00
C94    C     0.95342   0.22623   0.20452   0.00000  Uiso   1.00
C95    C     0.95342   0.27358   0.12882   0.00000  Uiso   1.00
C96    C     0.54657   0.22616   0.12886   0.00000  Uiso   1.00
H97    H     0.52804   0.29144   0.23374   0.00000  Uiso   1.00
H98    H     0.97196   0.20844   0.23381   0.00000  Uiso   1.00
H99    H     0.97196   0.29133   0.09952   0.00000  Uiso   1.00
H100   H     0.52804   0.20832   0.09961   0.00000  Uiso   1.00
C101   C     0.59288   0.27371   0.20522   0.00000  Uiso   1.00
C102   C     0.90712   0.22626   0.20528   0.00000  Uiso   1.00
C103   C     0.90712   0.27364   0.12807   0.00000  Uiso   1.00
C104   C     0.59288   0.22619   0.12809   0.00000  Uiso   1.00
C105   C     0.61604   0.24998   0.16665   0.00000  Uiso   1.00
C106   C     0.88396   0.24998   0.16669   0.00000  Uiso   1.00
C107   C     0.52394   0.24988   0.16667   0.00000  Uiso   1.00
C108   C     0.97606   0.24988   0.16666   0.00000  Uiso   1.00
C109   C     0.72780   0.10225   0.13014   0.00000  Uiso   1.00
C110   C     0.78568   0.39780   0.18547   0.00000  Uiso   1.00
C111   C     0.77220   0.10225   0.20319   0.00000  Uiso   1.00
C112   C     0.71432   0.39780   0.14786   0.00000  Uiso   1.00
H113   H     0.71022   0.03495   0.09918   0.00000  Uiso   1.00
H114   H     0.81573   0.46510   0.20005   0.00000  Uiso   1.00
H115   H     0.78978   0.03495   0.23415   0.00000  Uiso   1.00
H116   H     0.68427   0.46510   0.13329   0.00000  Uiso   1.00
N117   N     0.61565   0.29656   0.24594   0.00000  Uiso   1.00
O118   O     0.64881   0.27574   0.26828   0.00000  Uiso   1.00
O119   O     0.59901   0.33459   0.26576   0.00000  Uiso   1.00
N120   N     0.88434   0.20344   0.24600   0.00000  Uiso   1.00
O121   O     0.85118   0.22428   0.26829   0.00000  Uiso   1.00
O122   O     0.90092   0.16538   0.26582   0.00000  Uiso   1.00
N123   N     0.88435   0.29642   0.08731   0.00000  Uiso   1.00
O124   O     0.85117   0.27558   0.06502   0.00000  Uiso   1.00
O125   O     0.90100   0.33439   0.06738   0.00000  Uiso   1.00
N126   N     0.61565   0.20332   0.08742   0.00000  Uiso   1.00
O127   O     0.64881   0.22411   0.06509   0.00000  Uiso   1.00
O128   O     0.59907   0.16522   0.06767   0.00000  Uiso   1.00
O129   O     0.18453   0.78974   0.16667   0.00000  Uiso   1.00
O130   O     0.31547   0.71026   0.16666   0.00000  Uiso   1.00
O131   O     0.31547   0.78974   0.16666   0.00000  Uiso   1.00
O132   O     0.18453   0.71026   0.16667   0.00000  Uiso   1.00
C133   C     0.16398   0.75000   0.16666   0.00000  Uiso   1.00
C134   C     0.33602   0.75000   0.16667   0.00000  Uiso   1.00
O135   O     0.25000   0.78973   0.09511   0.00000  Uiso   1.00
O136   O     0.25000   0.71027   0.23822   0.00000  Uiso   1.00
O137   O     0.25000   0.78973   0.23822   0.00000  Uiso   1.00
O138   O     0.25000   0.71027   0.09511   0.00000  Uiso   1.00
C139   C     0.22750   0.55266   0.12935   0.00000  Uiso   1.00
C140   C     0.28642   0.94739   0.18568   0.00000  Uiso   1.00
C141   C     0.27250   0.55266   0.20398   0.00000  Uiso   1.00
C142   C     0.21358   0.94739   0.14765   0.00000  Uiso   1.00
C143   C     0.24998   0.75000   0.07286   0.00000  Uiso   1.00
C144   C     0.25001   0.75000   0.26047   0.00000  Uiso   1.00
Zn145  Zn    0.25000   0.80307   0.16667   0.00000  Uiso   1.00
Zn146  Zn    0.25000   0.69693   0.16667   0.00000  Uiso   1.00
H147   H     0.21032   0.62162   0.10129   0.00000  Uiso   1.00
H148   H     0.31388   0.87852   0.20031   0.00000  Uiso   1.00
H149   H     0.28968   0.62162   0.23204   0.00000  Uiso   1.00
H150   H     0.18612   0.87852   0.13303   0.00000  Uiso   1.00
N151   N     0.25000   0.62624   0.16667   0.00000  Uiso   1.00
N152   N     0.25000   0.87376   0.16667   0.00000  Uiso   1.00
C153   C     0.25000   0.52671   0.16667   0.00000  Uiso   1.00
C154   C     0.25000   0.97334   0.16667   0.00000  Uiso   1.00
C155   C     0.24999   0.74999   0.02178   0.00000  Uiso   1.00
C156   C     0.25000   0.74999   0.31155   0.00000  Uiso   1.00
C157   C     0.04658   0.77364   0.20447   0.00000  Uiso   1.00
C158   C     0.45342   0.72623   0.20452   0.00000  Uiso   1.00
C159   C     0.45342   0.77358   0.12882   0.00000  Uiso   1.00
C160   C     0.04657   0.72616   0.12886   0.00000  Uiso   1.00
H161   H     0.02804   0.79144   0.23374   0.00000  Uiso   1.00
H162   H     0.47196   0.70844   0.23381   0.00000  Uiso   1.00
H163   H     0.47196   0.79133   0.09952   0.00000  Uiso   1.00
H164   H     0.02804   0.70832   0.09961   0.00000  Uiso   1.00
C165   C     0.09288   0.77371   0.20522   0.00000  Uiso   1.00
C166   C     0.40712   0.72626   0.20528   0.00000  Uiso   1.00
C167   C     0.40712   0.77364   0.12807   0.00000  Uiso   1.00
C168   C     0.09288   0.72619   0.12809   0.00000  Uiso   1.00
C169   C     0.11604   0.74998   0.16665   0.00000  Uiso   1.00
C170   C     0.38396   0.74998   0.16669   0.00000  Uiso   1.00
C171   C     0.02394   0.74988   0.16667   0.00000  Uiso   1.00
C172   C     0.47606   0.74988   0.16666   0.00000  Uiso   1.00
C173   C     0.22780   0.60225   0.13014   0.00000  Uiso   1.00
C174   C     0.28568   0.89780   0.18547   0.00000  Uiso   1.00
C175   C     0.27220   0.60225   0.20319   0.00000  Uiso   1.00
C176   C     0.21432   0.89780   0.14786   0.00000  Uiso   1.00
H177   H     0.21022   0.53495   0.09918   0.00000  Uiso   1.00
H178   H     0.31573   0.96510   0.20005   0.00000  Uiso   1.00
H179   H     0.28978   0.53495   0.23415   0.00000  Uiso   1.00
H180   H     0.18427   0.96510   0.13329   0.00000  Uiso   1.00
N181   N     0.11565   0.79656   0.24594   0.00000  Uiso   1.00
O182   O     0.14881   0.77574   0.26828   0.00000  Uiso   1.00
O183   O     0.09901   0.83459   0.26576   0.00000  Uiso   1.00
N184   N     0.38434   0.70344   0.24600   0.00000  Uiso   1.00
O185   O     0.35118   0.72428   0.26829   0.00000  Uiso   1.00
O186   O     0.40092   0.66538   0.26582   0.00000  Uiso   1.00
N187   N     0.38435   0.79642   0.08731   0.00000  Uiso   1.00
O188   O     0.35117   0.77558   0.06502   0.00000  Uiso   1.00
O189   O     0.40100   0.83439   0.06738   0.00000  Uiso   1.00
N190   N     0.11565   0.70332   0.08742   0.00000  Uiso   1.00
O191   O     0.14881   0.72411   0.06509   0.00000  Uiso   1.00
O192   O     0.09907   0.66522   0.06767   0.00000  Uiso   1.00
O193   O     0.68453   0.78974   0.16667   0.00000  Uiso   1.00
O194   O     0.81547   0.71026   0.16666   0.00000  Uiso   1.00
O195   O     0.81547   0.78974   0.16666   0.00000  Uiso   1.00
O196   O     0.68453   0.71026   0.16667   0.00000  Uiso   1.00
C197   C     0.66398   0.75000   0.16666   0.00000  Uiso   1.00
C198   C     0.83602   0.75000   0.16667   0.00000  Uiso   1.00
O199   O     0.75000   0.78973   0.09511   0.00000  Uiso   1.00
O200   O     0.75000   0.71027   0.23822   0.00000  Uiso   1.00
O201   O     0.75000   0.78973   0.23822   0.00000  Uiso   1.00
O202   O     0.75000   0.71027   0.09511   0.00000  Uiso   1.00
C203   C     0.72750   0.55266   0.12935   0.00000  Uiso   1.00
C204   C     0.78642   0.94739   0.18568   0.00000  Uiso   1.00
C205   C     0.77250   0.55266   0.20398   0.00000  Uiso   1.00
C206   C     0.71358   0.94739   0.14765   0.00000  Uiso   1.00
C207   C     0.74998   0.75000   0.07286   0.00000  Uiso   1.00
C208   C     0.75001   0.75000   0.26047   0.00000  Uiso   1.00
Zn209  Zn    0.75000   0.80307   0.16667   0.00000  Uiso   1.00
Zn210  Zn    0.75000   0.69693   0.16667   0.00000  Uiso   1.00
H211   H     0.71032   0.62162   0.10129   0.00000  Uiso   1.00
H212   H     0.81388   0.87852   0.20031   0.00000  Uiso   1.00
H213   H     0.78968   0.62162   0.23204   0.00000  Uiso   1.00
H214   H     0.68612   0.87852   0.13303   0.00000  Uiso   1.00
N215   N     0.75000   0.62624   0.16667   0.00000  Uiso   1.00
N216   N     0.75000   0.87376   0.16667   0.00000  Uiso   1.00
C217   C     0.75000   0.52671   0.16667   0.00000  Uiso   1.00
C218   C     0.75000   0.97334   0.16667   0.00000  Uiso   1.00
C219   C     0.74999   0.74999   0.02178   0.00000  Uiso   1.00
C220   C     0.75000   0.74999   0.31155   0.00000  Uiso   1.00
C221   C     0.54658   0.77364   0.20447   0.00000  Uiso   1.00
C222   C     0.95342   0.72623   0.20452   0.00000  Uiso   1.00
C223   C     0.95342   0.77358   0.12882   0.00000  Uiso   1.00
C224   C     0.54657   0.72616   0.12886   0.00000  Uiso   1.00
H225   H     0.52804   0.79144   0.23374   0.00000  Uiso   1.00
H226   H     0.97196   0.70844   0.23381   0.00000  Uiso   1.00
H227   H     0.97196   0.79133   0.09952   0.00000  Uiso   1.00
H228   H     0.52804   0.70832   0.09961   0.00000  Uiso   1.00
C229   C     0.59288   0.77371   0.20522   0.00000  Uiso   1.00
C230   C     0.90712   0.72626   0.20528   0.00000  Uiso   1.00
C231   C     0.90712   0.77364   0.12807   0.00000  Uiso   1.00
C232   C     0.59288   0.72619   0.12809   0.00000  Uiso   1.00
C233   C     0.61604   0.74998   0.16665   0.00000  Uiso   1.00
C234   C     0.88396   0.74998   0.16669   0.00000  Uiso   1.00
C235   C     0.52394   0.74988   0.16667   0.00000  Uiso   1.00
C236   C     0.97606   0.74988   0.16666   0.00000  Uiso   1.00
C237   C     0.72780   0.60225   0.13014   0.00000  Uiso   1.00
C238   C     0.78568   0.89780   0.18547   0.00000  Uiso   1.00
C239   C     0.77220   0.60225   0.20319   0.00000  Uiso   1.00
C240   C     0.71432   0.89780   0.14786   0.00000  Uiso   1.00
H241   H     0.71022   0.53495   0.09918   0.00000  Uiso   1.00
H242   H     0.81573   0.96510   0.20005   0.00000  Uiso   1.00
H243   H     0.78978   0.53495   0.23415   0.00000  Uiso   1.00
H244   H     0.68427   0.96510   0.13329   0.00000  Uiso   1.00
N245   N     0.61565   0.79656   0.24594   0.00000  Uiso   1.00
O246   O     0.64881   0.77574   0.26828   0.00000  Uiso   1.00
O247   O     0.59901   0.83459   0.26576   0.00000  Uiso   1.00
N248   N     0.88434   0.70344   0.24600   0.00000  Uiso   1.00
O249   O     0.85118   0.72428   0.26829   0.00000  Uiso   1.00
O250   O     0.90092   0.66538   0.26582   0.00000  Uiso   1.00
N251   N     0.88435   0.79642   0.08731   0.00000  Uiso   1.00
O252   O     0.85117   0.77558   0.06502   0.00000  Uiso   1.00
O253   O     0.90100   0.83439   0.06738   0.00000  Uiso   1.00
N254   N     0.61565   0.70332   0.08742   0.00000  Uiso   1.00
O255   O     0.64881   0.72411   0.06509   0.00000  Uiso   1.00
O256   O     0.59907   0.66522   0.06767   0.00000  Uiso   1.00
O257   O     0.18453   0.28974   0.50000   0.00000  Uiso   1.00
O258   O     0.31547   0.21026   0.50000   0.00000  Uiso   1.00
O259   O     0.31547   0.28974   0.50000   0.00000  Uiso   1.00
O260   O     0.18453   0.21026   0.50000   0.00000  Uiso   1.00
C261   C     0.16398   0.25000   0.49999   0.00000  Uiso   1.00
C262   C     0.33602   0.25000   0.50001   0.00000  Uiso   1.00
O263   O     0.25000   0.28973   0.42845   0.00000  Uiso   1.00
O264   O     0.25000   0.21027   0.57155   0.00000  Uiso   1.00
O265   O     0.25000   0.28973   0.57155   0.00000  Uiso   1.00
O266   O     0.25000   0.21027   0.42845   0.00000  Uiso   1.00
C267   C     0.22750   0.05266   0.46268   0.00000  Uiso   1.00
C268   C     0.28642   0.44739   0.51902   0.00000  Uiso   1.00
C269   C     0.27250   0.05266   0.53732   0.00000  Uiso   1.00
C270   C     0.21358   0.44739   0.48099   0.00000  Uiso   1.00
C271   C     0.24998   0.25000   0.40619   0.00000  Uiso   1.00
C272   C     0.25001   0.25000   0.59381   0.00000  Uiso   1.00
Zn273  Zn    0.25000   0.30307   0.50000   0.00000  Uiso   1.00
Zn274  Zn    0.25000   0.19693   0.50000   0.00000  Uiso   1.00
H275   H     0.21032   0.12162   0.43462   0.00000  Uiso   1.00
H276   H     0.31388   0.37852   0.53364   0.00000  Uiso   1.00
H277   H     0.28968   0.12162   0.56538   0.00000  Uiso   1.00
H278   H     0.18612   0.37852   0.46636   0.00000  Uiso   1.00
N279   N     0.25000   0.12624   0.50000   0.00000  Uiso   1.00
N280   N     0.25000   0.37376   0.50000   0.00000  Uiso   1.00
C281   C     0.25000   0.02671   0.50000   0.00000  Uiso   1.00
C282   C     0.25000   0.47334   0.50000   0.00000  Uiso   1.00
C283   C     0.24999   0.24999   0.35512   0.00000  Uiso   1.00
C284   C     0.25000   0.24999   0.64488   0.00000  Uiso   1.00
C285   C     0.04658   0.27364   0.53781   0.00000  Uiso   1.00
C286   C     0.45342   0.22623   0.53785   0.00000  Uiso   1.00
C287   C     0.45342   0.27358   0.46215   0.00000  Uiso   1.00
C288   C     0.04657   0.22616   0.46219   0.00000  Uiso   1.00
H289   H     0.02804   0.29144   0.56707   0.00000  Uiso   1.00
H290   H     0.47196   0.20844   0.56714   0.00000  Uiso   1.00
H291   H     0.47196   0.29133   0.43285   0.00000  Uiso   1.00
H292   H     0.02804   0.20832   0.43294   0.00000  Uiso   1.00
C293   C     0.09288   0.27371   0.53855   0.00000  Uiso   1.00
C294   C     0.40712   0.22626   0.53862   0.00000  Uiso   1.00
C295   C     0.40712   0.27364   0.46140   0.00000  Uiso   1.00
C296   C     0.09288   0.22619   0.46143   0.00000  Uiso   1.00
C297   C     0.11604   0.24998   0.49998   0.00000  Uiso   1.00
C298   C     0.38396   0.24998   0.50002   0.00000  Uiso   1.00
C299   C     0.02394   0.24988   0.50001   0.00000  Uiso   1.00
C300   C     0.47606   0.24988   0.50000   0.00000  Uiso   1.00
C301   C     0.22780   0.10225   0.46348   0.00000  Uiso   1.00
C302   C     0.28568   0.39780   0.51880   0.00000  Uiso   1.00
C303   C     0.27220   0.10225   0.53652   0.00000  Uiso   1.00
C304   C     0.21432   0.39780   0.48120   0.00000  Uiso   1.00
H305   H     0.21022   0.03495   0.43251   0.00000  Uiso   1.00
H306   H     0.31573   0.46510   0.53338   0.00000  Uiso   1.00
H307   H     0.28978   0.03495   0.56749   0.00000  Uiso   1.00
H308   H     0.18427   0.46510   0.46662   0.00000  Uiso   1.00
N309   N     0.11565   0.29656   0.57927   0.00000  Uiso   1.00
O310   O     0.14881   0.27574   0.60161   0.00000  Uiso   1.00
O311   O     0.09901   0.33459   0.59909   0.00000  Uiso   1.00
N312   N     0.38434   0.20344   0.57933   0.00000  Uiso   1.00
O313   O     0.35118   0.22428   0.60162   0.00000  Uiso   1.00
O314   O     0.40092   0.16538   0.59915   0.00000  Uiso   1.00
N315   N     0.38435   0.29642   0.42064   0.00000  Uiso   1.00
O316   O     0.35117   0.27558   0.39836   0.00000  Uiso   1.00
O317   O     0.40100   0.33439   0.40072   0.00000  Uiso   1.00
N318   N     0.11565   0.20332   0.42075   0.00000  Uiso   1.00
O319   O     0.14881   0.22411   0.39842   0.00000  Uiso   1.00
O320   O     0.09907   0.16522   0.40100   0.00000  Uiso   1.00
O321   O     0.68453   0.28974   0.50000   0.00000  Uiso   1.00
O322   O     0.81547   0.21026   0.50000   0.00000  Uiso   1.00
O323   O     0.81547   0.28974   0.50000   0.00000  Uiso   1.00
O324   O     0.68453   0.21026   0.50000   0.00000  Uiso   1.00
C325   C     0.66398   0.25000   0.49999   0.00000  Uiso   1.00
C326   C     0.83602   0.25000   0.50001   0.00000  Uiso   1.00
O327   O     0.75000   0.28973   0.42845   0.00000  Uiso   1.00
O328   O     0.75000   0.21027   0.57155   0.00000  Uiso   1.00
O329   O     0.75000   0.28973   0.57155   0.00000  Uiso   1.00
O330   O     0.75000   0.21027   0.42845   0.00000  Uiso   1.00
C331   C     0.72750   0.05266   0.46268   0.00000  Uiso   1.00
C332   C     0.78642   0.44739   0.51902   0.00000  Uiso   1.00
C333   C     0.77250   0.05266   0.53732   0.00000  Uiso   1.00
C334   C     0.71358   0.44739   0.48099   0.00000  Uiso   1.00
C335   C     0.74998   0.25000   0.40619   0.00000  Uiso   1.00
C336   C     0.75001   0.25000   0.59381   0.00000  Uiso   1.00
Zn337  Zn    0.75000   0.30307   0.50000   0.00000  Uiso   1.00
Zn338  Zn    0.75000   0.19693   0.50000   0.00000  Uiso   1.00
H339   H     0.71032   0.12162   0.43462   0.00000  Uiso   1.00
H340   H     0.81388   0.37852   0.53364   0.00000  Uiso   1.00
H341   H     0.78968   0.12162   0.56538   0.00000  Uiso   1.00
H342   H     0.68612   0.37852   0.46636   0.00000  Uiso   1.00
N343   N     0.75000   0.12624   0.50000   0.00000  Uiso   1.00
N344   N     0.75000   0.37376   0.50000   0.00000  Uiso   1.00
C345   C     0.75000   0.02671   0.50000   0.00000  Uiso   1.00
C346   C     0.75000   0.47334   0.50000   0.00000  Uiso   1.00
C347   C     0.74999   0.24999   0.35512   0.00000  Uiso   1.00
C348   C     0.75000   0.24999   0.64488   0.00000  Uiso   1.00
C349   C     0.54658   0.27364   0.53781   0.00000  Uiso   1.00
C350   C     0.95342   0.22623   0.53785   0.00000  Uiso   1.00
C351   C     0.95342   0.27358   0.46215   0.00000  Uiso   1.00
C352   C     0.54657   0.22616   0.46219   0.00000  Uiso   1.00
H353   H     0.52804   0.29144   0.56707   0.00000  Uiso   1.00
H354   H     0.97196   0.20844   0.56714   0.00000  Uiso   1.00
H355   H     0.97196   0.29133   0.43285   0.00000  Uiso   1.00
H356   H     0.52804   0.20832   0.43294   0.00000  Uiso   1.00
C357   C     0.59288   0.27371   0.53855   0.00000  Uiso   1.00
C358   C     0.90712   0.22626   0.53862   0.00000  Uiso   1.00
C359   C     0.90712   0.27364   0.46140   0.00000  Uiso   1.00
C360   C     0.59288   0.22619   0.46143   0.00000  Uiso   1.00
C361   C     0.61604   0.24998   0.49998   0.00000  Uiso   1.00
C362   C     0.88396   0.24998   0.50002   0.00000  Uiso   1.00
C363   C     0.52394   0.24988   0.50001   0.00000  Uiso   1.00
C364   C     0.97606   0.24988   0.50000   0.00000  Uiso   1.00
C365   C     0.72780   0.10225   0.46348   0.00000  Uiso   1.00
C366   C     0.78568   0.39780   0.51880   0.00000  Uiso   1.00
C367   C     0.77220   0.10225   0.53652   0.00000  Uiso   1.00
C368   C     0.71432   0.39780   0.48120   0.00000  Uiso   1.00
H369   H     0.71022   0.03495   0.43251   0.00000  Uiso   1.00
H370   H     0.81573   0.46510   0.53338   0.00000  Uiso   1.00
H371   H     0.78978   0.03495   0.56749   0.00000  Uiso   1.00
H372   H     0.68427   0.46510   0.46662   0.00000  Uiso   1.00
N373   N     0.61565   0.29656   0.57927   0.00000  Uiso   1.00
O374   O     0.64881   0.27574   0.60161   0.00000  Uiso   1.00
O375   O     0.59901   0.33459   0.59909   0.00000  Uiso   1.00
N376   N     0.88434   0.20344   0.57933   0.00000  Uiso   1.00
O377   O     0.85118   0.22428   0.60162   0.00000  Uiso   1.00
O378   O     0.90092   0.16538   0.59915   0.00000  Uiso   1.00
N379   N     0.88435   0.29642   0.42064   0.00000  Uiso   1.00
O380   O     0.85117   0.27558   0.39836   0.00000  Uiso   1.00
O381   O     0.90100   0.33439   0.40072   0.00000  Uiso   1.00
N382   N     0.61565   0.20332   0.42075   0.00000  Uiso   1.00
O383   O     0.64881   0.22411   0.39842   0.00000  Uiso   1.00
O384   O     0.59907   0.16522   0.40100   0.00000  Uiso   1.00
O385   O     0.18453   0.78974   0.50000   0.00000  Uiso   1.00
O386   O     0.31547   0.71026   0.50000   0.00000  Uiso   1.00
O387   O     0.31547   0.78974   0.50000   0.00000  Uiso   1.00
O388   O     0.18453   0.71026   0.50000   0.00000  Uiso   1.00
C389   C     0.16398   0.75000   0.49999   0.00000  Uiso   1.00
C390   C     0.33602   0.75000   0.50001   0.00000  Uiso   1.00
O391   O     0.25000   0.78973   0.42845   0.00000  Uiso   1.00
O392   O     0.25000   0.71027   0.57155   0.00000  Uiso   1.00
O393   O     0.25000   0.78973   0.57155   0.00000  Uiso   1.00
O394   O     0.25000   0.71027   0.42845   0.00000  Uiso   1.00
C395   C     0.22750   0.55266   0.46268   0.00000  Uiso   1.00
C396   C     0.28642   0.94739   0.51902   0.00000  Uiso   1.00
C397   C     0.27250   0.55266   0.53732   0.00000  Uiso   1.00
C398   C     0.21358   0.94739   0.48099   0.00000  Uiso   1.00
C399   C     0.24998   0.75000   0.40619   0.00000  Uiso   1.00
C400   C     0.25001   0.75000   0.59381   0.00000  Uiso   1.00
Zn401  Zn    0.25000   0.80307   0.50000   0.00000  Uiso   1.00
Zn402  Zn    0.25000   0.69693   0.50000   0.00000  Uiso   1.00
H403   H     0.21032   0.62162   0.43462   0.00000  Uiso   1.00
H404   H     0.31388   0.87852   0.53364   0.00000  Uiso   1.00
H405   H     0.28968   0.62162   0.56538   0.00000  Uiso   1.00
H406   H     0.18612   0.87852   0.46636   0.00000  Uiso   1.00
N407   N     0.25000   0.62624   0.50000   0.00000  Uiso   1.00
N408   N     0.25000   0.87376   0.50000   0.00000  Uiso   1.00
C409   C     0.25000   0.52671   0.50000   0.00000  Uiso   1.00
C410   C     0.25000   0.97334   0.50000   0.00000  Uiso   1.00
C411   C     0.24999   0.74999   0.35512   0.00000  Uiso   1.00
C412   C     0.25000   0.74999   0.64488   0.00000  Uiso   1.00
C413   C     0.04658   0.77364   0.53781   0.00000  Uiso   1.00
C414   C     0.45342   0.72623   0.53785   0.00000  Uiso   1.00
C415   C     0.45342   0.77358   0.46215   0.00000  Uiso   1.00
C416   C     0.04657   0.72616   0.46219   0.00000  Uiso   1.00
H417   H     0.02804   0.79144   0.56707   0.00000  Uiso   1.00
H418   H     0.47196   0.70844   0.56714   0.00000  Uiso   1.00
H419   H     0.47196   0.79133   0.43285   0.00000  Uiso   1.00
H420   H     0.02804   0.70832   0.43294   0.00000  Uiso   1.00
C421   C     0.09288   0.77371   0.53855   0.00000  Uiso   1.00
C422   C     0.40712   0.72626   0.53862   0.00000  Uiso   1.00
C423   C     0.40712   0.77364   0.46140   0.00000  Uiso   1.00
C424   C     0.09288   0.72619   0.46143   0.00000  Uiso   1.00
C425   C     0.11604   0.74998   0.49998   0.00000  Uiso   1.00
C426   C     0.38396   0.74998   0.50002   0.00000  Uiso   1.00
C427   C     0.02394   0.74988   0.50001   0.00000  Uiso   1.00
C428   C     0.47606   0.74988   0.50000   0.00000  Uiso   1.00
C429   C     0.22780   0.60225   0.46348   0.00000  Uiso   1.00
C430   C     0.28568   0.89780   0.51880   0.00000  Uiso   1.00
C431   C     0.27220   0.60225   0.53652   0.00000  Uiso   1.00
C432   C     0.21432   0.89780   0.48120   0.00000  Uiso   1.00
H433   H     0.21022   0.53495   0.43251   0.00000  Uiso   1.00
H434   H     0.31573   0.96510   0.53338   0.00000  Uiso   1.00
H435   H     0.28978   0.53495   0.56749   0.00000  Uiso   1.00
H436   H     0.18427   0.96510   0.46662   0.00000  Uiso   1.00
N437   N     0.11565   0.79656   0.57927   0.00000  Uiso   1.00
O438   O     0.14881   0.77574   0.60161   0.00000  Uiso   1.00
O439   O     0.09901   0.83459   0.59909   0.00000  Uiso   1.00
N440   N     0.38434   0.70344   0.57933   0.00000  Uiso   1.00
O441   O     0.35118   0.72428   0.60162   0.00000  Uiso   1.00
O442   O     0.40092   0.66538   0.59915   0.00000  Uiso   1.00
N443   N     0.38435   0.79642   0.42064   0.00000  Uiso   1.00
O444   O     0.35117   0.77558   0.39836   0.00000  Uiso   1.00
O445   O     0.40100   0.83439   0.40072   0.00000  Uiso   1.00
N446   N     0.11565   0.70332   0.42075   0.00000  Uiso   1.00
O447   O     0.14881   0.72411   0.39842   0.00000  Uiso   1.00
O448   O     0.09907   0.66522   0.40100   0.00000  Uiso   1.00
O449   O     0.68453   0.78974   0.50000   0.00000  Uiso   1.00
O450   O     0.81547   0.71026   0.50000   0.00000  Uiso   1.00
O451   O     0.81547   0.78974   0.50000   0.00000  Uiso   1.00
O452   O     0.68453   0.71026   0.50000   0.00000  Uiso   1.00
C453   C     0.66398   0.75000   0.49999   0.00000  Uiso   1.00
C454   C     0.83602   0.75000   0.50001   0.00000  Uiso   1.00
O455   O     0.75000   0.78973   0.42845   0.00000  Uiso   1.00
O456   O     0.75000   0.71027   0.57155   0.00000  Uiso   1.00
O457   O     0.75000   0.78973   0.57155   0.00000  Uiso   1.00
O458   O     0.75000   0.71027   0.42845   0.00000  Uiso   1.00
C459   C     0.72750   0.55266   0.46268   0.00000  Uiso   1.00
C460   C     0.78642   0.94739   0.51902   0.00000  Uiso   1.00
C461   C     0.77250   0.55266   0.53732   0.00000  Uiso   1.00
C462   C     0.71358   0.94739   0.48099   0.00000  Uiso   1.00
C463   C     0.74998   0.75000   0.40619   0.00000  Uiso   1.00
C464   C     0.75001   0.75000   0.59381   0.00000  Uiso   1.00
Zn465  Zn    0.75000   0.80307   0.50000   0.00000  Uiso   1.00
Zn466  Zn    0.75000   0.69693   0.50000   0.00000  Uiso   1.00
H467   H     0.71032   0.62162   0.43462   0.00000  Uiso   1.00
H468   H     0.81388   0.87852   0.53364   0.00000  Uiso   1.00
H469   H     0.78968   0.62162   0.56538   0.00000  Uiso   1.00
H470   H     0.68612   0.87852   0.46636   0.00000  Uiso   1.00
N471   N     0.75000   0.62624   0.50000   0.00000  Uiso   1.00
N472   N     0.75000   0.87376   0.50000   0.00000  Uiso   1.00
C473   C     0.75000   0.52671   0.50000   0.00000  Uiso   1.00
C474   C     0.75000   0.97334   0.50000   0.00000  Uiso   1.00
C475   C     0.74999   0.74999   0.35512   0.00000  Uiso   1.00
C476   C     0.75000   0.74999   0.64488   0.00000  Uiso   1.00
C477   C     0.54658   0.77364   0.53781   0.00000  Uiso   1.00
C478   C     0.95342   0.72623   0.53785   0.00000  Uiso   1.00
C479   C     0.95342   0.77358   0.46215   0.00000  Uiso   1.00
C480   C     0.54657   0.72616   0.46219   0.00000  Uiso   1.00
H481   H     0.52804   0.79144   0.56707   0.00000  Uiso   1.00
H482   H     0.97196   0.70844   0.56714   0.00000  Uiso   1.00
H483   H     0.97196   0.79133   0.43285   0.00000  Uiso   1.00
H484   H     0.52804   0.70832   0.43294   0.00000  Uiso   1.00
C485   C     0.59288   0.77371   0.53855   0.00000  Uiso   1.00
C486   C     0.90712   0.72626   0.53862   0.00000  Uiso   1.00
C487   C     0.90712   0.77364   0.46140   0.00000  Uiso   1.00
C488   C     0.59288   0.72619   0.46143   0.00000  Uiso   1.00
C489   C     0.61604   0.74998   0.49998   0.00000  Uiso   1.00
C490   C     0.88396   0.74998   0.50002   0.00000  Uiso   1.00
C491   C     0.52394   0.74988   0.50001   0.00000  Uiso   1.00
C492   C     0.97606   0.74988   0.50000   0.00000  Uiso   1.00
C493   C     0.72780   0.60225   0.46348   0.00000  Uiso   1.00
C494   C     0.78568   0.89780   0.51880   0.00000  Uiso   1.00
C495   C     0.77220   0.60225   0.53652   0.00000  Uiso   1.00
C496   C     0.71432   0.89780   0.48120   0.00000  Uiso   1.00
H497   H     0.71022   0.53495   0.43251   0.00000  Uiso   1.00
H498   H     0.81573   0.96510   0.53338   0.00000  Uiso   1.00
H499   H     0.78978   0.53495   0.56749   0.00000  Uiso   1.00
H500   H     0.68427   0.96510   0.46662   0.00000  Uiso   1.00
N501   N     0.61565   0.79656   0.57927   0.00000  Uiso   1.00
O502   O     0.64881   0.77574   0.60161   0.00000  Uiso   1.00
O503   O     0.59901   0.83459   0.59909   0.00000  Uiso   1.00
N504   N     0.88434   0.70344   0.57933   0.00000  Uiso   1.00
O505   O     0.85118   0.72428   0.60162   0.00000  Uiso   1.00
O506   O     0.90092   0.66538   0.59915   0.00000  Uiso   1.00
N507   N     0.88435   0.79642   0.42064   0.00000  Uiso   1.00
O508   O     0.85117   0.77558   0.39836   0.00000  Uiso   1.00
O509   O     0.90100   0.83439   0.40072   0.00000  Uiso   1.00
N510   N     0.61565   0.70332   0.42075   0.00000  Uiso   1.00
O511   O     0.64881   0.72411   0.39842   0.00000  Uiso   1.00
O512   O     0.59907   0.66522   0.40100   0.00000  Uiso   1.00
O513   O     0.18453   0.28974   0.83334   0.00000  Uiso   1.00
O514   O     0.31547   0.21026   0.83333   0.00000  Uiso   1.00
O515   O     0.31547   0.28974   0.83333   0.00000  Uiso   1.00
O516   O     0.18453   0.21026   0.83334   0.00000  Uiso   1.00
C517   C     0.16398   0.25000   0.83333   0.00000  Uiso   1.00
C518   C     0.33602   0.25000   0.83334   0.00000  Uiso   1.00
O519   O     0.25000   0.28973   0.76178   0.00000  Uiso   1.00
O520   O     0.25000   0.21027   0.90489   0.00000  Uiso   1.00
O521   O     0.25000   0.28973   0.90489   0.00000  Uiso   1.00
O522   O     0.25000   0.21027   0.76178   0.00000  Uiso   1.00
C523   C     0.22750   0.05266   0.79602   0.00000  Uiso   1.00
C524   C     0.28642   0.44739   0.85235   0.00000  Uiso   1.00
C525   C     0.27250   0.05266   0.87065   0.00000  Uiso   1.00
C526   C     0.21358   0.44739   0.81432   0.00000  Uiso   1.00
C527   C     0.24998   0.25000   0.73953   0.00000  Uiso   1.00
C528   C     0.25001   0.25000   0.92714   0.00000  Uiso   1.00
Zn529  Zn    0.25000   0.30307   0.83333   0.00000  Uiso   1.00
Zn530  Zn    0.25000   0.19693   0.83333   0.00000  Uiso   1.00
H531   H     0.21032   0.12162   0.76796   0.00000  Uiso   1.00
H532   H     0.31388   0.37852   0.86697   0.00000  Uiso   1.00
H533   H     0.28968   0.12162   0.89871   0.00000  Uiso   1.00
H534   H     0.18612   0.37852   0.79969   0.00000  Uiso   1.00
N535   N     0.25000   0.12624   0.83333   0.00000  Uiso   1.00
N536   N     0.25000   0.37376   0.83333   0.00000  Uiso   1.00
C537   C     0.25000   0.02671   0.83333   0.00000  Uiso   1.00
C538   C     0.25000   0.47334   0.83333   0.00000  Uiso   1.00
C539   C     0.24999   0.24999   0.68845   0.00000  Uiso   1.00
C540   C     0.25000   0.24999   0.97822   0.00000  Uiso   1.00
C541   C     0.04658   0.27364   0.87114   0.00000  Uiso   1.00
C542   C     0.45342   0.22623   0.87119   0.00000  Uiso   1.00
C543   C     0.45342   0.27358   0.79548   0.00000  Uiso   1.00
C544   C     0.04657   0.22616   0.79553   0.00000  Uiso   1.00
H545   H     0.02804   0.29144   0.90040   0.00000  Uiso   1.00
H546   H     0.47196   0.20844   0.90048   0.00000  Uiso   1.00
H547   H     0.47196   0.29133   0.76619   0.00000  Uiso   1.00
H548   H     0.02804   0.20832   0.76627   0.00000  Uiso   1.00
C549   C     0.09288   0.27371   0.87189   0.00000  Uiso   1.00
C550   C     0.40712   0.22626   0.87195   0.00000  Uiso   1.00
C551   C     0.40712   0.27364   0.79473   0.00000  Uiso   1.00
C552   C     0.09288   0.22619   0.79476   0.00000  Uiso   1.00
C553   C     0.11604   0.24998   0.83331   0.00000  Uiso   1.00
C554   C     0.38396   0.24998   0.83335   0.00000  Uiso   1.00
C555   C     0.02394   0.24988   0.83334   0.00000  Uiso   1.00
C556   C     0.47606   0.24988   0.83333   0.00000  Uiso   1.00
C557   C     0.22780   0.10225   0.79681   0.00000  Uiso   1.00
C558   C     0.28568   0.39780   0.85214   0.00000  Uiso   1.00
C559   C     0.27220   0.10225   0.86986   0.00000  Uiso   1.00
C560   C     0.21432   0.39780   0.81453   0.00000  Uiso   1.00
H561   H     0.21022   0.03495   0.76585   0.00000  Uiso   1.00
H562   H     0.31573   0.46510   0.86671   0.00000  Uiso   1.00
H563   H     0.28978   0.03495   0.90082   0.00000  Uiso   1.00
H564   H     0.18427   0.46510   0.79995   0.00000  Uiso   1.00
N565   N     0.11565   0.29656   0.91260   0.00000  Uiso   1.00
O566   O     0.14881   0.27574   0.93495   0.00000  Uiso   1.00
O567   O     0.09901   0.33459   0.93243   0.00000  Uiso   1.00
N568   N     0.38434   0.20344   0.91267   0.00000  Uiso   1.00
O569   O     0.35118   0.22428   0.93496   0.00000  Uiso   1.00
O570   O     0.40092   0.16538   0.93248   0.00000  Uiso   1.00
N571   N     0.38435   0.29642   0.75397   0.00000  Uiso   1.00
O572   O     0.35117   0.27558   0.73169   0.00000  Uiso   1.00
O573   O     0.40100   0.33439   0.73405   0.00000  Uiso   1.00
N574   N     0.11565   0.20332   0.75408   0.00000  Uiso   1.00
O575   O     0.14881   0.22411   0.73175   0.00000  Uiso   1.00
O576   O     0.09907   0.16522   0.73433   0.00000  Uiso   1.00
O577   O     0.68453   0.28974   0.83334   0.00000  Uiso   1.00
O578   O     0.81547   0.21026   0.83333   0.00000  Uiso   1.00
O579   O     0.81547   0.28974   0.83333   0.00000  Uiso   1.00
O580   O     0.68453   0.21026   0.83334   0.00000  Uiso   1.00
C581   C     0.66398   0.25000   0.83333   0.00000  Uiso   1.00
C582   C     0.83602   0.25000   0.83334   0.00000  Uiso   1.00
O583   O     0.75000   0.28973   0.76178   0.00000  Uiso   1.00
O584   O     0.75000   0.21027   0.90489   0.00000  Uiso   1.00
O585   O     0.75000   0.28973   0.90489   0.00000  Uiso   1.00
O586   O     0.75000   0.21027   0.76178   0.00000  Uiso   1.00
C587   C     0.72750   0.05266   0.79602   0.00000  Uiso   1.00
C588   C     0.78642   0.44739   0.85235   0.00000  Uiso   1.00
C589   C     0.77250   0.05266   0.87065   0.00000  Uiso   1.00
C590   C     0.71358   0.44739   0.81432   0.00000  Uiso   1.00
C591   C     0.74998   0.25000   0.73953   0.00000  Uiso   1.00
C592   C     0.75001   0.25000   0.92714   0.00000  Uiso   1.00
Zn593  Zn    0.75000   0.30307   0.83333   0.00000  Uiso   1.00
Zn594  Zn    0.75000   0.19693   0.83333   0.00000  Uiso   1.00
H595   H     0.71032   0.12162   0.76796   0.00000  Uiso   1.00
H596   H     0.81388   0.37852   0.86697   0.00000  Uiso   1.00
H597   H     0.78968   0.12162   0.89871   0.00000  Uiso   1.00
H598   H     0.68612   0.37852   0.79969   0.00000  Uiso   1.00
N599   N     0.75000   0.12624   0.83333   0.00000  Uiso   1.00
N600   N     0.75000   0.37376   0.83333   0.00000  Uiso   1.00
C601   C     0.75000   0.02671   0.83333   0.00000  Uiso   1.00
C602   C     0.75000   0.47334   0.83333   0.00000  Uiso   1.00
C603   C     0.74999   0.24999   0.68845   0.00000  Uiso   1.00
C604   C     0.75000   0.24999   0.97822   0.00000  Uiso   1.00
C605   C     0.54658   0.27364   0.87114   0.00000  Uiso   1.00
C606   C     0.95342   0.22623   0.87119   0.00000  Uiso   1.00
C607   C     0.95342   0.27358   0.79548   0.00000  Uiso   1.00
C608   C     0.54657   0.22616   0.79553   0.00000  Uiso   1.00
H609   H     0.52804   0.29144   0.90040   0.00000  Uiso   1.00
H610   H     0.97196   0.20844   0.90048   0.00000  Uiso   1.00
H611   H     0.97196   0.29133   0.76619   0.00000  Uiso   1.00
H612   H     0.52804   0.20832   0.76627   0.00000  Uiso   1.00
C613   C     0.59288   0.27371   0.87189   0.00000  Uiso   1.00
C614   C     0.90712   0.22626   0.87195   0.00000  Uiso   1.00
C615   C     0.90712   0.27364   0.79473   0.00000  Uiso   1.00
C616   C     0.59288   0.22619   0.79476   0.00000  Uiso   1.00
C617   C     0.61604   0.24998   0.83331   0.00000  Uiso   1.00
C618   C     0.88396   0.24998   0.83335   0.00000  Uiso   1.00
C619   C     0.52394   0.24988   0.83334   0.00000  Uiso   1.00
C620   C     0.97606   0.24988   0.83333   0.00000  Uiso   1.00
C621   C     0.72780   0.10225   0.79681   0.00000  Uiso   1.00
C622   C     0.78568   0.39780   0.85214   0.00000  Uiso   1.00
C623   C     0.77220   0.10225   0.86986   0.00000  Uiso   1.00
C624   C     0.71432   0.39780   0.81453   0.00000  Uiso   1.00
H625   H     0.71022   0.03495   0.76585   0.00000  Uiso   1.00
H626   H     0.81573   0.46510   0.86671   0.00000  Uiso   1.00
H627   H     0.78978   0.03495   0.90082   0.00000  Uiso   1.00
H628   H     0.68427   0.46510   0.79995   0.00000  Uiso   1.00
N629   N     0.61565   0.29656   0.91260   0.00000  Uiso   1.00
O630   O     0.64881   0.27574   0.93495   0.00000  Uiso   1.00
O631   O     0.59901   0.33459   0.93243   0.00000  Uiso   1.00
N632   N     0.88434   0.20344   0.91267   0.00000  Uiso   1.00
O633   O     0.85118   0.22428   0.93496   0.00000  Uiso   1.00
O634   O     0.90092   0.16538   0.93248   0.00000  Uiso   1.00
N635   N     0.88435   0.29642   0.75397   0.00000  Uiso   1.00
O636   O     0.85117   0.27558   0.73169   0.00000  Uiso   1.00
O637   O     0.90100   0.33439   0.73405   0.00000  Uiso   1.00
N638   N     0.61565   0.20332   0.75408   0.00000  Uiso   1.00
O639   O     0.64881   0.22411   0.73175   0.00000  Uiso   1.00
O640   O     0.59907   0.16522   0.73433   0.00000  Uiso   1.00
O641   O     0.18453   0.78974   0.83334   0.00000  Uiso   1.00
O642   O     0.31547   0.71026   0.83333   0.00000  Uiso   1.00
O643   O     0.31547   0.78974   0.83333   0.00000  Uiso   1.00
O644   O     0.18453   0.71026   0.83334   0.00000  Uiso   1.00
C645   C     0.16398   0.75000   0.83333   0.00000  Uiso   1.00
C646   C     0.33602   0.75000   0.83334   0.00000  Uiso   1.00
O647   O     0.25000   0.78973   0.76178   0.00000  Uiso   1.00
O648   O     0.25000   0.71027   0.90489   0.00000  Uiso   1.00
O649   O     0.25000   0.78973   0.90489   0.00000  Uiso   1.00
O650   O     0.25000   0.71027   0.76178   0.00000  Uiso   1.00
C651   C     0.22750   0.55266   0.79602   0.00000  Uiso   1.00
C652   C     0.28642   0.94739   0.85235   0.00000  Uiso   1.00
C653   C     0.27250   0.55266   0.87065   0.00000  Uiso   1.00
C654   C     0.21358   0.94739   0.81432   0.00000  Uiso   1.00
C655   C     0.24998   0.75000   0.73953   0.00000  Uiso   1.00
C656   C     0.25001   0.75000   0.92714   0.00000  Uiso   1.00
Zn657  Zn    0.25000   0.80307   0.83333   0.00000  Uiso   1.00
Zn658  Zn    0.25000   0.69693   0.83333   0.00000  Uiso   1.00
H659   H     0.21032   0.62162   0.76796   0.00000  Uiso   1.00
H660   H     0.31388   0.87852   0.86697   0.00000  Uiso   1.00
H661   H     0.28968   0.62162   0.89871   0.00000  Uiso   1.00
H662   H     0.18612   0.87852   0.79969   0.00000  Uiso   1.00
N663   N     0.25000   0.62624   0.83333   0.00000  Uiso   1.00
N664   N     0.25000   0.87376   0.83333   0.00000  Uiso   1.00
C665   C     0.25000   0.52671   0.83333   0.00000  Uiso   1.00
C666   C     0.25000   0.97334   0.83333   0.00000  Uiso   1.00
C667   C     0.24999   0.74999   0.68845   0.00000  Uiso   1.00
C668   C     0.25000   0.74999   0.97822   0.00000  Uiso   1.00
C669   C     0.04658   0.77364   0.87114   0.00000  Uiso   1.00
C670   C     0.45342   0.72623   0.87119   0.00000  Uiso   1.00
C671   C     0.45342   0.77358   0.79548   0.00000  Uiso   1.00
C672   C     0.04657   0.72616   0.79553   0.00000  Uiso   1.00
H673   H     0.02804   0.79144   0.90040   0.00000  Uiso   1.00
H674   H     0.47196   0.70844   0.90048   0.00000  Uiso   1.00
H675   H     0.47196   0.79133   0.76619   0.00000  Uiso   1.00
H676   H     0.02804   0.70832   0.76627   0.00000  Uiso   1.00
C677   C     0.09288   0.77371   0.87189   0.00000  Uiso   1.00
C678   C     0.40712   0.72626   0.87195   0.00000  Uiso   1.00
C679   C     0.40712   0.77364   0.79473   0.00000  Uiso   1.00
C680   C     0.09288   0.72619   0.79476   0.00000  Uiso   1.00
C681   C     0.11604   0.74998   0.83331   0.00000  Uiso   1.00
C682   C     0.38396   0.74998   0.83335   0.00000  Uiso   1.00
C683   C     0.02394   0.74988   0.83334   0.00000  Uiso   1.00
C684   C     0.47606   0.74988   0.83333   0.00000  Uiso   1.00
C685   C     0.22780   0.60225   0.79681   0.00000  Uiso   1.00
C686   C     0.28568   0.89780   0.85214   0.00000  Uiso   1.00
C687   C     0.27220   0.60225   0.86986   0.00000  Uiso   1.00
C688   C     0.21432   0.89780   0.81453   0.00000  Uiso   1.00
H689   H     0.21022   0.53495   0.76585   0.00000  Uiso   1.00
H690   H     0.31573   0.96510   0.86671   0.00000  Uiso   1.00
H691   H     0.28978   0.53495   0.90082   0.00000  Uiso   1.00
H692   H     0.18427   0.96510   0.79995   0.00000  Uiso   1.00
N693   N     0.11565   0.79656   0.91260   0.00000  Uiso   1.00
O694   O     0.14881   0.77574   0.93495   0.00000  Uiso   1.00
O695   O     0.09901   0.83459   0.93243   0.00000  Uiso   1.00
N696   N     0.38434   0.70344   0.91267   0.00000  Uiso   1.00
O697   O     0.35118   0.72428   0.93496   0.00000  Uiso   1.00
O698   O     0.40092   0.66538   0.93248   0.00000  Uiso   1.00
N699   N     0.38435   0.79642   0.75397   0.00000  Uiso   1.00
O700   O     0.35117   0.77558   0.73169   0.00000  Uiso   1.00
O701   O     0.40100   0.83439   0.73405   0.00000  Uiso   1.00
N702   N     0.11565   0.70332   0.75408   0.00000  Uiso   1.00
O703   O     0.14881   0.72411   0.73175   0.00000  Uiso   1.00
O704   O     0.09907   0.66522   0.73433   0.00000  Uiso   1.00
O705   O     0.68453   0.78974   0.83334   0.00000  Uiso   1.00
O706   O     0.81547   0.71026   0.83333   0.00000  Uiso   1.00
O707   O     0.81547   0.78974   0.83333   0.00000  Uiso   1.00
O708   O     0.68453   0.71026   0.83334   0.00000  Uiso   1.00
C709   C     0.66398   0.75000   0.83333   0.00000  Uiso   1.00
C710   C     0.83602   0.75000   0.83334   0.00000  Uiso   1.00
O711   O     0.75000   0.78973   0.76178   0.00000  Uiso   1.00
O712   O     0.75000   0.71027   0.90489   0.00000  Uiso   1.00
O713   O     0.75000   0.78973   0.90489   0.00000  Uiso   1.00
O714   O     0.75000   0.71027   0.76178   0.00000  Uiso   1.00
C715   C     0.72750   0.55266   0.79602   0.00000  Uiso   1.00
C716   C     0.78642   0.94739   0.85235   0.00000  Uiso   1.00
C717   C     0.77250   0.55266   0.87065   0.00000  Uiso   1.00
C718   C     0.71358   0.94739   0.81432   0.00000  Uiso   1.00
C719   C     0.74998   0.75000   0.73953   0.00000  Uiso   1.00
C720   C     0.75001   0.75000   0.92714   0.00000  Uiso   1.00
Zn721  Zn    0.75000   0.80307   0.83333   0.00000  Uiso   1.00
Zn722  Zn    0.75000   0.69693   0.83333   0.00000  Uiso   1.00
H723   H     0.71032   0.62162   0.76796   0.00000  Uiso   1.00
H724   H     0.81388   0.87852   0.86697   0.00000  Uiso   1.00
H725   H     0.78968   0.62162   0.89871   0.00000  Uiso   1.00
H726   H     0.68612   0.87852   0.79969   0.00000  Uiso   1.00
N727   N     0.75000   0.62624   0.83333   0.00000  Uiso   1.00
N728   N     0.75000   0.87376   0.83333   0.00000  Uiso   1.00
C729   C     0.75000   0.52671   0.83333   0.00000  Uiso   1.00
C730   C     0.75000   0.97334   0.83333   0.00000  Uiso   1.00
C731   C     0.74999   0.74999   0.68845   0.00000  Uiso   1.00
C732   C     0.75000   0.74999   0.97822   0.00000  Uiso   1.00
C733   C     0.54658   0.77364   0.87114   0.00000  Uiso   1.00
C734   C     0.95342   0.72623   0.87119   0.00000  Uiso   1.00
C735   C     0.95342   0.77358   0.79548   0.00000  Uiso   1.00
C736   C     0.54657   0.72616   0.79553   0.00000  Uiso   1.00
H737   H     0.52804   0.79144   0.90040   0.00000  Uiso   1.00
H738   H     0.97196   0.70844   0.90048   0.00000  Uiso   1.00
H739   H     0.97196   0.79133   0.76619   0.00000  Uiso   1.00
H740   H     0.52804   0.70832   0.76627   0.00000  Uiso   1.00
C741   C     0.59288   0.77371   0.87189   0.00000  Uiso   1.00
C742   C     0.90712   0.72626   0.87195   0.00000  Uiso   1.00
C743   C     0.90712   0.77364   0.79473   0.00000  Uiso   1.00
C744   C     0.59288   0.72619   0.79476   0.00000  Uiso   1.00
C745   C     0.61604   0.74998   0.83331   0.00000  Uiso   1.00
C746   C     0.88396   0.74998   0.83335   0.00000  Uiso   1.00
C747   C     0.52394   0.74988   0.83334   0.00000  Uiso   1.00
C748   C     0.97606   0.74988   0.83333   0.00000  Uiso   1.00
C749   C     0.72780   0.60225   0.79681   0.00000  Uiso   1.00
C750   C     0.78568   0.89780   0.85214   0.00000  Uiso   1.00
C751   C     0.77220   0.60225   0.86986   0.00000  Uiso   1.00
C752   C     0.71432   0.89780   0.81453   0.00000  Uiso   1.00
H753   H     0.71022   0.53495   0.76585   0.00000  Uiso   1.00
H754   H     0.81573   0.96510   0.86671   0.00000  Uiso   1.00
H755   H     0.78978   0.53495   0.90082   0.00000  Uiso   1.00
H756   H     0.68427   0.96510   0.79995   0.00000  Uiso   1.00
N757   N     0.61565   0.79656   0.91260   0.00000  Uiso   1.00
O758   O     0.64881   0.77574   0.93495   0.00000  Uiso   1.00
O759   O     0.59901   0.83459   0.93243   0.00000  Uiso   1.00
N760   N     0.88434   0.70344   0.91267   0.00000  Uiso   1.00
O761   O     0.85118   0.72428   0.93496   0.00000  Uiso   1.00
O762   O     0.90092   0.66538   0.93248   0.00000  Uiso   1.00
N763   N     0.88435   0.79642   0.75397   0.00000  Uiso   1.00
O764   O     0.85117   0.77558   0.73169   0.00000  Uiso   1.00
O765   O     0.90100   0.83439   0.73405   0.00000  Uiso   1.00
N766   N     0.61565   0.70332   0.75408   0.00000  Uiso   1.00
O767   O     0.64881   0.72411   0.73175   0.00000  Uiso   1.00
O768   O     0.59907   0.66522   0.73433   0.00000  Uiso   1.00
loop_
_geom_bond_atom_site_label_1
_geom_bond_atom_site_label_2
_geom_bond_distance
_geom_bond_site_symmetry_2
_ccdc_geom_bond_type
O1     Zn17    1.997   .     S
O1     C5      1.285   .     A
O2     Zn18    1.997   .     S
O2     C6      1.285   .     A
O3     Zn17    1.997   .     S
O3     C6      1.285   .     A
O4     C5      1.285   .     A
O4     Zn18    1.997   .     S
C5     C41     1.436   .     S
C6     C42     1.436   .     S
O7     C15     1.275   .     A
O7     Zn17    1.950   .     S
O8     C16     1.275   .     A
O8     Zn18    1.950   .     S
O9     Zn17    1.950   .     S
O9     C16     1.275   .     A
O10    Zn18    1.950   .     S
O10    C15     1.275   .     A
C11    C45     1.407   .     A
C11    H49     1.082   .     S
C11    C25     1.411   .     A
C12    C46     1.408   .     A
C12    C26     1.411   .     A
C12    H50     1.082   .     S
C13    H51     1.082   .     S
C13    C47     1.407   .     A
C13    C25     1.411   .     A
C14    H52     1.082   .     S
C14    C26     1.411   .     A
C14    C48     1.408   .     A
C15    C27     1.365   .     S
C16    C28     1.365   .     S
Zn17   N24     2.006   .     S
Zn18   N23     2.006   .     S
H19    C45     1.082   .     S
H20    C46     1.081   .     S
H21    C47     1.082   .     S
H22    C48     1.081   .     S
N23    C45     1.363   .     A
N23    C47     1.363   .     A
N24    C46     1.363   .     A
N24    C48     1.363   .     A
C25    C154    1.514   1_545 S
C26    C153    1.514   .     S
C27    C540    1.165   1_554 S
C28    C283    1.165   .     S
C29    C43     1.391   .     A
C29    H33     1.084   .     S
C29    C37     1.387   .     A
C30    C44     1.391   .     A
C30    H34     1.084   .     S
C30    C38     1.387   .     A
C31    C39     1.387   .     A
C31    H35     1.084   .     S
C31    C44     1.391   .     A
C32    H36     1.084   .     S
C32    C43     1.391   .     A
C32    C40     1.387   .     A
C37    N53     1.439   .     S
C37    C41     1.414   .     A
C38    N56     1.439   .     S
C38    C42     1.414   .     A
C39    N59     1.439   .     S
C39    C42     1.414   .     A
C40    C41     1.414   .     A
C40    N62     1.439   .     S
C43    C108    1.434   1_455 S
C44    C107    1.434   .     S
N53    O54     1.301   .     A
N53    O55     1.301   .     A
N56    O58     1.301   .     A
N56    O57     1.301   .     A
N59    O60     1.301   .     A
N59    O61     1.301   .     A
N62    O63     1.301   .     A
N62    O64     1.301   .     A
O65    Zn81    1.997   .     S
O65    C69     1.285   .     A
O66    Zn82    1.997   .     S
O66    C70     1.285   .     A
O67    Zn81    1.997   .     S
O67    C70     1.285   .     A
O68    C69     1.285   .     A
O68    Zn82    1.997   .     S
C69    C105    1.436   .     S
C70    C106    1.436   .     S
O71    C79     1.275   .     A
O71    Zn81    1.950   .     S
O72    C80     1.275   .     A
O72    Zn82    1.950   .     S
O73    Zn81    1.950   .     S
O73    C80     1.275   .     A
O74    Zn82    1.950   .     S
O74    C79     1.275   .     A
C75    C109    1.407   .     A
C75    H113    1.082   .     S
C75    C89     1.411   .     A
C76    C110    1.408   .     A
C76    C90     1.411   .     A
C76    H114    1.082   .     S
C77    H115    1.082   .     S
C77    C111    1.407   .     A
C77    C89     1.411   .     A
C78    H116    1.082   .     S
C78    C90     1.411   .     A
C78    C112    1.408   .     A
C79    C91     1.365   .     S
C80    C92     1.365   .     S
Zn81   N88     2.006   .     S
Zn82   N87     2.006   .     S
H83    C109    1.082   .     S
H84    C110    1.081   .     S
H85    C111    1.082   .     S
H86    C112    1.081   .     S
N87    C109    1.363   .     A
N87    C111    1.363   .     A
N88    C110    1.363   .     A
N88    C112    1.363   .     A
C89    C218    1.514   1_545 S
C90    C217    1.514   .     S
C91    C604    1.165   1_554 S
C92    C347    1.165   .     S
C93    C107    1.391   .     A
C93    H97     1.084   .     S
C93    C101    1.387   .     A
C94    C108    1.391   .     A
C94    H98     1.084   .     S
C94    C102    1.387   .     A
C95    C103    1.387   .     A
C95    H99     1.084   .     S
C95    C108    1.391   .     A
C96    H100    1.084   .     S
C96    C107    1.391   .     A
C96    C104    1.387   .     A
C101   N117    1.439   .     S
C101   C105    1.414   .     A
C102   N120    1.439   .     S
C102   C106    1.414   .     A
C103   N123    1.439   .     S
C103   C106    1.414   .     A
C104   C105    1.414   .     A
C104   N126    1.439   .     S
C108   C43     1.434   1_655 S
N117   O118    1.301   .     A
N117   O119    1.301   .     A
N120   O122    1.301   .     A
N120   O121    1.301   .     A
N123   O124    1.301   .     A
N123   O125    1.301   .     A
N126   O127    1.301   .     A
N126   O128    1.301   .     A
O129   Zn145   1.997   .     S
O129   C133    1.285   .     A
O130   Zn146   1.997   .     S
O130   C134    1.285   .     A
O131   Zn145   1.997   .     S
O131   C134    1.285   .     A
O132   C133    1.285   .     A
O132   Zn146   1.997   .     S
C133   C169    1.436   .     S
C134   C170    1.436   .     S
O135   C143    1.275   .     A
O135   Zn145   1.950   .     S
O136   C144    1.275   .     A
O136   Zn146   1.950   .     S
O137   Zn145   1.950   .     S
O137   C144    1.275   .     A
O138   Zn146   1.950   .     S
O138   C143    1.275   .     A
C139   C173    1.407   .     A
C139   H177    1.082   .     S
C139   C153    1.411   .     A
C140   C174    1.408   .     A
C140   C154    1.411   .     A
C140   H178    1.082   .     S
C141   H179    1.082   .     S
C141   C175    1.407   .     A
C141   C153    1.411   .     A
C142   H180    1.082   .     S
C142   C154    1.411   .     A
C142   C176    1.408   .     A
C143   C155    1.365   .     S
C144   C156    1.365   .     S
Zn145  N152    2.006   .     S
Zn146  N151    2.006   .     S
H147   C173    1.082   .     S
H148   C174    1.081   .     S
H149   C175    1.082   .     S
H150   C176    1.081   .     S
N151   C173    1.363   .     A
N151   C175    1.363   .     A
N152   C174    1.363   .     A
N152   C176    1.363   .     A
C154   C25     1.514   1_565 S
C155   C668    1.165   1_554 S
C156   C411    1.165   .     S
C157   C171    1.391   .     A
C157   H161    1.084   .     S
C157   C165    1.387   .     A
C158   C172    1.391   .     A
C158   H162    1.084   .     S
C158   C166    1.387   .     A
C159   C167    1.387   .     A
C159   H163    1.084   .     S
C159   C172    1.391   .     A
C160   H164    1.084   .     S
C160   C171    1.391   .     A
C160   C168    1.387   .     A
C165   N181    1.439   .     S
C165   C169    1.414   .     A
C166   N184    1.439   .     S
C166   C170    1.414   .     A
C167   N187    1.439   .     S
C167   C170    1.414   .     A
C168   C169    1.414   .     A
C168   N190    1.439   .     S
C171   C236    1.434   1_455 S
C172   C235    1.434   .     S
N181   O182    1.301   .     A
N181   O183    1.301   .     A
N184   O186    1.301   .     A
N184   O185    1.301   .     A
N187   O188    1.301   .     A
N187   O189    1.301   .     A
N190   O191    1.301   .     A
N190   O192    1.301   .     A
O193   Zn209   1.997   .     S
O193   C197    1.285   .     A
O194   Zn210   1.997   .     S
O194   C198    1.285   .     A
O195   Zn209   1.997   .     S
O195   C198    1.285   .     A
O196   C197    1.285   .     A
O196   Zn210   1.997   .     S
C197   C233    1.436   .     S
C198   C234    1.436   .     S
O199   C207    1.275   .     A
O199   Zn209   1.950   .     S
O200   C208    1.275   .     A
O200   Zn210   1.950   .     S
O201   Zn209   1.950   .     S
O201   C208    1.275   .     A
O202   Zn210   1.950   .     S
O202   C207    1.275   .     A
C203   C237    1.407   .     A
C203   H241    1.082   .     S
C203   C217    1.411   .     A
C204   C238    1.408   .     A
C204   C218    1.411   .     A
C204   H242    1.082   .     S
C205   H243    1.082   .     S
C205   C239    1.407   .     A
C205   C217    1.411   .     A
C206   H244    1.082   .     S
C206   C218    1.411   .     A
C206   C240    1.408   .     A
C207   C219    1.365   .     S
C208   C220    1.365   .     S
Zn209  N216    2.006   .     S
Zn210  N215    2.006   .     S
H211   C237    1.082   .     S
H212   C238    1.081   .     S
H213   C239    1.082   .     S
H214   C240    1.081   .     S
N215   C237    1.363   .     A
N215   C239    1.363   .     A
N216   C238    1.363   .     A
N216   C240    1.363   .     A
C218   C89     1.514   1_565 S
C219   C732    1.165   1_554 S
C220   C475    1.165   .     S
C221   C235    1.391   .     A
C221   H225    1.084   .     S
C221   C229    1.387   .     A
C222   C236    1.391   .     A
C222   H226    1.084   .     S
C222   C230    1.387   .     A
C223   C231    1.387   .     A
C223   H227    1.084   .     S
C223   C236    1.391   .     A
C224   H228    1.084   .     S
C224   C235    1.391   .     A
C224   C232    1.387   .     A
C229   N245    1.439   .     S
C229   C233    1.414   .     A
C230   N248    1.439   .     S
C230   C234    1.414   .     A
C231   N251    1.439   .     S
C231   C234    1.414   .     A
C232   C233    1.414   .     A
C232   N254    1.439   .     S
C236   C171    1.434   1_655 S
N245   O246    1.301   .     A
N245   O247    1.301   .     A
N248   O250    1.301   .     A
N248   O249    1.301   .     A
N251   O252    1.301   .     A
N251   O253    1.301   .     A
N254   O255    1.301   .     A
N254   O256    1.301   .     A
O257   Zn273   1.997   .     S
O257   C261    1.285   .     A
O258   Zn274   1.997   .     S
O258   C262    1.285   .     A
O259   Zn273   1.997   .     S
O259   C262    1.285   .     A
O260   C261    1.285   .     A
O260   Zn274   1.997   .     S
C261   C297    1.436   .     S
C262   C298    1.436   .     S
O263   C271    1.275   .     A
O263   Zn273   1.950   .     S
O264   C272    1.275   .     A
O264   Zn274   1.950   .     S
O265   Zn273   1.950   .     S
O265   C272    1.275   .     A
O266   Zn274   1.950   .     S
O266   C271    1.275   .     A
C267   C301    1.407   .     A
C267   H305    1.082   .     S
C267   C281    1.411   .     A
C268   C302    1.408   .     A
C268   C282    1.411   .     A
C268   H306    1.082   .     S
C269   H307    1.082   .     S
C269   C303    1.407   .     A
C269   C281    1.411   .     A
C270   H308    1.082   .     S
C270   C282    1.411   .     A
C270   C304    1.408   .     A
C271   C283    1.365   .     S
C272   C284    1.365   .     S
Zn273  N280    2.006   .     S
Zn274  N279    2.006   .     S
H275   C301    1.082   .     S
H276   C302    1.081   .     S
H277   C303    1.082   .     S
H278   C304    1.081   .     S
N279   C301    1.363   .     A
N279   C303    1.363   .     A
N280   C302    1.363   .     A
N280   C304    1.363   .     A
C281   C410    1.514   1_545 S
C282   C409    1.514   .     S
C284   C539    1.165   .     S
C285   C299    1.391   .     A
C285   H289    1.084   .     S
C285   C293    1.387   .     A
C286   C300    1.391   .     A
C286   H290    1.084   .     S
C286   C294    1.387   .     A
C287   C295    1.387   .     A
C287   H291    1.084   .     S
C287   C300    1.391   .     A
C288   H292    1.084   .     S
C288   C299    1.391   .     A
C288   C296    1.387   .     A
C293   N309    1.439   .     S
C293   C297    1.414   .     A
C294   N312    1.439   .     S
C294   C298    1.414   .     A
C295   N315    1.439   .     S
C295   C298    1.414   .     A
C296   C297    1.414   .     A
C296   N318    1.439   .     S
C299   C364    1.434   1_455 S
C300   C363    1.434   .     S
N309   O310    1.301   .     A
N309   O311    1.301   .     A
N312   O314    1.301   .     A
N312   O313    1.301   .     A
N315   O316    1.301   .     A
N315   O317    1.301   .     A
N318   O319    1.301   .     A
N318   O320    1.301   .     A
O321   Zn337   1.997   .     S
O321   C325    1.285   .     A
O322   Zn338   1.997   .     S
O322   C326    1.285   .     A
O323   Zn337   1.997   .     S
O323   C326    1.285   .     A
O324   C325    1.285   .     A
O324   Zn338   1.997   .     S
C325   C361    1.436   .     S
C326   C362    1.436   .     S
O327   C335    1.275   .     A
O327   Zn337   1.950   .     S
O328   C336    1.275   .     A
O328   Zn338   1.950   .     S
O329   Zn337   1.950   .     S
O329   C336    1.275   .     A
O330   Zn338   1.950   .     S
O330   C335    1.275   .     A
C331   C365    1.407   .     A
C331   H369    1.082   .     S
C331   C345    1.411   .     A
C332   C366    1.408   .     A
C332   C346    1.411   .     A
C332   H370    1.082   .     S
C333   H371    1.082   .     S
C333   C367    1.407   .     A
C333   C345    1.411   .     A
C334   H372    1.082   .     S
C334   C346    1.411   .     A
C334   C368    1.408   .     A
C335   C347    1.365   .     S
C336   C348    1.365   .     S
Zn337  N344    2.006   .     S
Zn338  N343    2.006   .     S
H339   C365    1.082   .     S
H340   C366    1.081   .     S
H341   C367    1.082   .     S
H342   C368    1.081   .     S
N343   C365    1.363   .     A
N343   C367    1.363   .     A
N344   C366    1.363   .     A
N344   C368    1.363   .     A
C345   C474    1.514   1_545 S
C346   C473    1.514   .     S
C348   C603    1.165   .     S
C349   C363    1.391   .     A
C349   H353    1.084   .     S
C349   C357    1.387   .     A
C350   C364    1.391   .     A
C350   H354    1.084   .     S
C350   C358    1.387   .     A
C351   C359    1.387   .     A
C351   H355    1.084   .     S
C351   C364    1.391   .     A
C352   H356    1.084   .     S
C352   C363    1.391   .     A
C352   C360    1.387   .     A
C357   N373    1.439   .     S
C357   C361    1.414   .     A
C358   N376    1.439   .     S
C358   C362    1.414   .     A
C359   N379    1.439   .     S
C359   C362    1.414   .     A
C360   C361    1.414   .     A
C360   N382    1.439   .     S
C364   C299    1.434   1_655 S
N373   O374    1.301   .     A
N373   O375    1.301   .     A
N376   O378    1.301   .     A
N376   O377    1.301   .     A
N379   O380    1.301   .     A
N379   O381    1.301   .     A
N382   O383    1.301   .     A
N382   O384    1.301   .     A
O385   Zn401   1.997   .     S
O385   C389    1.285   .     A
O386   Zn402   1.997   .     S
O386   C390    1.285   .     A
O387   Zn401   1.997   .     S
O387   C390    1.285   .     A
O388   C389    1.285   .     A
O388   Zn402   1.997   .     S
C389   C425    1.436   .     S
C390   C426    1.436   .     S
O391   C399    1.275   .     A
O391   Zn401   1.950   .     S
O392   C400    1.275   .     A
O392   Zn402   1.950   .     S
O393   Zn401   1.950   .     S
O393   C400    1.275   .     A
O394   Zn402   1.950   .     S
O394   C399    1.275   .     A
C395   C429    1.407   .     A
C395   H433    1.082   .     S
C395   C409    1.411   .     A
C396   C430    1.408   .     A
C396   C410    1.411   .     A
C396   H434    1.082   .     S
C397   H435    1.082   .     S
C397   C431    1.407   .     A
C397   C409    1.411   .     A
C398   H436    1.082   .     S
C398   C410    1.411   .     A
C398   C432    1.408   .     A
C399   C411    1.365   .     S
C400   C412    1.365   .     S
Zn401  N408    2.006   .     S
Zn402  N407    2.006   .     S
H403   C429    1.082   .     S
H404   C430    1.081   .     S
H405   C431    1.082   .     S
H406   C432    1.081   .     S
N407   C429    1.363   .     A
N407   C431    1.363   .     A
N408   C430    1.363   .     A
N408   C432    1.363   .     A
C410   C281    1.514   1_565 S
C412   C667    1.165   .     S
C413   C427    1.391   .     A
C413   H417    1.084   .     S
C413   C421    1.387   .     A
C414   C428    1.391   .     A
C414   H418    1.084   .     S
C414   C422    1.387   .     A
C415   C423    1.387   .     A
C415   H419    1.084   .     S
C415   C428    1.391   .     A
C416   H420    1.084   .     S
C416   C427    1.391   .     A
C416   C424    1.387   .     A
C421   N437    1.439   .     S
C421   C425    1.414   .     A
C422   N440    1.439   .     S
C422   C426    1.414   .     A
C423   N443    1.439   .     S
C423   C426    1.414   .     A
C424   C425    1.414   .     A
C424   N446    1.439   .     S
C427   C492    1.434   1_455 S
C428   C491    1.434   .     S
N437   O438    1.301   .     A
N437   O439    1.301   .     A
N440   O442    1.301   .     A
N440   O441    1.301   .     A
N443   O444    1.301   .     A
N443   O445    1.301   .     A
N446   O447    1.301   .     A
N446   O448    1.301   .     A
O449   Zn465   1.997   .     S
O449   C453    1.285   .     A
O450   Zn466   1.997   .     S
O450   C454    1.285   .     A
O451   Zn465   1.997   .     S
O451   C454    1.285   .     A
O452   C453    1.285   .     A
O452   Zn466   1.997   .     S
C453   C489    1.436   .     S
C454   C490    1.436   .     S
O455   C463    1.275   .     A
O455   Zn465   1.950   .     S
O456   C464    1.275   .     A
O456   Zn466   1.950   .     S
O457   Zn465   1.950   .     S
O457   C464    1.275   .     A
O458   Zn466   1.950   .     S
O458   C463    1.275   .     A
C459   C493    1.407   .     A
C459   H497    1.082   .     S
C459   C473    1.411   .     A
C460   C494    1.408   .     A
C460   C474    1.411   .     A
C460   H498    1.082   .     S
C461   H499    1.082   .     S
C461   C495    1.407   .     A
C461   C473    1.411   .     A
C462   H500    1.082   .     S
C462   C474    1.411   .     A
C462   C496    1.408   .     A
C463   C475    1.365   .     S
C464   C476    1.365   .     S
Zn465  N472    2.006   .     S
Zn466  N471    2.006   .     S
H467   C493    1.082   .     S
H468   C494    1.081   .     S
H469   C495    1.082   .     S
H470   C496    1.081   .     S
N471   C493    1.363   .     A
N471   C495    1.363   .     A
N472   C494    1.363   .     A
N472   C496    1.363   .     A
C474   C345    1.514   1_565 S
C476   C731    1.165   .     S
C477   C491    1.391   .     A
C477   H481    1.084   .     S
C477   C485    1.387   .     A
C478   C492    1.391   .     A
C478   H482    1.084   .     S
C478   C486    1.387   .     A
C479   C487    1.387   .     A
C479   H483    1.084   .     S
C479   C492    1.391   .     A
C480   H484    1.084   .     S
C480   C491    1.391   .     A
C480   C488    1.387   .     A
C485   N501    1.439   .     S
C485   C489    1.414   .     A
C486   N504    1.439   .     S
C486   C490    1.414   .     A
C487   N507    1.439   .     S
C487   C490    1.414   .     A
C488   C489    1.414   .     A
C488   N510    1.439   .     S
C492   C427    1.434   1_655 S
N501   O502    1.301   .     A
N501   O503    1.301   .     A
N504   O506    1.301   .     A
N504   O505    1.301   .     A
N507   O508    1.301   .     A
N507   O509    1.301   .     A
N510   O511    1.301   .     A
N510   O512    1.301   .     A
O513   Zn529   1.997   .     S
O513   C517    1.285   .     A
O514   Zn530   1.997   .     S
O514   C518    1.285   .     A
O515   Zn529   1.997   .     S
O515   C518    1.285   .     A
O516   C517    1.285   .     A
O516   Zn530   1.997   .     S
C517   C553    1.436   .     S
C518   C554    1.436   .     S
O519   C527    1.275   .     A
O519   Zn529   1.950   .     S
O520   C528    1.275   .     A
O520   Zn530   1.950   .     S
O521   Zn529   1.950   .     S
O521   C528    1.275   .     A
O522   Zn530   1.950   .     S
O522   C527    1.275   .     A
C523   C557    1.407   .     A
C523   H561    1.082   .     S
C523   C537    1.411   .     A
C524   C558    1.408   .     A
C524   C538    1.411   .     A
C524   H562    1.082   .     S
C525   H563    1.082   .     S
C525   C559    1.407   .     A
C525   C537    1.411   .     A
C526   H564    1.082   .     S
C526   C538    1.411   .     A
C526   C560    1.408   .     A
C527   C539    1.365   .     S
C528   C540    1.365   .     S
Zn529  N536    2.006   .     S
Zn530  N535    2.006   .     S
H531   C557    1.082   .     S
H532   C558    1.081   .     S
H533   C559    1.082   .     S
H534   C560    1.081   .     S
N535   C557    1.363   .     A
N535   C559    1.363   .     A
N536   C558    1.363   .     A
N536   C560    1.363   .     A
C537   C666    1.514   1_545 S
C538   C665    1.514   .     S
C540   C27     1.165   1_556 S
C541   C555    1.391   .     A
C541   H545    1.084   .     S
C541   C549    1.387   .     A
C542   C556    1.391   .     A
C542   H546    1.084   .     S
C542   C550    1.387   .     A
C543   C551    1.387   .     A
C543   H547    1.084   .     S
C543   C556    1.391   .     A
C544   H548    1.084   .     S
C544   C555    1.391   .     A
C544   C552    1.387   .     A
C549   N565    1.439   .     S
C549   C553    1.414   .     A
C550   N568    1.439   .     S
C550   C554    1.414   .     A
C551   N571    1.439   .     S
C551   C554    1.414   .     A
C552   C553    1.414   .     A
C552   N574    1.439   .     S
C555   C620    1.434   1_455 S
C556   C619    1.434   .     S
N565   O566    1.301   .     A
N565   O567    1.301   .     A
N568   O570    1.301   .     A
N568   O569    1.301   .     A
N571   O572    1.301   .     A
N571   O573    1.301   .     A
N574   O575    1.301   .     A
N574   O576    1.301   .     A
O577   Zn593   1.997   .     S
O577   C581    1.285   .     A
O578   Zn594   1.997   .     S
O578   C582    1.285   .     A
O579   Zn593   1.997   .     S
O579   C582    1.285   .     A
O580   C581    1.285   .     A
O580   Zn594   1.997   .     S
C581   C617    1.436   .     S
C582   C618    1.436   .     S
O583   C591    1.275   .     A
O583   Zn593   1.950   .     S
O584   C592    1.275   .     A
O584   Zn594   1.950   .     S
O585   Zn593   1.950   .     S
O585   C592    1.275   .     A
O586   Zn594   1.950   .     S
O586   C591    1.275   .     A
C587   C621    1.407   .     A
C587   H625    1.082   .     S
C587   C601    1.411   .     A
C588   C622    1.408   .     A
C588   C602    1.411   .     A
C588   H626    1.082   .     S
C589   H627    1.082   .     S
C589   C623    1.407   .     A
C589   C601    1.411   .     A
C590   H628    1.082   .     S
C590   C602    1.411   .     A
C590   C624    1.408   .     A
C591   C603    1.365   .     S
C592   C604    1.365   .     S
Zn593  N600    2.006   .     S
Zn594  N599    2.006   .     S
H595   C621    1.082   .     S
H596   C622    1.081   .     S
H597   C623    1.082   .     S
H598   C624    1.081   .     S
N599   C621    1.363   .     A
N599   C623    1.363   .     A
N600   C622    1.363   .     A
N600   C624    1.363   .     A
C601   C730    1.514   1_545 S
C602   C729    1.514   .     S
C604   C91     1.165   1_556 S
C605   C619    1.391   .     A
C605   H609    1.084   .     S
C605   C613    1.387   .     A
C606   C620    1.391   .     A
C606   H610    1.084   .     S
C606   C614    1.387   .     A
C607   C615    1.387   .     A
C607   H611    1.084   .     S
C607   C620    1.391   .     A
C608   H612    1.084   .     S
C608   C619    1.391   .     A
C608   C616    1.387   .     A
C613   N629    1.439   .     S
C613   C617    1.414   .     A
C614   N632    1.439   .     S
C614   C618    1.414   .     A
C615   N635    1.439   .     S
C615   C618    1.414   .     A
C616   C617    1.414   .     A
C616   N638    1.439   .     S
C620   C555    1.434   1_655 S
N629   O630    1.301   .     A
N629   O631    1.301   .     A
N632   O634    1.301   .     A
N632   O633    1.301   .     A
N635   O636    1.301   .     A
N635   O637    1.301   .     A
N638   O639    1.301   .     A
N638   O640    1.301   .     A
O641   Zn657   1.997   .     S
O641   C645    1.285   .     A
O642   Zn658   1.997   .     S
O642   C646    1.285   .     A
O643   Zn657   1.997   .     S
O643   C646    1.285   .     A
O644   C645    1.285   .     A
O644   Zn658   1.997   .     S
C645   C681    1.436   .     S
C646   C682    1.436   .     S
O647   C655    1.275   .     A
O647   Zn657   1.950   .     S
O648   C656    1.275   .     A
O648   Zn658   1.950   .     S
O649   Zn657   1.950   .     S
O649   C656    1.275   .     A
O650   Zn658   1.950   .     S
O650   C655    1.275   .     A
C651   C685    1.407   .     A
C651   H689    1.082   .     S
C651   C665    1.411   .     A
C652   C686    1.408   .     A
C652   C666    1.411   .     A
C652   H690    1.082   .     S
C653   H691    1.082   .     S
C653   C687    1.407   .     A
C653   C665    1.411   .     A
C654   H692    1.082   .     S
C654   C666    1.411   .     A
C654   C688    1.408   .     A
C655   C667    1.365   .     S
C656   C668    1.365   .     S
Zn657  N664    2.006   .     S
Zn658  N663    2.006   .     S
H659   C685    1.082   .     S
H660   C686    1.081   .     S
H661   C687    1.082   .     S
H662   C688    1.081   .     S
N663   C685    1.363   .     A
N663   C687    1.363   .     A
N664   C686    1.363   .     A
N664   C688    1.363   .     A
C666   C537    1.514   1_565 S
C668   C155    1.165   1_556 S
C669   C683    1.391   .     A
C669   H673    1.084   .     S
C669   C677    1.387   .     A
C670   C684    1.391   .     A
C670   H674    1.084   .     S
C670   C678    1.387   .     A
C671   C679    1.387   .     A
C671   H675    1.084   .     S
C671   C684    1.391   .     A
C672   H676    1.084   .     S
C672   C683    1.391   .     A
C672   C680    1.387   .     A
C677   N693    1.439   .     S
C677   C681    1.414   .     A
C678   N696    1.439   .     S
C678   C682    1.414   .     A
C679   N699    1.439   .     S
C679   C682    1.414   .     A
C680   C681    1.414   .     A
C680   N702    1.439   .     S
C683   C748    1.434   1_455 S
C684   C747    1.434   .     S
N693   O694    1.301   .     A
N693   O695    1.301   .     A
N696   O698    1.301   .     A
N696   O697    1.301   .     A
N699   O700    1.301   .     A
N699   O701    1.301   .     A
N702   O703    1.301   .     A
N702   O704    1.301   .     A
O705   Zn721   1.997   .     S
O705   C709    1.285   .     A
O706   Zn722   1.997   .     S
O706   C710    1.285   .     A
O707   Zn721   1.997   .     S
O707   C710    1.285   .     A
O708   C709    1.285   .     A
O708   Zn722   1.997   .     S
C709   C745    1.436   .     S
C710   C746    1.436   .     S
O711   C719    1.275   .     A
O711   Zn721   1.950   .     S
O712   C720    1.275   .     A
O712   Zn722   1.950   .     S
O713   Zn721   1.950   .     S
O713   C720    1.275   .     A
O714   Zn722   1.950   .     S
O714   C719    1.275   .     A
C715   C749    1.407   .     A
C715   H753    1.082   .     S
C715   C729    1.411   .     A
C716   C750    1.408   .     A
C716   C730    1.411   .     A
C716   H754    1.082   .     S
C717   H755    1.082   .     S
C717   C751    1.407   .     A
C717   C729    1.411   .     A
C718   H756    1.082   .     S
C718   C730    1.411   .     A
C718   C752    1.408   .     A
C719   C731    1.365   .     S
C720   C732    1.365   .     S
Zn721  N728    2.006   .     S
Zn722  N727    2.006   .     S
H723   C749    1.082   .     S
H724   C750    1.081   .     S
H725   C751    1.082   .     S
H726   C752    1.081   .     S
N727   C749    1.363   .     A
N727   C751    1.363   .     A
N728   C750    1.363   .     A
N728   C752    1.363   .     A
C730   C601    1.514   1_565 S
C732   C219    1.165   1_556 S
C733   C747    1.391   .     A
C733   H737    1.084   .     S
C733   C741    1.387   .     A
C734   C748    1.391   .     A
C734   H738    1.084   .     S
C734   C742    1.387   .     A
C735   C743    1.387   .     A
C735   H739    1.084   .     S
C735   C748    1.391   .     A
C736   H740    1.084   .     S
C736   C747    1.391   .     A
C736   C744    1.387   .     A
C741   N757    1.439   .     S
C741   C745    1.414   .     A
C742   N760    1.439   .     S
C742   C746    1.414   .     A
C743   N763    1.439   .     S
C743   C746    1.414   .     A
C744   C745    1.414   .     A
C744   N766    1.439   .     S
C748   C683    1.434   1_655 S
N757   O758    1.301   .     A
N757   O759    1.301   .     A
N760   O762    1.301   .     A
N760   O761    1.301   .     A
N763   O764    1.301   .     A
N763   O765    1.301   .     A
N766   O767    1.301   .     A
N766   O768    1.301   .     A
