data_str_m2_o1_o5_pcu_sym.16
_audit_creation_date              2020-01-03
_audit_creation_method            'Materials Studio'
_symmetry_space_group_name_H-M    'P1'
_symmetry_Int_Tables_number       1
_symmetry_cell_setting            triclinic
loop_
_symmetry_equiv_pos_as_xyz
  x,y,z
_cell_length_a                    32.4687
_cell_length_b                    29.0919
_cell_length_c                    27.2048
_cell_angle_alpha                 89.7410
_cell_angle_beta                  100.3124
_cell_angle_gamma                 90.2104
loop_
_atom_site_label
_atom_site_type_symbol
_atom_site_fract_x
_atom_site_fract_y
_atom_site_fract_z
_atom_site_U_iso_or_equiv
_atom_site_adp_type
_atom_site_occupancy
C1     C     0.08758   0.16663   0.16732   0.00000  Uiso   1.00
C2     C     0.02001   0.20740   0.15678   0.00000  Uiso   1.00
C3     C     0.29045   0.16667   0.16611   0.00000  Uiso   1.00
C4     C     0.04289   0.16667   0.16723   0.00000  Uiso   1.00
C5     C     0.13769   0.02519   0.13198   0.00000  Uiso   1.00
C6     C     0.19564   0.30814   0.20135   0.00000  Uiso   1.00
C7     C     0.19545   0.02515   0.20165   0.00000  Uiso   1.00
C8     C     0.13788   0.30818   0.13168   0.00000  Uiso   1.00
C9     C     0.24575   0.16671   0.16601   0.00000  Uiso   1.00
C10    C     0.16725   0.16673   0.07379   0.00000  Uiso   1.00
C11    C     0.16608   0.16660   0.25954   0.00000  Uiso   1.00
C12    C     0.16689   0.16676   0.02192   0.00000  Uiso   1.00
C13    C     0.16645   0.16658   0.31141   0.00000  Uiso   1.00
C14    C     0.02273   0.12598   0.17728   0.00000  Uiso   1.00
C15    C     0.31061   0.20735   0.15605   0.00000  Uiso   1.00
C16    C     0.31333   0.12593   0.17656   0.00000  Uiso   1.00
Cu17   Cu    0.16667   0.21355   0.16667   0.00000  Uiso   1.00
Cu18   Cu    0.16667   0.11978   0.16667   0.00000  Uiso   1.00
H19    H     0.03995   0.09432   0.18611   0.00000  Uiso   1.00
H20    H     0.29338   0.23901   0.14722   0.00000  Uiso   1.00
H21    H     0.29836   0.09413   0.18457   0.00000  Uiso   1.00
H22    H     0.03497   0.23921   0.14876   0.00000  Uiso   1.00
H23    H     0.06562   0.11732   0.05802   0.00000  Uiso   1.00
H24    H     0.26772   0.21602   0.27531   0.00000  Uiso   1.00
H25    H     0.25625   0.11766   0.28788   0.00000  Uiso   1.00
H26    H     0.07709   0.21567   0.04546   0.00000  Uiso   1.00
N27    N     0.16667   0.28402   0.16667   0.00000  Uiso   1.00
N28    N     0.16667   0.04931   0.16667   0.00000  Uiso   1.00
O29    O     0.10655   0.20625   0.16666   0.00000  Uiso   1.00
O30    O     0.05572   0.04379   0.10772   0.00000  Uiso   1.00
O31    O     0.09351   0.11149   0.07864   0.00000  Uiso   1.00
O32    O     0.27761   0.28954   0.22561   0.00000  Uiso   1.00
O33    O     0.24043   0.29728   0.29607   0.00000  Uiso   1.00
O34    O     0.23982   0.22185   0.25470   0.00000  Uiso   1.00
O35    O     0.21176   0.04563   0.29931   0.00000  Uiso   1.00
O36    O     0.27350   0.03517   0.26062   0.00000  Uiso   1.00
O37    O     0.24023   0.11119   0.25405   0.00000  Uiso   1.00
O38    O     0.05983   0.29816   0.07272   0.00000  Uiso   1.00
O39    O     0.12158   0.28770   0.03402   0.00000  Uiso   1.00
O40    O     0.22679   0.12709   0.16667   0.00000  Uiso   1.00
O41    O     0.09311   0.22214   0.07928   0.00000  Uiso   1.00
O42    O     0.22679   0.20625   0.16667   0.00000  Uiso   1.00
O43    O     0.10655   0.12709   0.16666   0.00000  Uiso   1.00
O44    O     0.16667   0.20625   0.09613   0.00000  Uiso   1.00
O45    O     0.16667   0.12708   0.23720   0.00000  Uiso   1.00
O46    O     0.16667   0.20625   0.23720   0.00000  Uiso   1.00
O47    O     0.16667   0.12708   0.09613   0.00000  Uiso   1.00
O48    O     0.09290   0.03606   0.03727   0.00000  Uiso   1.00
S49    S     0.09554   0.05474   0.08907   0.00000  Uiso   1.00
S50    S     0.23779   0.27859   0.24427   0.00000  Uiso   1.00
S51    S     0.23016   0.05473   0.25324   0.00000  Uiso   1.00
S52    S     0.10317   0.27861   0.08009   0.00000  Uiso   1.00
C53    C     0.42092   0.16663   0.16732   0.00000  Uiso   1.00
C54    C     0.35334   0.20740   0.15678   0.00000  Uiso   1.00
C55    C     0.62378   0.16667   0.16611   0.00000  Uiso   1.00
C56    C     0.37622   0.16667   0.16723   0.00000  Uiso   1.00
C57    C     0.47102   0.02519   0.13198   0.00000  Uiso   1.00
C58    C     0.52898   0.30814   0.20135   0.00000  Uiso   1.00
C59    C     0.52878   0.02515   0.20165   0.00000  Uiso   1.00
C60    C     0.47122   0.30818   0.13168   0.00000  Uiso   1.00
C61    C     0.57908   0.16671   0.16601   0.00000  Uiso   1.00
C62    C     0.50059   0.16673   0.07379   0.00000  Uiso   1.00
C63    C     0.49941   0.16660   0.25954   0.00000  Uiso   1.00
C64    C     0.50022   0.16676   0.02192   0.00000  Uiso   1.00
C65    C     0.49978   0.16658   0.31141   0.00000  Uiso   1.00
C66    C     0.35606   0.12598   0.17728   0.00000  Uiso   1.00
C67    C     0.64394   0.20735   0.15605   0.00000  Uiso   1.00
C68    C     0.64666   0.12593   0.17656   0.00000  Uiso   1.00
Cu69   Cu    0.50000   0.21355   0.16667   0.00000  Uiso   1.00
Cu70   Cu    0.50000   0.11978   0.16667   0.00000  Uiso   1.00
H71    H     0.37329   0.09432   0.18611   0.00000  Uiso   1.00
H72    H     0.62671   0.23901   0.14722   0.00000  Uiso   1.00
H73    H     0.63170   0.09413   0.18457   0.00000  Uiso   1.00
H74    H     0.36830   0.23921   0.14876   0.00000  Uiso   1.00
H75    H     0.39895   0.11732   0.05802   0.00000  Uiso   1.00
H76    H     0.60105   0.21602   0.27531   0.00000  Uiso   1.00
H77    H     0.58958   0.11766   0.28788   0.00000  Uiso   1.00
H78    H     0.41042   0.21567   0.04546   0.00000  Uiso   1.00
N79    N     0.50000   0.28402   0.16667   0.00000  Uiso   1.00
N80    N     0.50000   0.04931   0.16667   0.00000  Uiso   1.00
O81    O     0.43988   0.20625   0.16666   0.00000  Uiso   1.00
O82    O     0.38906   0.04379   0.10772   0.00000  Uiso   1.00
O83    O     0.42685   0.11149   0.07864   0.00000  Uiso   1.00
O84    O     0.61094   0.28954   0.22561   0.00000  Uiso   1.00
O85    O     0.57377   0.29728   0.29607   0.00000  Uiso   1.00
O86    O     0.57315   0.22185   0.25470   0.00000  Uiso   1.00
O87    O     0.54509   0.04563   0.29931   0.00000  Uiso   1.00
O88    O     0.60684   0.03517   0.26062   0.00000  Uiso   1.00
O89    O     0.57356   0.11119   0.25405   0.00000  Uiso   1.00
O90    O     0.39316   0.29816   0.07272   0.00000  Uiso   1.00
O91    O     0.45491   0.28770   0.03402   0.00000  Uiso   1.00
O92    O     0.56012   0.12709   0.16667   0.00000  Uiso   1.00
O93    O     0.42644   0.22214   0.07928   0.00000  Uiso   1.00
O94    O     0.56012   0.20625   0.16667   0.00000  Uiso   1.00
O95    O     0.43988   0.12709   0.16666   0.00000  Uiso   1.00
O96    O     0.50000   0.20625   0.09613   0.00000  Uiso   1.00
O97    O     0.50000   0.12708   0.23720   0.00000  Uiso   1.00
O98    O     0.50000   0.20625   0.23720   0.00000  Uiso   1.00
O99    O     0.50000   0.12708   0.09613   0.00000  Uiso   1.00
O100   O     0.42623   0.03606   0.03727   0.00000  Uiso   1.00
S101   S     0.42888   0.05474   0.08907   0.00000  Uiso   1.00
S102   S     0.57112   0.27859   0.24427   0.00000  Uiso   1.00
S103   S     0.56350   0.05473   0.25324   0.00000  Uiso   1.00
S104   S     0.43650   0.27861   0.08009   0.00000  Uiso   1.00
C105   C     0.75425   0.16663   0.16732   0.00000  Uiso   1.00
C106   C     0.68667   0.20740   0.15678   0.00000  Uiso   1.00
C107   C     0.95711   0.16667   0.16611   0.00000  Uiso   1.00
C108   C     0.70955   0.16667   0.16723   0.00000  Uiso   1.00
C109   C     0.80436   0.02519   0.13198   0.00000  Uiso   1.00
C110   C     0.86231   0.30814   0.20135   0.00000  Uiso   1.00
C111   C     0.86212   0.02515   0.20165   0.00000  Uiso   1.00
C112   C     0.80455   0.30818   0.13168   0.00000  Uiso   1.00
C113   C     0.91242   0.16671   0.16601   0.00000  Uiso   1.00
C114   C     0.83392   0.16673   0.07379   0.00000  Uiso   1.00
C115   C     0.83275   0.16660   0.25954   0.00000  Uiso   1.00
C116   C     0.83355   0.16676   0.02192   0.00000  Uiso   1.00
C117   C     0.83311   0.16658   0.31141   0.00000  Uiso   1.00
C118   C     0.68939   0.12598   0.17728   0.00000  Uiso   1.00
C119   C     0.97727   0.20735   0.15605   0.00000  Uiso   1.00
C120   C     0.97999   0.12593   0.17656   0.00000  Uiso   1.00
Cu121  Cu    0.83333   0.21355   0.16667   0.00000  Uiso   1.00
Cu122  Cu    0.83333   0.11978   0.16667   0.00000  Uiso   1.00
H123   H     0.70662   0.09432   0.18611   0.00000  Uiso   1.00
H124   H     0.96005   0.23901   0.14722   0.00000  Uiso   1.00
H125   H     0.96503   0.09413   0.18457   0.00000  Uiso   1.00
H126   H     0.70164   0.23921   0.14876   0.00000  Uiso   1.00
H127   H     0.73228   0.11732   0.05802   0.00000  Uiso   1.00
H128   H     0.93438   0.21602   0.27531   0.00000  Uiso   1.00
H129   H     0.92292   0.11766   0.28788   0.00000  Uiso   1.00
H130   H     0.74375   0.21567   0.04546   0.00000  Uiso   1.00
N131   N     0.83333   0.28402   0.16667   0.00000  Uiso   1.00
N132   N     0.83333   0.04931   0.16667   0.00000  Uiso   1.00
O133   O     0.77321   0.20625   0.16666   0.00000  Uiso   1.00
O134   O     0.72239   0.04379   0.10772   0.00000  Uiso   1.00
O135   O     0.76018   0.11149   0.07864   0.00000  Uiso   1.00
O136   O     0.94428   0.28954   0.22561   0.00000  Uiso   1.00
O137   O     0.90710   0.29728   0.29607   0.00000  Uiso   1.00
O138   O     0.90649   0.22185   0.25470   0.00000  Uiso   1.00
O139   O     0.87842   0.04563   0.29931   0.00000  Uiso   1.00
O140   O     0.94017   0.03517   0.26062   0.00000  Uiso   1.00
O141   O     0.90689   0.11119   0.25405   0.00000  Uiso   1.00
O142   O     0.72650   0.29816   0.07272   0.00000  Uiso   1.00
O143   O     0.78824   0.28770   0.03402   0.00000  Uiso   1.00
O144   O     0.89345   0.12709   0.16667   0.00000  Uiso   1.00
O145   O     0.75977   0.22214   0.07928   0.00000  Uiso   1.00
O146   O     0.89345   0.20625   0.16667   0.00000  Uiso   1.00
O147   O     0.77321   0.12709   0.16666   0.00000  Uiso   1.00
O148   O     0.83333   0.20625   0.09613   0.00000  Uiso   1.00
O149   O     0.83333   0.12708   0.23720   0.00000  Uiso   1.00
O150   O     0.83333   0.20625   0.23720   0.00000  Uiso   1.00
O151   O     0.83333   0.12708   0.09613   0.00000  Uiso   1.00
O152   O     0.75957   0.03606   0.03727   0.00000  Uiso   1.00
S153   S     0.76221   0.05474   0.08907   0.00000  Uiso   1.00
S154   S     0.90446   0.27859   0.24427   0.00000  Uiso   1.00
S155   S     0.89683   0.05473   0.25324   0.00000  Uiso   1.00
S156   S     0.76984   0.27861   0.08009   0.00000  Uiso   1.00
C157   C     0.08758   0.49996   0.16732   0.00000  Uiso   1.00
C158   C     0.02001   0.54073   0.15678   0.00000  Uiso   1.00
C159   C     0.29045   0.50000   0.16611   0.00000  Uiso   1.00
C160   C     0.04289   0.50000   0.16723   0.00000  Uiso   1.00
C161   C     0.13769   0.35853   0.13198   0.00000  Uiso   1.00
C162   C     0.19564   0.64147   0.20135   0.00000  Uiso   1.00
C163   C     0.19545   0.35848   0.20165   0.00000  Uiso   1.00
C164   C     0.13788   0.64152   0.13168   0.00000  Uiso   1.00
C165   C     0.24575   0.50004   0.16601   0.00000  Uiso   1.00
C166   C     0.16725   0.50007   0.07379   0.00000  Uiso   1.00
C167   C     0.16608   0.49993   0.25954   0.00000  Uiso   1.00
C168   C     0.16689   0.50009   0.02192   0.00000  Uiso   1.00
C169   C     0.16645   0.49991   0.31141   0.00000  Uiso   1.00
C170   C     0.02273   0.45931   0.17728   0.00000  Uiso   1.00
C171   C     0.31061   0.54069   0.15605   0.00000  Uiso   1.00
C172   C     0.31333   0.45927   0.17656   0.00000  Uiso   1.00
Cu173  Cu    0.16667   0.54689   0.16667   0.00000  Uiso   1.00
Cu174  Cu    0.16667   0.45311   0.16667   0.00000  Uiso   1.00
H175   H     0.03995   0.42766   0.18611   0.00000  Uiso   1.00
H176   H     0.29338   0.57234   0.14722   0.00000  Uiso   1.00
H177   H     0.29836   0.42746   0.18457   0.00000  Uiso   1.00
H178   H     0.03497   0.57254   0.14876   0.00000  Uiso   1.00
H179   H     0.06562   0.45065   0.05802   0.00000  Uiso   1.00
H180   H     0.26772   0.54935   0.27531   0.00000  Uiso   1.00
H181   H     0.25625   0.45100   0.28788   0.00000  Uiso   1.00
H182   H     0.07709   0.54900   0.04546   0.00000  Uiso   1.00
N183   N     0.16667   0.61736   0.16667   0.00000  Uiso   1.00
N184   N     0.16667   0.38264   0.16667   0.00000  Uiso   1.00
O185   O     0.10655   0.53958   0.16666   0.00000  Uiso   1.00
O186   O     0.05572   0.37712   0.10772   0.00000  Uiso   1.00
O187   O     0.09351   0.44482   0.07864   0.00000  Uiso   1.00
O188   O     0.27761   0.62288   0.22561   0.00000  Uiso   1.00
O189   O     0.24043   0.63061   0.29607   0.00000  Uiso   1.00
O190   O     0.23982   0.55518   0.25470   0.00000  Uiso   1.00
O191   O     0.21176   0.37896   0.29931   0.00000  Uiso   1.00
O192   O     0.27350   0.36851   0.26062   0.00000  Uiso   1.00
O193   O     0.24023   0.44453   0.25405   0.00000  Uiso   1.00
O194   O     0.05983   0.63149   0.07272   0.00000  Uiso   1.00
O195   O     0.12158   0.62104   0.03402   0.00000  Uiso   1.00
O196   O     0.22679   0.46042   0.16667   0.00000  Uiso   1.00
O197   O     0.09311   0.55547   0.07928   0.00000  Uiso   1.00
O198   O     0.22679   0.53958   0.16667   0.00000  Uiso   1.00
O199   O     0.10655   0.46042   0.16666   0.00000  Uiso   1.00
O200   O     0.16667   0.53959   0.09613   0.00000  Uiso   1.00
O201   O     0.16667   0.46041   0.23720   0.00000  Uiso   1.00
O202   O     0.16667   0.53959   0.23720   0.00000  Uiso   1.00
O203   O     0.16667   0.46041   0.09613   0.00000  Uiso   1.00
O204   O     0.09290   0.36939   0.03727   0.00000  Uiso   1.00
S205   S     0.09554   0.38807   0.08907   0.00000  Uiso   1.00
S206   S     0.23779   0.61193   0.24427   0.00000  Uiso   1.00
S207   S     0.23016   0.38806   0.25324   0.00000  Uiso   1.00
S208   S     0.10317   0.61194   0.08009   0.00000  Uiso   1.00
C209   C     0.42092   0.49996   0.16732   0.00000  Uiso   1.00
C210   C     0.35334   0.54073   0.15678   0.00000  Uiso   1.00
C211   C     0.62378   0.50000   0.16611   0.00000  Uiso   1.00
C212   C     0.37622   0.50000   0.16723   0.00000  Uiso   1.00
C213   C     0.47102   0.35853   0.13198   0.00000  Uiso   1.00
C214   C     0.52898   0.64147   0.20135   0.00000  Uiso   1.00
C215   C     0.52878   0.35848   0.20165   0.00000  Uiso   1.00
C216   C     0.47122   0.64152   0.13168   0.00000  Uiso   1.00
C217   C     0.57908   0.50004   0.16601   0.00000  Uiso   1.00
C218   C     0.50059   0.50007   0.07379   0.00000  Uiso   1.00
C219   C     0.49941   0.49993   0.25954   0.00000  Uiso   1.00
C220   C     0.50022   0.50009   0.02192   0.00000  Uiso   1.00
C221   C     0.49978   0.49991   0.31141   0.00000  Uiso   1.00
C222   C     0.35606   0.45931   0.17728   0.00000  Uiso   1.00
C223   C     0.64394   0.54069   0.15605   0.00000  Uiso   1.00
C224   C     0.64666   0.45927   0.17656   0.00000  Uiso   1.00
Cu225  Cu    0.50000   0.54689   0.16667   0.00000  Uiso   1.00
Cu226  Cu    0.50000   0.45311   0.16667   0.00000  Uiso   1.00
H227   H     0.37329   0.42766   0.18611   0.00000  Uiso   1.00
H228   H     0.62671   0.57234   0.14722   0.00000  Uiso   1.00
H229   H     0.63170   0.42746   0.18457   0.00000  Uiso   1.00
H230   H     0.36830   0.57254   0.14876   0.00000  Uiso   1.00
H231   H     0.39895   0.45065   0.05802   0.00000  Uiso   1.00
H232   H     0.60105   0.54935   0.27531   0.00000  Uiso   1.00
H233   H     0.58958   0.45100   0.28788   0.00000  Uiso   1.00
H234   H     0.41042   0.54900   0.04546   0.00000  Uiso   1.00
N235   N     0.50000   0.61736   0.16667   0.00000  Uiso   1.00
N236   N     0.50000   0.38264   0.16667   0.00000  Uiso   1.00
O237   O     0.43988   0.53958   0.16666   0.00000  Uiso   1.00
O238   O     0.38906   0.37712   0.10772   0.00000  Uiso   1.00
O239   O     0.42685   0.44482   0.07864   0.00000  Uiso   1.00
O240   O     0.61094   0.62288   0.22561   0.00000  Uiso   1.00
O241   O     0.57377   0.63061   0.29607   0.00000  Uiso   1.00
O242   O     0.57315   0.55518   0.25470   0.00000  Uiso   1.00
O243   O     0.54509   0.37896   0.29931   0.00000  Uiso   1.00
O244   O     0.60684   0.36851   0.26062   0.00000  Uiso   1.00
O245   O     0.57356   0.44453   0.25405   0.00000  Uiso   1.00
O246   O     0.39316   0.63149   0.07272   0.00000  Uiso   1.00
O247   O     0.45491   0.62104   0.03402   0.00000  Uiso   1.00
O248   O     0.56012   0.46042   0.16667   0.00000  Uiso   1.00
O249   O     0.42644   0.55547   0.07928   0.00000  Uiso   1.00
O250   O     0.56012   0.53958   0.16667   0.00000  Uiso   1.00
O251   O     0.43988   0.46042   0.16666   0.00000  Uiso   1.00
O252   O     0.50000   0.53959   0.09613   0.00000  Uiso   1.00
O253   O     0.50000   0.46041   0.23720   0.00000  Uiso   1.00
O254   O     0.50000   0.53959   0.23720   0.00000  Uiso   1.00
O255   O     0.50000   0.46041   0.09613   0.00000  Uiso   1.00
O256   O     0.42623   0.36939   0.03727   0.00000  Uiso   1.00
S257   S     0.42888   0.38807   0.08907   0.00000  Uiso   1.00
S258   S     0.57112   0.61193   0.24427   0.00000  Uiso   1.00
S259   S     0.56350   0.38806   0.25324   0.00000  Uiso   1.00
S260   S     0.43650   0.61194   0.08009   0.00000  Uiso   1.00
C261   C     0.75425   0.49996   0.16732   0.00000  Uiso   1.00
C262   C     0.68667   0.54073   0.15678   0.00000  Uiso   1.00
C263   C     0.95711   0.50000   0.16611   0.00000  Uiso   1.00
C264   C     0.70955   0.50000   0.16723   0.00000  Uiso   1.00
C265   C     0.80436   0.35853   0.13198   0.00000  Uiso   1.00
C266   C     0.86231   0.64147   0.20135   0.00000  Uiso   1.00
C267   C     0.86212   0.35848   0.20165   0.00000  Uiso   1.00
C268   C     0.80455   0.64152   0.13168   0.00000  Uiso   1.00
C269   C     0.91242   0.50004   0.16601   0.00000  Uiso   1.00
C270   C     0.83392   0.50007   0.07379   0.00000  Uiso   1.00
C271   C     0.83275   0.49993   0.25954   0.00000  Uiso   1.00
C272   C     0.83355   0.50009   0.02192   0.00000  Uiso   1.00
C273   C     0.83311   0.49991   0.31141   0.00000  Uiso   1.00
C274   C     0.68939   0.45931   0.17728   0.00000  Uiso   1.00
C275   C     0.97727   0.54069   0.15605   0.00000  Uiso   1.00
C276   C     0.97999   0.45927   0.17656   0.00000  Uiso   1.00
Cu277  Cu    0.83333   0.54689   0.16667   0.00000  Uiso   1.00
Cu278  Cu    0.83333   0.45311   0.16667   0.00000  Uiso   1.00
H279   H     0.70662   0.42766   0.18611   0.00000  Uiso   1.00
H280   H     0.96005   0.57234   0.14722   0.00000  Uiso   1.00
H281   H     0.96503   0.42746   0.18457   0.00000  Uiso   1.00
H282   H     0.70164   0.57254   0.14876   0.00000  Uiso   1.00
H283   H     0.73228   0.45065   0.05802   0.00000  Uiso   1.00
H284   H     0.93438   0.54935   0.27531   0.00000  Uiso   1.00
H285   H     0.92292   0.45100   0.28788   0.00000  Uiso   1.00
H286   H     0.74375   0.54900   0.04546   0.00000  Uiso   1.00
N287   N     0.83333   0.61736   0.16667   0.00000  Uiso   1.00
N288   N     0.83333   0.38264   0.16667   0.00000  Uiso   1.00
O289   O     0.77321   0.53958   0.16666   0.00000  Uiso   1.00
O290   O     0.72239   0.37712   0.10772   0.00000  Uiso   1.00
O291   O     0.76018   0.44482   0.07864   0.00000  Uiso   1.00
O292   O     0.94428   0.62288   0.22561   0.00000  Uiso   1.00
O293   O     0.90710   0.63061   0.29607   0.00000  Uiso   1.00
O294   O     0.90649   0.55518   0.25470   0.00000  Uiso   1.00
O295   O     0.87842   0.37896   0.29931   0.00000  Uiso   1.00
O296   O     0.94017   0.36851   0.26062   0.00000  Uiso   1.00
O297   O     0.90689   0.44453   0.25405   0.00000  Uiso   1.00
O298   O     0.72650   0.63149   0.07272   0.00000  Uiso   1.00
O299   O     0.78824   0.62104   0.03402   0.00000  Uiso   1.00
O300   O     0.89345   0.46042   0.16667   0.00000  Uiso   1.00
O301   O     0.75977   0.55547   0.07928   0.00000  Uiso   1.00
O302   O     0.89345   0.53958   0.16667   0.00000  Uiso   1.00
O303   O     0.77321   0.46042   0.16666   0.00000  Uiso   1.00
O304   O     0.83333   0.53959   0.09613   0.00000  Uiso   1.00
O305   O     0.83333   0.46041   0.23720   0.00000  Uiso   1.00
O306   O     0.83333   0.53959   0.23720   0.00000  Uiso   1.00
O307   O     0.83333   0.46041   0.09613   0.00000  Uiso   1.00
O308   O     0.75957   0.36939   0.03727   0.00000  Uiso   1.00
S309   S     0.76221   0.38807   0.08907   0.00000  Uiso   1.00
S310   S     0.90446   0.61193   0.24427   0.00000  Uiso   1.00
S311   S     0.89683   0.38806   0.25324   0.00000  Uiso   1.00
S312   S     0.76984   0.61194   0.08009   0.00000  Uiso   1.00
C313   C     0.08758   0.83329   0.16732   0.00000  Uiso   1.00
C314   C     0.02001   0.87407   0.15678   0.00000  Uiso   1.00
C315   C     0.29045   0.83333   0.16611   0.00000  Uiso   1.00
C316   C     0.04289   0.83333   0.16723   0.00000  Uiso   1.00
C317   C     0.13769   0.69186   0.13198   0.00000  Uiso   1.00
C318   C     0.19564   0.97481   0.20135   0.00000  Uiso   1.00
C319   C     0.19545   0.69181   0.20165   0.00000  Uiso   1.00
C320   C     0.13788   0.97485   0.13168   0.00000  Uiso   1.00
C321   C     0.24575   0.83337   0.16601   0.00000  Uiso   1.00
C322   C     0.16725   0.83340   0.07379   0.00000  Uiso   1.00
C323   C     0.16608   0.83327   0.25954   0.00000  Uiso   1.00
C324   C     0.16689   0.83342   0.02192   0.00000  Uiso   1.00
C325   C     0.16645   0.83324   0.31141   0.00000  Uiso   1.00
C326   C     0.02273   0.79265   0.17728   0.00000  Uiso   1.00
C327   C     0.31061   0.87402   0.15605   0.00000  Uiso   1.00
C328   C     0.31333   0.79260   0.17656   0.00000  Uiso   1.00
Cu329  Cu    0.16667   0.88022   0.16667   0.00000  Uiso   1.00
Cu330  Cu    0.16667   0.78645   0.16667   0.00000  Uiso   1.00
H331   H     0.03995   0.76099   0.18611   0.00000  Uiso   1.00
H332   H     0.29338   0.90568   0.14722   0.00000  Uiso   1.00
H333   H     0.29836   0.76079   0.18457   0.00000  Uiso   1.00
H334   H     0.03497   0.90587   0.14876   0.00000  Uiso   1.00
H335   H     0.06562   0.78398   0.05802   0.00000  Uiso   1.00
H336   H     0.26772   0.88268   0.27531   0.00000  Uiso   1.00
H337   H     0.25625   0.78433   0.28788   0.00000  Uiso   1.00
H338   H     0.07709   0.88234   0.04546   0.00000  Uiso   1.00
N339   N     0.16667   0.95069   0.16667   0.00000  Uiso   1.00
N340   N     0.16667   0.71598   0.16667   0.00000  Uiso   1.00
O341   O     0.10655   0.87291   0.16666   0.00000  Uiso   1.00
O342   O     0.05572   0.71046   0.10772   0.00000  Uiso   1.00
O343   O     0.09351   0.77815   0.07864   0.00000  Uiso   1.00
O344   O     0.27761   0.95621   0.22561   0.00000  Uiso   1.00
O345   O     0.24043   0.96394   0.29607   0.00000  Uiso   1.00
O346   O     0.23982   0.88851   0.25470   0.00000  Uiso   1.00
O347   O     0.21176   0.71230   0.29931   0.00000  Uiso   1.00
O348   O     0.27350   0.70184   0.26062   0.00000  Uiso   1.00
O349   O     0.24023   0.77786   0.25405   0.00000  Uiso   1.00
O350   O     0.05983   0.96483   0.07272   0.00000  Uiso   1.00
O351   O     0.12158   0.95437   0.03402   0.00000  Uiso   1.00
O352   O     0.22679   0.79375   0.16667   0.00000  Uiso   1.00
O353   O     0.09311   0.88881   0.07928   0.00000  Uiso   1.00
O354   O     0.22679   0.87291   0.16667   0.00000  Uiso   1.00
O355   O     0.10655   0.79375   0.16666   0.00000  Uiso   1.00
O356   O     0.16667   0.87292   0.09613   0.00000  Uiso   1.00
O357   O     0.16667   0.79375   0.23720   0.00000  Uiso   1.00
O358   O     0.16667   0.87292   0.23720   0.00000  Uiso   1.00
O359   O     0.16667   0.79375   0.09613   0.00000  Uiso   1.00
O360   O     0.09290   0.70272   0.03727   0.00000  Uiso   1.00
S361   S     0.09554   0.72141   0.08907   0.00000  Uiso   1.00
S362   S     0.23779   0.94526   0.24427   0.00000  Uiso   1.00
S363   S     0.23016   0.72139   0.25324   0.00000  Uiso   1.00
S364   S     0.10317   0.94527   0.08009   0.00000  Uiso   1.00
C365   C     0.42092   0.83329   0.16732   0.00000  Uiso   1.00
C366   C     0.35334   0.87407   0.15678   0.00000  Uiso   1.00
C367   C     0.62378   0.83333   0.16611   0.00000  Uiso   1.00
C368   C     0.37622   0.83333   0.16723   0.00000  Uiso   1.00
C369   C     0.47102   0.69186   0.13198   0.00000  Uiso   1.00
C370   C     0.52898   0.97481   0.20135   0.00000  Uiso   1.00
C371   C     0.52878   0.69181   0.20165   0.00000  Uiso   1.00
C372   C     0.47122   0.97485   0.13168   0.00000  Uiso   1.00
C373   C     0.57908   0.83337   0.16601   0.00000  Uiso   1.00
C374   C     0.50059   0.83340   0.07379   0.00000  Uiso   1.00
C375   C     0.49941   0.83327   0.25954   0.00000  Uiso   1.00
C376   C     0.50022   0.83342   0.02192   0.00000  Uiso   1.00
C377   C     0.49978   0.83324   0.31141   0.00000  Uiso   1.00
C378   C     0.35606   0.79265   0.17728   0.00000  Uiso   1.00
C379   C     0.64394   0.87402   0.15605   0.00000  Uiso   1.00
C380   C     0.64666   0.79260   0.17656   0.00000  Uiso   1.00
Cu381  Cu    0.50000   0.88022   0.16667   0.00000  Uiso   1.00
Cu382  Cu    0.50000   0.78645   0.16667   0.00000  Uiso   1.00
H383   H     0.37329   0.76099   0.18611   0.00000  Uiso   1.00
H384   H     0.62671   0.90568   0.14722   0.00000  Uiso   1.00
H385   H     0.63170   0.76079   0.18457   0.00000  Uiso   1.00
H386   H     0.36830   0.90587   0.14876   0.00000  Uiso   1.00
H387   H     0.39895   0.78398   0.05802   0.00000  Uiso   1.00
H388   H     0.60105   0.88268   0.27531   0.00000  Uiso   1.00
H389   H     0.58958   0.78433   0.28788   0.00000  Uiso   1.00
H390   H     0.41042   0.88234   0.04546   0.00000  Uiso   1.00
N391   N     0.50000   0.95069   0.16667   0.00000  Uiso   1.00
N392   N     0.50000   0.71598   0.16667   0.00000  Uiso   1.00
O393   O     0.43988   0.87291   0.16666   0.00000  Uiso   1.00
O394   O     0.38906   0.71046   0.10772   0.00000  Uiso   1.00
O395   O     0.42685   0.77815   0.07864   0.00000  Uiso   1.00
O396   O     0.61094   0.95621   0.22561   0.00000  Uiso   1.00
O397   O     0.57377   0.96394   0.29607   0.00000  Uiso   1.00
O398   O     0.57315   0.88851   0.25470   0.00000  Uiso   1.00
O399   O     0.54509   0.71230   0.29931   0.00000  Uiso   1.00
O400   O     0.60684   0.70184   0.26062   0.00000  Uiso   1.00
O401   O     0.57356   0.77786   0.25405   0.00000  Uiso   1.00
O402   O     0.39316   0.96483   0.07272   0.00000  Uiso   1.00
O403   O     0.45491   0.95437   0.03402   0.00000  Uiso   1.00
O404   O     0.56012   0.79375   0.16667   0.00000  Uiso   1.00
O405   O     0.42644   0.88881   0.07928   0.00000  Uiso   1.00
O406   O     0.56012   0.87291   0.16667   0.00000  Uiso   1.00
O407   O     0.43988   0.79375   0.16666   0.00000  Uiso   1.00
O408   O     0.50000   0.87292   0.09613   0.00000  Uiso   1.00
O409   O     0.50000   0.79375   0.23720   0.00000  Uiso   1.00
O410   O     0.50000   0.87292   0.23720   0.00000  Uiso   1.00
O411   O     0.50000   0.79375   0.09613   0.00000  Uiso   1.00
O412   O     0.42623   0.70272   0.03727   0.00000  Uiso   1.00
S413   S     0.42888   0.72141   0.08907   0.00000  Uiso   1.00
S414   S     0.57112   0.94526   0.24427   0.00000  Uiso   1.00
S415   S     0.56350   0.72139   0.25324   0.00000  Uiso   1.00
S416   S     0.43650   0.94527   0.08009   0.00000  Uiso   1.00
C417   C     0.75425   0.83329   0.16732   0.00000  Uiso   1.00
C418   C     0.68667   0.87407   0.15678   0.00000  Uiso   1.00
C419   C     0.95711   0.83333   0.16611   0.00000  Uiso   1.00
C420   C     0.70955   0.83333   0.16723   0.00000  Uiso   1.00
C421   C     0.80436   0.69186   0.13198   0.00000  Uiso   1.00
C422   C     0.86231   0.97481   0.20135   0.00000  Uiso   1.00
C423   C     0.86212   0.69181   0.20165   0.00000  Uiso   1.00
C424   C     0.80455   0.97485   0.13168   0.00000  Uiso   1.00
C425   C     0.91242   0.83337   0.16601   0.00000  Uiso   1.00
C426   C     0.83392   0.83340   0.07379   0.00000  Uiso   1.00
C427   C     0.83275   0.83327   0.25954   0.00000  Uiso   1.00
C428   C     0.83355   0.83342   0.02192   0.00000  Uiso   1.00
C429   C     0.83311   0.83324   0.31141   0.00000  Uiso   1.00
C430   C     0.68939   0.79265   0.17728   0.00000  Uiso   1.00
C431   C     0.97727   0.87402   0.15605   0.00000  Uiso   1.00
C432   C     0.97999   0.79260   0.17656   0.00000  Uiso   1.00
Cu433  Cu    0.83333   0.88022   0.16667   0.00000  Uiso   1.00
Cu434  Cu    0.83333   0.78645   0.16667   0.00000  Uiso   1.00
H435   H     0.70662   0.76099   0.18611   0.00000  Uiso   1.00
H436   H     0.96005   0.90568   0.14722   0.00000  Uiso   1.00
H437   H     0.96503   0.76079   0.18457   0.00000  Uiso   1.00
H438   H     0.70164   0.90587   0.14876   0.00000  Uiso   1.00
H439   H     0.73228   0.78398   0.05802   0.00000  Uiso   1.00
H440   H     0.93438   0.88268   0.27531   0.00000  Uiso   1.00
H441   H     0.92292   0.78433   0.28788   0.00000  Uiso   1.00
H442   H     0.74375   0.88234   0.04546   0.00000  Uiso   1.00
N443   N     0.83333   0.95069   0.16667   0.00000  Uiso   1.00
N444   N     0.83333   0.71598   0.16667   0.00000  Uiso   1.00
O445   O     0.77321   0.87291   0.16666   0.00000  Uiso   1.00
O446   O     0.72239   0.71046   0.10772   0.00000  Uiso   1.00
O447   O     0.76018   0.77815   0.07864   0.00000  Uiso   1.00
O448   O     0.94428   0.95621   0.22561   0.00000  Uiso   1.00
O449   O     0.90710   0.96394   0.29607   0.00000  Uiso   1.00
O450   O     0.90649   0.88851   0.25470   0.00000  Uiso   1.00
O451   O     0.87842   0.71230   0.29931   0.00000  Uiso   1.00
O452   O     0.94017   0.70184   0.26062   0.00000  Uiso   1.00
O453   O     0.90689   0.77786   0.25405   0.00000  Uiso   1.00
O454   O     0.72650   0.96483   0.07272   0.00000  Uiso   1.00
O455   O     0.78824   0.95437   0.03402   0.00000  Uiso   1.00
O456   O     0.89345   0.79375   0.16667   0.00000  Uiso   1.00
O457   O     0.75977   0.88881   0.07928   0.00000  Uiso   1.00
O458   O     0.89345   0.87291   0.16667   0.00000  Uiso   1.00
O459   O     0.77321   0.79375   0.16666   0.00000  Uiso   1.00
O460   O     0.83333   0.87292   0.09613   0.00000  Uiso   1.00
O461   O     0.83333   0.79375   0.23720   0.00000  Uiso   1.00
O462   O     0.83333   0.87292   0.23720   0.00000  Uiso   1.00
O463   O     0.83333   0.79375   0.09613   0.00000  Uiso   1.00
O464   O     0.75957   0.70272   0.03727   0.00000  Uiso   1.00
S465   S     0.76221   0.72141   0.08907   0.00000  Uiso   1.00
S466   S     0.90446   0.94526   0.24427   0.00000  Uiso   1.00
S467   S     0.89683   0.72139   0.25324   0.00000  Uiso   1.00
S468   S     0.76984   0.94527   0.08009   0.00000  Uiso   1.00
C469   C     0.08758   0.16663   0.50065   0.00000  Uiso   1.00
C470   C     0.02001   0.20740   0.49011   0.00000  Uiso   1.00
C471   C     0.29045   0.16667   0.49944   0.00000  Uiso   1.00
C472   C     0.04289   0.16667   0.50056   0.00000  Uiso   1.00
C473   C     0.13769   0.02519   0.46532   0.00000  Uiso   1.00
C474   C     0.19564   0.30814   0.53468   0.00000  Uiso   1.00
C475   C     0.19545   0.02515   0.53499   0.00000  Uiso   1.00
C476   C     0.13788   0.30818   0.46501   0.00000  Uiso   1.00
C477   C     0.24575   0.16671   0.49935   0.00000  Uiso   1.00
C478   C     0.16725   0.16673   0.40713   0.00000  Uiso   1.00
C479   C     0.16608   0.16660   0.59287   0.00000  Uiso   1.00
C480   C     0.16689   0.16676   0.35526   0.00000  Uiso   1.00
C481   C     0.16645   0.16658   0.64474   0.00000  Uiso   1.00
C482   C     0.02273   0.12598   0.51062   0.00000  Uiso   1.00
C483   C     0.31061   0.20735   0.48938   0.00000  Uiso   1.00
C484   C     0.31333   0.12593   0.50989   0.00000  Uiso   1.00
Cu485  Cu    0.16667   0.21355   0.50000   0.00000  Uiso   1.00
Cu486  Cu    0.16667   0.11978   0.50000   0.00000  Uiso   1.00
H487   H     0.03995   0.09432   0.51945   0.00000  Uiso   1.00
H488   H     0.29338   0.23901   0.48055   0.00000  Uiso   1.00
H489   H     0.29836   0.09413   0.51791   0.00000  Uiso   1.00
H490   H     0.03497   0.23921   0.48209   0.00000  Uiso   1.00
H491   H     0.06562   0.11732   0.39135   0.00000  Uiso   1.00
H492   H     0.26772   0.21602   0.60865   0.00000  Uiso   1.00
H493   H     0.25625   0.11766   0.62121   0.00000  Uiso   1.00
H494   H     0.07709   0.21567   0.37879   0.00000  Uiso   1.00
N495   N     0.16667   0.28402   0.50000   0.00000  Uiso   1.00
N496   N     0.16667   0.04931   0.50000   0.00000  Uiso   1.00
O497   O     0.10655   0.20625   0.50000   0.00000  Uiso   1.00
O498   O     0.05572   0.04379   0.44106   0.00000  Uiso   1.00
O499   O     0.09351   0.11149   0.41197   0.00000  Uiso   1.00
O500   O     0.27761   0.28954   0.55894   0.00000  Uiso   1.00
O501   O     0.24043   0.29728   0.62940   0.00000  Uiso   1.00
O502   O     0.23982   0.22185   0.58803   0.00000  Uiso   1.00
O503   O     0.21176   0.04563   0.63265   0.00000  Uiso   1.00
O504   O     0.27350   0.03517   0.59395   0.00000  Uiso   1.00
O505   O     0.24023   0.11119   0.58739   0.00000  Uiso   1.00
O506   O     0.05983   0.29816   0.40605   0.00000  Uiso   1.00
O507   O     0.12158   0.28770   0.36735   0.00000  Uiso   1.00
O508   O     0.22679   0.12709   0.50000   0.00000  Uiso   1.00
O509   O     0.09311   0.22214   0.41261   0.00000  Uiso   1.00
O510   O     0.22679   0.20625   0.50000   0.00000  Uiso   1.00
O511   O     0.10655   0.12709   0.50000   0.00000  Uiso   1.00
O512   O     0.16667   0.20625   0.42946   0.00000  Uiso   1.00
O513   O     0.16667   0.12708   0.57054   0.00000  Uiso   1.00
O514   O     0.16667   0.20625   0.57054   0.00000  Uiso   1.00
O515   O     0.16667   0.12708   0.42946   0.00000  Uiso   1.00
O516   O     0.09290   0.03606   0.37060   0.00000  Uiso   1.00
S517   S     0.09554   0.05474   0.42240   0.00000  Uiso   1.00
S518   S     0.23779   0.27859   0.57760   0.00000  Uiso   1.00
S519   S     0.23016   0.05473   0.58657   0.00000  Uiso   1.00
S520   S     0.10317   0.27861   0.41343   0.00000  Uiso   1.00
C521   C     0.42092   0.16663   0.50065   0.00000  Uiso   1.00
C522   C     0.35334   0.20740   0.49011   0.00000  Uiso   1.00
C523   C     0.62378   0.16667   0.49944   0.00000  Uiso   1.00
C524   C     0.37622   0.16667   0.50056   0.00000  Uiso   1.00
C525   C     0.47102   0.02519   0.46532   0.00000  Uiso   1.00
C526   C     0.52898   0.30814   0.53468   0.00000  Uiso   1.00
C527   C     0.52878   0.02515   0.53499   0.00000  Uiso   1.00
C528   C     0.47122   0.30818   0.46501   0.00000  Uiso   1.00
C529   C     0.57908   0.16671   0.49935   0.00000  Uiso   1.00
C530   C     0.50059   0.16673   0.40713   0.00000  Uiso   1.00
C531   C     0.49941   0.16660   0.59287   0.00000  Uiso   1.00
C532   C     0.50022   0.16676   0.35526   0.00000  Uiso   1.00
C533   C     0.49978   0.16658   0.64474   0.00000  Uiso   1.00
C534   C     0.35606   0.12598   0.51062   0.00000  Uiso   1.00
C535   C     0.64394   0.20735   0.48938   0.00000  Uiso   1.00
C536   C     0.64666   0.12593   0.50989   0.00000  Uiso   1.00
Cu537  Cu    0.50000   0.21355   0.50000   0.00000  Uiso   1.00
Cu538  Cu    0.50000   0.11978   0.50000   0.00000  Uiso   1.00
H539   H     0.37329   0.09432   0.51945   0.00000  Uiso   1.00
H540   H     0.62671   0.23901   0.48055   0.00000  Uiso   1.00
H541   H     0.63170   0.09413   0.51791   0.00000  Uiso   1.00
H542   H     0.36830   0.23921   0.48209   0.00000  Uiso   1.00
H543   H     0.39895   0.11732   0.39135   0.00000  Uiso   1.00
H544   H     0.60105   0.21602   0.60865   0.00000  Uiso   1.00
H545   H     0.58958   0.11766   0.62121   0.00000  Uiso   1.00
H546   H     0.41042   0.21567   0.37879   0.00000  Uiso   1.00
N547   N     0.50000   0.28402   0.50000   0.00000  Uiso   1.00
N548   N     0.50000   0.04931   0.50000   0.00000  Uiso   1.00
O549   O     0.43988   0.20625   0.50000   0.00000  Uiso   1.00
O550   O     0.38906   0.04379   0.44106   0.00000  Uiso   1.00
O551   O     0.42685   0.11149   0.41197   0.00000  Uiso   1.00
O552   O     0.61094   0.28954   0.55894   0.00000  Uiso   1.00
O553   O     0.57377   0.29728   0.62940   0.00000  Uiso   1.00
O554   O     0.57315   0.22185   0.58803   0.00000  Uiso   1.00
O555   O     0.54509   0.04563   0.63265   0.00000  Uiso   1.00
O556   O     0.60684   0.03517   0.59395   0.00000  Uiso   1.00
O557   O     0.57356   0.11119   0.58739   0.00000  Uiso   1.00
O558   O     0.39316   0.29816   0.40605   0.00000  Uiso   1.00
O559   O     0.45491   0.28770   0.36735   0.00000  Uiso   1.00
O560   O     0.56012   0.12709   0.50000   0.00000  Uiso   1.00
O561   O     0.42644   0.22214   0.41261   0.00000  Uiso   1.00
O562   O     0.56012   0.20625   0.50000   0.00000  Uiso   1.00
O563   O     0.43988   0.12709   0.50000   0.00000  Uiso   1.00
O564   O     0.50000   0.20625   0.42946   0.00000  Uiso   1.00
O565   O     0.50000   0.12708   0.57054   0.00000  Uiso   1.00
O566   O     0.50000   0.20625   0.57054   0.00000  Uiso   1.00
O567   O     0.50000   0.12708   0.42946   0.00000  Uiso   1.00
O568   O     0.42623   0.03606   0.37060   0.00000  Uiso   1.00
S569   S     0.42888   0.05474   0.42240   0.00000  Uiso   1.00
S570   S     0.57112   0.27859   0.57760   0.00000  Uiso   1.00
S571   S     0.56350   0.05473   0.58657   0.00000  Uiso   1.00
S572   S     0.43650   0.27861   0.41343   0.00000  Uiso   1.00
C573   C     0.75425   0.16663   0.50065   0.00000  Uiso   1.00
C574   C     0.68667   0.20740   0.49011   0.00000  Uiso   1.00
C575   C     0.95711   0.16667   0.49944   0.00000  Uiso   1.00
C576   C     0.70955   0.16667   0.50056   0.00000  Uiso   1.00
C577   C     0.80436   0.02519   0.46532   0.00000  Uiso   1.00
C578   C     0.86231   0.30814   0.53468   0.00000  Uiso   1.00
C579   C     0.86212   0.02515   0.53499   0.00000  Uiso   1.00
C580   C     0.80455   0.30818   0.46501   0.00000  Uiso   1.00
C581   C     0.91242   0.16671   0.49935   0.00000  Uiso   1.00
C582   C     0.83392   0.16673   0.40713   0.00000  Uiso   1.00
C583   C     0.83275   0.16660   0.59287   0.00000  Uiso   1.00
C584   C     0.83355   0.16676   0.35526   0.00000  Uiso   1.00
C585   C     0.83311   0.16658   0.64474   0.00000  Uiso   1.00
C586   C     0.68939   0.12598   0.51062   0.00000  Uiso   1.00
C587   C     0.97727   0.20735   0.48938   0.00000  Uiso   1.00
C588   C     0.97999   0.12593   0.50989   0.00000  Uiso   1.00
Cu589  Cu    0.83333   0.21355   0.50000   0.00000  Uiso   1.00
Cu590  Cu    0.83333   0.11978   0.50000   0.00000  Uiso   1.00
H591   H     0.70662   0.09432   0.51945   0.00000  Uiso   1.00
H592   H     0.96005   0.23901   0.48055   0.00000  Uiso   1.00
H593   H     0.96503   0.09413   0.51791   0.00000  Uiso   1.00
H594   H     0.70164   0.23921   0.48209   0.00000  Uiso   1.00
H595   H     0.73228   0.11732   0.39135   0.00000  Uiso   1.00
H596   H     0.93438   0.21602   0.60865   0.00000  Uiso   1.00
H597   H     0.92292   0.11766   0.62121   0.00000  Uiso   1.00
H598   H     0.74375   0.21567   0.37879   0.00000  Uiso   1.00
N599   N     0.83333   0.28402   0.50000   0.00000  Uiso   1.00
N600   N     0.83333   0.04931   0.50000   0.00000  Uiso   1.00
O601   O     0.77321   0.20625   0.50000   0.00000  Uiso   1.00
O602   O     0.72239   0.04379   0.44106   0.00000  Uiso   1.00
O603   O     0.76018   0.11149   0.41197   0.00000  Uiso   1.00
O604   O     0.94428   0.28954   0.55894   0.00000  Uiso   1.00
O605   O     0.90710   0.29728   0.62940   0.00000  Uiso   1.00
O606   O     0.90649   0.22185   0.58803   0.00000  Uiso   1.00
O607   O     0.87842   0.04563   0.63265   0.00000  Uiso   1.00
O608   O     0.94017   0.03517   0.59395   0.00000  Uiso   1.00
O609   O     0.90689   0.11119   0.58739   0.00000  Uiso   1.00
O610   O     0.72650   0.29816   0.40605   0.00000  Uiso   1.00
O611   O     0.78824   0.28770   0.36735   0.00000  Uiso   1.00
O612   O     0.89345   0.12709   0.50000   0.00000  Uiso   1.00
O613   O     0.75977   0.22214   0.41261   0.00000  Uiso   1.00
O614   O     0.89345   0.20625   0.50000   0.00000  Uiso   1.00
O615   O     0.77321   0.12709   0.50000   0.00000  Uiso   1.00
O616   O     0.83333   0.20625   0.42946   0.00000  Uiso   1.00
O617   O     0.83333   0.12708   0.57054   0.00000  Uiso   1.00
O618   O     0.83333   0.20625   0.57054   0.00000  Uiso   1.00
O619   O     0.83333   0.12708   0.42946   0.00000  Uiso   1.00
O620   O     0.75957   0.03606   0.37060   0.00000  Uiso   1.00
S621   S     0.76221   0.05474   0.42240   0.00000  Uiso   1.00
S622   S     0.90446   0.27859   0.57760   0.00000  Uiso   1.00
S623   S     0.89683   0.05473   0.58657   0.00000  Uiso   1.00
S624   S     0.76984   0.27861   0.41343   0.00000  Uiso   1.00
C625   C     0.08758   0.49996   0.50065   0.00000  Uiso   1.00
C626   C     0.02001   0.54073   0.49011   0.00000  Uiso   1.00
C627   C     0.29045   0.50000   0.49944   0.00000  Uiso   1.00
C628   C     0.04289   0.50000   0.50056   0.00000  Uiso   1.00
C629   C     0.13769   0.35853   0.46532   0.00000  Uiso   1.00
C630   C     0.19564   0.64147   0.53468   0.00000  Uiso   1.00
C631   C     0.19545   0.35848   0.53499   0.00000  Uiso   1.00
C632   C     0.13788   0.64152   0.46501   0.00000  Uiso   1.00
C633   C     0.24575   0.50004   0.49935   0.00000  Uiso   1.00
C634   C     0.16725   0.50007   0.40713   0.00000  Uiso   1.00
C635   C     0.16608   0.49993   0.59287   0.00000  Uiso   1.00
C636   C     0.16689   0.50009   0.35526   0.00000  Uiso   1.00
C637   C     0.16645   0.49991   0.64474   0.00000  Uiso   1.00
C638   C     0.02273   0.45931   0.51062   0.00000  Uiso   1.00
C639   C     0.31061   0.54069   0.48938   0.00000  Uiso   1.00
C640   C     0.31333   0.45927   0.50989   0.00000  Uiso   1.00
Cu641  Cu    0.16667   0.54689   0.50000   0.00000  Uiso   1.00
Cu642  Cu    0.16667   0.45311   0.50000   0.00000  Uiso   1.00
H643   H     0.03995   0.42766   0.51945   0.00000  Uiso   1.00
H644   H     0.29338   0.57234   0.48055   0.00000  Uiso   1.00
H645   H     0.29836   0.42746   0.51791   0.00000  Uiso   1.00
H646   H     0.03497   0.57254   0.48209   0.00000  Uiso   1.00
H647   H     0.06562   0.45065   0.39135   0.00000  Uiso   1.00
H648   H     0.26772   0.54935   0.60865   0.00000  Uiso   1.00
H649   H     0.25625   0.45100   0.62121   0.00000  Uiso   1.00
H650   H     0.07709   0.54900   0.37879   0.00000  Uiso   1.00
N651   N     0.16667   0.61736   0.50000   0.00000  Uiso   1.00
N652   N     0.16667   0.38264   0.50000   0.00000  Uiso   1.00
O653   O     0.10655   0.53958   0.50000   0.00000  Uiso   1.00
O654   O     0.05572   0.37712   0.44106   0.00000  Uiso   1.00
O655   O     0.09351   0.44482   0.41197   0.00000  Uiso   1.00
O656   O     0.27761   0.62288   0.55894   0.00000  Uiso   1.00
O657   O     0.24043   0.63061   0.62940   0.00000  Uiso   1.00
O658   O     0.23982   0.55518   0.58803   0.00000  Uiso   1.00
O659   O     0.21176   0.37896   0.63265   0.00000  Uiso   1.00
O660   O     0.27350   0.36851   0.59395   0.00000  Uiso   1.00
O661   O     0.24023   0.44453   0.58739   0.00000  Uiso   1.00
O662   O     0.05983   0.63149   0.40605   0.00000  Uiso   1.00
O663   O     0.12158   0.62104   0.36735   0.00000  Uiso   1.00
O664   O     0.22679   0.46042   0.50000   0.00000  Uiso   1.00
O665   O     0.09311   0.55547   0.41261   0.00000  Uiso   1.00
O666   O     0.22679   0.53958   0.50000   0.00000  Uiso   1.00
O667   O     0.10655   0.46042   0.50000   0.00000  Uiso   1.00
O668   O     0.16667   0.53959   0.42946   0.00000  Uiso   1.00
O669   O     0.16667   0.46041   0.57054   0.00000  Uiso   1.00
O670   O     0.16667   0.53959   0.57054   0.00000  Uiso   1.00
O671   O     0.16667   0.46041   0.42946   0.00000  Uiso   1.00
O672   O     0.09290   0.36939   0.37060   0.00000  Uiso   1.00
S673   S     0.09554   0.38807   0.42240   0.00000  Uiso   1.00
S674   S     0.23779   0.61193   0.57760   0.00000  Uiso   1.00
S675   S     0.23016   0.38806   0.58657   0.00000  Uiso   1.00
S676   S     0.10317   0.61194   0.41343   0.00000  Uiso   1.00
C677   C     0.42092   0.49996   0.50065   0.00000  Uiso   1.00
C678   C     0.35334   0.54073   0.49011   0.00000  Uiso   1.00
C679   C     0.62378   0.50000   0.49944   0.00000  Uiso   1.00
C680   C     0.37622   0.50000   0.50056   0.00000  Uiso   1.00
C681   C     0.47102   0.35853   0.46532   0.00000  Uiso   1.00
C682   C     0.52898   0.64147   0.53468   0.00000  Uiso   1.00
C683   C     0.52878   0.35848   0.53499   0.00000  Uiso   1.00
C684   C     0.47122   0.64152   0.46501   0.00000  Uiso   1.00
C685   C     0.57908   0.50004   0.49935   0.00000  Uiso   1.00
C686   C     0.50059   0.50007   0.40713   0.00000  Uiso   1.00
C687   C     0.49941   0.49993   0.59287   0.00000  Uiso   1.00
C688   C     0.50022   0.50009   0.35526   0.00000  Uiso   1.00
C689   C     0.49978   0.49991   0.64474   0.00000  Uiso   1.00
C690   C     0.35606   0.45931   0.51062   0.00000  Uiso   1.00
C691   C     0.64394   0.54069   0.48938   0.00000  Uiso   1.00
C692   C     0.64666   0.45927   0.50989   0.00000  Uiso   1.00
Cu693  Cu    0.50000   0.54689   0.50000   0.00000  Uiso   1.00
Cu694  Cu    0.50000   0.45311   0.50000   0.00000  Uiso   1.00
H695   H     0.37329   0.42766   0.51945   0.00000  Uiso   1.00
H696   H     0.62671   0.57234   0.48055   0.00000  Uiso   1.00
H697   H     0.63170   0.42746   0.51791   0.00000  Uiso   1.00
H698   H     0.36830   0.57254   0.48209   0.00000  Uiso   1.00
H699   H     0.39895   0.45065   0.39135   0.00000  Uiso   1.00
H700   H     0.60105   0.54935   0.60865   0.00000  Uiso   1.00
H701   H     0.58958   0.45100   0.62121   0.00000  Uiso   1.00
H702   H     0.41042   0.54900   0.37879   0.00000  Uiso   1.00
N703   N     0.50000   0.61736   0.50000   0.00000  Uiso   1.00
N704   N     0.50000   0.38264   0.50000   0.00000  Uiso   1.00
O705   O     0.43988   0.53958   0.50000   0.00000  Uiso   1.00
O706   O     0.38906   0.37712   0.44106   0.00000  Uiso   1.00
O707   O     0.42685   0.44482   0.41197   0.00000  Uiso   1.00
O708   O     0.61094   0.62288   0.55894   0.00000  Uiso   1.00
O709   O     0.57377   0.63061   0.62940   0.00000  Uiso   1.00
O710   O     0.57315   0.55518   0.58803   0.00000  Uiso   1.00
O711   O     0.54509   0.37896   0.63265   0.00000  Uiso   1.00
O712   O     0.60684   0.36851   0.59395   0.00000  Uiso   1.00
O713   O     0.57356   0.44453   0.58739   0.00000  Uiso   1.00
O714   O     0.39316   0.63149   0.40605   0.00000  Uiso   1.00
O715   O     0.45491   0.62104   0.36735   0.00000  Uiso   1.00
O716   O     0.56012   0.46042   0.50000   0.00000  Uiso   1.00
O717   O     0.42644   0.55547   0.41261   0.00000  Uiso   1.00
O718   O     0.56012   0.53958   0.50000   0.00000  Uiso   1.00
O719   O     0.43988   0.46042   0.50000   0.00000  Uiso   1.00
O720   O     0.50000   0.53959   0.42946   0.00000  Uiso   1.00
O721   O     0.50000   0.46041   0.57054   0.00000  Uiso   1.00
O722   O     0.50000   0.53959   0.57054   0.00000  Uiso   1.00
O723   O     0.50000   0.46041   0.42946   0.00000  Uiso   1.00
O724   O     0.42623   0.36939   0.37060   0.00000  Uiso   1.00
S725   S     0.42888   0.38807   0.42240   0.00000  Uiso   1.00
S726   S     0.57112   0.61193   0.57760   0.00000  Uiso   1.00
S727   S     0.56350   0.38806   0.58657   0.00000  Uiso   1.00
S728   S     0.43650   0.61194   0.41343   0.00000  Uiso   1.00
C729   C     0.75425   0.49996   0.50065   0.00000  Uiso   1.00
C730   C     0.68667   0.54073   0.49011   0.00000  Uiso   1.00
C731   C     0.95711   0.50000   0.49944   0.00000  Uiso   1.00
C732   C     0.70955   0.50000   0.50056   0.00000  Uiso   1.00
C733   C     0.80436   0.35853   0.46532   0.00000  Uiso   1.00
C734   C     0.86231   0.64147   0.53468   0.00000  Uiso   1.00
C735   C     0.86212   0.35848   0.53499   0.00000  Uiso   1.00
C736   C     0.80455   0.64152   0.46501   0.00000  Uiso   1.00
C737   C     0.91242   0.50004   0.49935   0.00000  Uiso   1.00
C738   C     0.83392   0.50007   0.40713   0.00000  Uiso   1.00
C739   C     0.83275   0.49993   0.59287   0.00000  Uiso   1.00
C740   C     0.83355   0.50009   0.35526   0.00000  Uiso   1.00
C741   C     0.83311   0.49991   0.64474   0.00000  Uiso   1.00
C742   C     0.68939   0.45931   0.51062   0.00000  Uiso   1.00
C743   C     0.97727   0.54069   0.48938   0.00000  Uiso   1.00
C744   C     0.97999   0.45927   0.50989   0.00000  Uiso   1.00
Cu745  Cu    0.83333   0.54689   0.50000   0.00000  Uiso   1.00
Cu746  Cu    0.83333   0.45311   0.50000   0.00000  Uiso   1.00
H747   H     0.70662   0.42766   0.51945   0.00000  Uiso   1.00
H748   H     0.96005   0.57234   0.48055   0.00000  Uiso   1.00
H749   H     0.96503   0.42746   0.51791   0.00000  Uiso   1.00
H750   H     0.70164   0.57254   0.48209   0.00000  Uiso   1.00
H751   H     0.73228   0.45065   0.39135   0.00000  Uiso   1.00
H752   H     0.93438   0.54935   0.60865   0.00000  Uiso   1.00
H753   H     0.92292   0.45100   0.62121   0.00000  Uiso   1.00
H754   H     0.74375   0.54900   0.37879   0.00000  Uiso   1.00
N755   N     0.83333   0.61736   0.50000   0.00000  Uiso   1.00
N756   N     0.83333   0.38264   0.50000   0.00000  Uiso   1.00
O757   O     0.77321   0.53958   0.50000   0.00000  Uiso   1.00
O758   O     0.72239   0.37712   0.44106   0.00000  Uiso   1.00
O759   O     0.76018   0.44482   0.41197   0.00000  Uiso   1.00
O760   O     0.94428   0.62288   0.55894   0.00000  Uiso   1.00
O761   O     0.90710   0.63061   0.62940   0.00000  Uiso   1.00
O762   O     0.90649   0.55518   0.58803   0.00000  Uiso   1.00
O763   O     0.87842   0.37896   0.63265   0.00000  Uiso   1.00
O764   O     0.94017   0.36851   0.59395   0.00000  Uiso   1.00
O765   O     0.90689   0.44453   0.58739   0.00000  Uiso   1.00
O766   O     0.72650   0.63149   0.40605   0.00000  Uiso   1.00
O767   O     0.78824   0.62104   0.36735   0.00000  Uiso   1.00
O768   O     0.89345   0.46042   0.50000   0.00000  Uiso   1.00
O769   O     0.75977   0.55547   0.41261   0.00000  Uiso   1.00
O770   O     0.89345   0.53958   0.50000   0.00000  Uiso   1.00
O771   O     0.77321   0.46042   0.50000   0.00000  Uiso   1.00
O772   O     0.83333   0.53959   0.42946   0.00000  Uiso   1.00
O773   O     0.83333   0.46041   0.57054   0.00000  Uiso   1.00
O774   O     0.83333   0.53959   0.57054   0.00000  Uiso   1.00
O775   O     0.83333   0.46041   0.42946   0.00000  Uiso   1.00
O776   O     0.75957   0.36939   0.37060   0.00000  Uiso   1.00
S777   S     0.76221   0.38807   0.42240   0.00000  Uiso   1.00
S778   S     0.90446   0.61193   0.57760   0.00000  Uiso   1.00
S779   S     0.89683   0.38806   0.58657   0.00000  Uiso   1.00
S780   S     0.76984   0.61194   0.41343   0.00000  Uiso   1.00
C781   C     0.08758   0.83329   0.50065   0.00000  Uiso   1.00
C782   C     0.02001   0.87407   0.49011   0.00000  Uiso   1.00
C783   C     0.29045   0.83333   0.49944   0.00000  Uiso   1.00
C784   C     0.04289   0.83333   0.50056   0.00000  Uiso   1.00
C785   C     0.13769   0.69186   0.46532   0.00000  Uiso   1.00
C786   C     0.19564   0.97481   0.53468   0.00000  Uiso   1.00
C787   C     0.19545   0.69181   0.53499   0.00000  Uiso   1.00
C788   C     0.13788   0.97485   0.46501   0.00000  Uiso   1.00
C789   C     0.24575   0.83337   0.49935   0.00000  Uiso   1.00
C790   C     0.16725   0.83340   0.40713   0.00000  Uiso   1.00
C791   C     0.16608   0.83327   0.59287   0.00000  Uiso   1.00
C792   C     0.16689   0.83342   0.35526   0.00000  Uiso   1.00
C793   C     0.16645   0.83324   0.64474   0.00000  Uiso   1.00
C794   C     0.02273   0.79265   0.51062   0.00000  Uiso   1.00
C795   C     0.31061   0.87402   0.48938   0.00000  Uiso   1.00
C796   C     0.31333   0.79260   0.50989   0.00000  Uiso   1.00
Cu797  Cu    0.16667   0.88022   0.50000   0.00000  Uiso   1.00
Cu798  Cu    0.16667   0.78645   0.50000   0.00000  Uiso   1.00
H799   H     0.03995   0.76099   0.51945   0.00000  Uiso   1.00
H800   H     0.29338   0.90568   0.48055   0.00000  Uiso   1.00
H801   H     0.29836   0.76079   0.51791   0.00000  Uiso   1.00
H802   H     0.03497   0.90587   0.48209   0.00000  Uiso   1.00
H803   H     0.06562   0.78398   0.39135   0.00000  Uiso   1.00
H804   H     0.26772   0.88268   0.60865   0.00000  Uiso   1.00
H805   H     0.25625   0.78433   0.62121   0.00000  Uiso   1.00
H806   H     0.07709   0.88234   0.37879   0.00000  Uiso   1.00
N807   N     0.16667   0.95069   0.50000   0.00000  Uiso   1.00
N808   N     0.16667   0.71598   0.50000   0.00000  Uiso   1.00
O809   O     0.10655   0.87291   0.50000   0.00000  Uiso   1.00
O810   O     0.05572   0.71046   0.44106   0.00000  Uiso   1.00
O811   O     0.09351   0.77815   0.41197   0.00000  Uiso   1.00
O812   O     0.27761   0.95621   0.55894   0.00000  Uiso   1.00
O813   O     0.24043   0.96394   0.62940   0.00000  Uiso   1.00
O814   O     0.23982   0.88851   0.58803   0.00000  Uiso   1.00
O815   O     0.21176   0.71230   0.63265   0.00000  Uiso   1.00
O816   O     0.27350   0.70184   0.59395   0.00000  Uiso   1.00
O817   O     0.24023   0.77786   0.58739   0.00000  Uiso   1.00
O818   O     0.05983   0.96483   0.40605   0.00000  Uiso   1.00
O819   O     0.12158   0.95437   0.36735   0.00000  Uiso   1.00
O820   O     0.22679   0.79375   0.50000   0.00000  Uiso   1.00
O821   O     0.09311   0.88881   0.41261   0.00000  Uiso   1.00
O822   O     0.22679   0.87291   0.50000   0.00000  Uiso   1.00
O823   O     0.10655   0.79375   0.50000   0.00000  Uiso   1.00
O824   O     0.16667   0.87292   0.42946   0.00000  Uiso   1.00
O825   O     0.16667   0.79375   0.57054   0.00000  Uiso   1.00
O826   O     0.16667   0.87292   0.57054   0.00000  Uiso   1.00
O827   O     0.16667   0.79375   0.42946   0.00000  Uiso   1.00
O828   O     0.09290   0.70272   0.37060   0.00000  Uiso   1.00
S829   S     0.09554   0.72141   0.42240   0.00000  Uiso   1.00
S830   S     0.23779   0.94526   0.57760   0.00000  Uiso   1.00
S831   S     0.23016   0.72139   0.58657   0.00000  Uiso   1.00
S832   S     0.10317   0.94527   0.41343   0.00000  Uiso   1.00
C833   C     0.42092   0.83329   0.50065   0.00000  Uiso   1.00
C834   C     0.35334   0.87407   0.49011   0.00000  Uiso   1.00
C835   C     0.62378   0.83333   0.49944   0.00000  Uiso   1.00
C836   C     0.37622   0.83333   0.50056   0.00000  Uiso   1.00
C837   C     0.47102   0.69186   0.46532   0.00000  Uiso   1.00
C838   C     0.52898   0.97481   0.53468   0.00000  Uiso   1.00
C839   C     0.52878   0.69181   0.53499   0.00000  Uiso   1.00
C840   C     0.47122   0.97485   0.46501   0.00000  Uiso   1.00
C841   C     0.57908   0.83337   0.49935   0.00000  Uiso   1.00
C842   C     0.50059   0.83340   0.40713   0.00000  Uiso   1.00
C843   C     0.49941   0.83327   0.59287   0.00000  Uiso   1.00
C844   C     0.50022   0.83342   0.35526   0.00000  Uiso   1.00
C845   C     0.49978   0.83324   0.64474   0.00000  Uiso   1.00
C846   C     0.35606   0.79265   0.51062   0.00000  Uiso   1.00
C847   C     0.64394   0.87402   0.48938   0.00000  Uiso   1.00
C848   C     0.64666   0.79260   0.50989   0.00000  Uiso   1.00
Cu849  Cu    0.50000   0.88022   0.50000   0.00000  Uiso   1.00
Cu850  Cu    0.50000   0.78645   0.50000   0.00000  Uiso   1.00
H851   H     0.37329   0.76099   0.51945   0.00000  Uiso   1.00
H852   H     0.62671   0.90568   0.48055   0.00000  Uiso   1.00
H853   H     0.63170   0.76079   0.51791   0.00000  Uiso   1.00
H854   H     0.36830   0.90587   0.48209   0.00000  Uiso   1.00
H855   H     0.39895   0.78398   0.39135   0.00000  Uiso   1.00
H856   H     0.60105   0.88268   0.60865   0.00000  Uiso   1.00
H857   H     0.58958   0.78433   0.62121   0.00000  Uiso   1.00
H858   H     0.41042   0.88234   0.37879   0.00000  Uiso   1.00
N859   N     0.50000   0.95069   0.50000   0.00000  Uiso   1.00
N860   N     0.50000   0.71598   0.50000   0.00000  Uiso   1.00
O861   O     0.43988   0.87291   0.50000   0.00000  Uiso   1.00
O862   O     0.38906   0.71046   0.44106   0.00000  Uiso   1.00
O863   O     0.42685   0.77815   0.41197   0.00000  Uiso   1.00
O864   O     0.61094   0.95621   0.55894   0.00000  Uiso   1.00
O865   O     0.57377   0.96394   0.62940   0.00000  Uiso   1.00
O866   O     0.57315   0.88851   0.58803   0.00000  Uiso   1.00
O867   O     0.54509   0.71230   0.63265   0.00000  Uiso   1.00
O868   O     0.60684   0.70184   0.59395   0.00000  Uiso   1.00
O869   O     0.57356   0.77786   0.58739   0.00000  Uiso   1.00
O870   O     0.39316   0.96483   0.40605   0.00000  Uiso   1.00
O871   O     0.45491   0.95437   0.36735   0.00000  Uiso   1.00
O872   O     0.56012   0.79375   0.50000   0.00000  Uiso   1.00
O873   O     0.42644   0.88881   0.41261   0.00000  Uiso   1.00
O874   O     0.56012   0.87291   0.50000   0.00000  Uiso   1.00
O875   O     0.43988   0.79375   0.50000   0.00000  Uiso   1.00
O876   O     0.50000   0.87292   0.42946   0.00000  Uiso   1.00
O877   O     0.50000   0.79375   0.57054   0.00000  Uiso   1.00
O878   O     0.50000   0.87292   0.57054   0.00000  Uiso   1.00
O879   O     0.50000   0.79375   0.42946   0.00000  Uiso   1.00
O880   O     0.42623   0.70272   0.37060   0.00000  Uiso   1.00
S881   S     0.42888   0.72141   0.42240   0.00000  Uiso   1.00
S882   S     0.57112   0.94526   0.57760   0.00000  Uiso   1.00
S883   S     0.56350   0.72139   0.58657   0.00000  Uiso   1.00
S884   S     0.43650   0.94527   0.41343   0.00000  Uiso   1.00
C885   C     0.75425   0.83329   0.50065   0.00000  Uiso   1.00
C886   C     0.68667   0.87407   0.49011   0.00000  Uiso   1.00
C887   C     0.95711   0.83333   0.49944   0.00000  Uiso   1.00
C888   C     0.70955   0.83333   0.50056   0.00000  Uiso   1.00
C889   C     0.80436   0.69186   0.46532   0.00000  Uiso   1.00
C890   C     0.86231   0.97481   0.53468   0.00000  Uiso   1.00
C891   C     0.86212   0.69181   0.53499   0.00000  Uiso   1.00
C892   C     0.80455   0.97485   0.46501   0.00000  Uiso   1.00
C893   C     0.91242   0.83337   0.49935   0.00000  Uiso   1.00
C894   C     0.83392   0.83340   0.40713   0.00000  Uiso   1.00
C895   C     0.83275   0.83327   0.59287   0.00000  Uiso   1.00
C896   C     0.83355   0.83342   0.35526   0.00000  Uiso   1.00
C897   C     0.83311   0.83324   0.64474   0.00000  Uiso   1.00
C898   C     0.68939   0.79265   0.51062   0.00000  Uiso   1.00
C899   C     0.97727   0.87402   0.48938   0.00000  Uiso   1.00
C900   C     0.97999   0.79260   0.50989   0.00000  Uiso   1.00
Cu901  Cu    0.83333   0.88022   0.50000   0.00000  Uiso   1.00
Cu902  Cu    0.83333   0.78645   0.50000   0.00000  Uiso   1.00
H903   H     0.70662   0.76099   0.51945   0.00000  Uiso   1.00
H904   H     0.96005   0.90568   0.48055   0.00000  Uiso   1.00
H905   H     0.96503   0.76079   0.51791   0.00000  Uiso   1.00
H906   H     0.70164   0.90587   0.48209   0.00000  Uiso   1.00
H907   H     0.73228   0.78398   0.39135   0.00000  Uiso   1.00
H908   H     0.93438   0.88268   0.60865   0.00000  Uiso   1.00
H909   H     0.92292   0.78433   0.62121   0.00000  Uiso   1.00
H910   H     0.74375   0.88234   0.37879   0.00000  Uiso   1.00
N911   N     0.83333   0.95069   0.50000   0.00000  Uiso   1.00
N912   N     0.83333   0.71598   0.50000   0.00000  Uiso   1.00
O913   O     0.77321   0.87291   0.50000   0.00000  Uiso   1.00
O914   O     0.72239   0.71046   0.44106   0.00000  Uiso   1.00
O915   O     0.76018   0.77815   0.41197   0.00000  Uiso   1.00
O916   O     0.94428   0.95621   0.55894   0.00000  Uiso   1.00
O917   O     0.90710   0.96394   0.62940   0.00000  Uiso   1.00
O918   O     0.90649   0.88851   0.58803   0.00000  Uiso   1.00
O919   O     0.87842   0.71230   0.63265   0.00000  Uiso   1.00
O920   O     0.94017   0.70184   0.59395   0.00000  Uiso   1.00
O921   O     0.90689   0.77786   0.58739   0.00000  Uiso   1.00
O922   O     0.72650   0.96483   0.40605   0.00000  Uiso   1.00
O923   O     0.78824   0.95437   0.36735   0.00000  Uiso   1.00
O924   O     0.89345   0.79375   0.50000   0.00000  Uiso   1.00
O925   O     0.75977   0.88881   0.41261   0.00000  Uiso   1.00
O926   O     0.89345   0.87291   0.50000   0.00000  Uiso   1.00
O927   O     0.77321   0.79375   0.50000   0.00000  Uiso   1.00
O928   O     0.83333   0.87292   0.42946   0.00000  Uiso   1.00
O929   O     0.83333   0.79375   0.57054   0.00000  Uiso   1.00
O930   O     0.83333   0.87292   0.57054   0.00000  Uiso   1.00
O931   O     0.83333   0.79375   0.42946   0.00000  Uiso   1.00
O932   O     0.75957   0.70272   0.37060   0.00000  Uiso   1.00
S933   S     0.76221   0.72141   0.42240   0.00000  Uiso   1.00
S934   S     0.90446   0.94526   0.57760   0.00000  Uiso   1.00
S935   S     0.89683   0.72139   0.58657   0.00000  Uiso   1.00
S936   S     0.76984   0.94527   0.41343   0.00000  Uiso   1.00
C937   C     0.08758   0.16663   0.83399   0.00000  Uiso   1.00
C938   C     0.02001   0.20740   0.82344   0.00000  Uiso   1.00
C939   C     0.29045   0.16667   0.83277   0.00000  Uiso   1.00
C940   C     0.04289   0.16667   0.83389   0.00000  Uiso   1.00
C941   C     0.13769   0.02519   0.79865   0.00000  Uiso   1.00
C942   C     0.19564   0.30814   0.86802   0.00000  Uiso   1.00
C943   C     0.19545   0.02515   0.86832   0.00000  Uiso   1.00
C944   C     0.13788   0.30818   0.79835   0.00000  Uiso   1.00
C945   C     0.24575   0.16671   0.83268   0.00000  Uiso   1.00
C946   C     0.16725   0.16673   0.74046   0.00000  Uiso   1.00
C947   C     0.16608   0.16660   0.92621   0.00000  Uiso   1.00
C948   C     0.16689   0.16676   0.68859   0.00000  Uiso   1.00
C949   C     0.16645   0.16658   0.97808   0.00000  Uiso   1.00
C950   C     0.02273   0.12598   0.84395   0.00000  Uiso   1.00
C951   C     0.31061   0.20735   0.82272   0.00000  Uiso   1.00
C952   C     0.31333   0.12593   0.84322   0.00000  Uiso   1.00
Cu953  Cu    0.16667   0.21355   0.83333   0.00000  Uiso   1.00
Cu954  Cu    0.16667   0.11978   0.83333   0.00000  Uiso   1.00
H955   H     0.03995   0.09432   0.85278   0.00000  Uiso   1.00
H956   H     0.29338   0.23901   0.81389   0.00000  Uiso   1.00
H957   H     0.29836   0.09413   0.85124   0.00000  Uiso   1.00
H958   H     0.03497   0.23921   0.81543   0.00000  Uiso   1.00
H959   H     0.06562   0.11732   0.72468   0.00000  Uiso   1.00
H960   H     0.26772   0.21602   0.94198   0.00000  Uiso   1.00
H961   H     0.25625   0.11766   0.95454   0.00000  Uiso   1.00
H962   H     0.07709   0.21567   0.71212   0.00000  Uiso   1.00
N963   N     0.16667   0.28402   0.83333   0.00000  Uiso   1.00
N964   N     0.16667   0.04931   0.83333   0.00000  Uiso   1.00
O965   O     0.10655   0.20625   0.83333   0.00000  Uiso   1.00
O966   O     0.05572   0.04379   0.77439   0.00000  Uiso   1.00
O967   O     0.09351   0.11149   0.74531   0.00000  Uiso   1.00
O968   O     0.27761   0.28954   0.89228   0.00000  Uiso   1.00
O969   O     0.24043   0.29728   0.96273   0.00000  Uiso   1.00
O970   O     0.23982   0.22185   0.92136   0.00000  Uiso   1.00
O971   O     0.21176   0.04563   0.96598   0.00000  Uiso   1.00
O972   O     0.27350   0.03517   0.92728   0.00000  Uiso   1.00
O973   O     0.24023   0.11119   0.92072   0.00000  Uiso   1.00
O974   O     0.05983   0.29816   0.73938   0.00000  Uiso   1.00
O975   O     0.12158   0.28770   0.70069   0.00000  Uiso   1.00
O976   O     0.22679   0.12709   0.83334   0.00000  Uiso   1.00
O977   O     0.09311   0.22214   0.74595   0.00000  Uiso   1.00
O978   O     0.22679   0.20625   0.83334   0.00000  Uiso   1.00
O979   O     0.10655   0.12709   0.83333   0.00000  Uiso   1.00
O980   O     0.16667   0.20625   0.76280   0.00000  Uiso   1.00
O981   O     0.16667   0.12708   0.90387   0.00000  Uiso   1.00
O982   O     0.16667   0.20625   0.90387   0.00000  Uiso   1.00
O983   O     0.16667   0.12708   0.76280   0.00000  Uiso   1.00
O984   O     0.09290   0.03606   0.70393   0.00000  Uiso   1.00
S985   S     0.09554   0.05474   0.75574   0.00000  Uiso   1.00
S986   S     0.23779   0.27859   0.91093   0.00000  Uiso   1.00
S987   S     0.23016   0.05473   0.91991   0.00000  Uiso   1.00
S988   S     0.10317   0.27861   0.74676   0.00000  Uiso   1.00
C989   C     0.42092   0.16663   0.83399   0.00000  Uiso   1.00
C990   C     0.35334   0.20740   0.82344   0.00000  Uiso   1.00
C991   C     0.62378   0.16667   0.83277   0.00000  Uiso   1.00
C992   C     0.37622   0.16667   0.83389   0.00000  Uiso   1.00
C993   C     0.47102   0.02519   0.79865   0.00000  Uiso   1.00
C994   C     0.52898   0.30814   0.86802   0.00000  Uiso   1.00
C995   C     0.52878   0.02515   0.86832   0.00000  Uiso   1.00
C996   C     0.47122   0.30818   0.79835   0.00000  Uiso   1.00
C997   C     0.57908   0.16671   0.83268   0.00000  Uiso   1.00
C998   C     0.50059   0.16673   0.74046   0.00000  Uiso   1.00
C999   C     0.49941   0.16660   0.92621   0.00000  Uiso   1.00
C1000  C     0.50022   0.16676   0.68859   0.00000  Uiso   1.00
C1001  C     0.49978   0.16658   0.97808   0.00000  Uiso   1.00
C1002  C     0.35606   0.12598   0.84395   0.00000  Uiso   1.00
C1003  C     0.64394   0.20735   0.82272   0.00000  Uiso   1.00
C1004  C     0.64666   0.12593   0.84322   0.00000  Uiso   1.00
Cu1005 Cu    0.50000   0.21355   0.83333   0.00000  Uiso   1.00
Cu1006 Cu    0.50000   0.11978   0.83333   0.00000  Uiso   1.00
H1007  H     0.37329   0.09432   0.85278   0.00000  Uiso   1.00
H1008  H     0.62671   0.23901   0.81389   0.00000  Uiso   1.00
H1009  H     0.63170   0.09413   0.85124   0.00000  Uiso   1.00
H1010  H     0.36830   0.23921   0.81543   0.00000  Uiso   1.00
H1011  H     0.39895   0.11732   0.72468   0.00000  Uiso   1.00
H1012  H     0.60105   0.21602   0.94198   0.00000  Uiso   1.00
H1013  H     0.58958   0.11766   0.95454   0.00000  Uiso   1.00
H1014  H     0.41042   0.21567   0.71212   0.00000  Uiso   1.00
N1015  N     0.50000   0.28402   0.83333   0.00000  Uiso   1.00
N1016  N     0.50000   0.04931   0.83333   0.00000  Uiso   1.00
O1017  O     0.43988   0.20625   0.83333   0.00000  Uiso   1.00
O1018  O     0.38906   0.04379   0.77439   0.00000  Uiso   1.00
O1019  O     0.42685   0.11149   0.74531   0.00000  Uiso   1.00
O1020  O     0.61094   0.28954   0.89228   0.00000  Uiso   1.00
O1021  O     0.57377   0.29728   0.96273   0.00000  Uiso   1.00
O1022  O     0.57315   0.22185   0.92136   0.00000  Uiso   1.00
O1023  O     0.54509   0.04563   0.96598   0.00000  Uiso   1.00
O1024  O     0.60684   0.03517   0.92728   0.00000  Uiso   1.00
O1025  O     0.57356   0.11119   0.92072   0.00000  Uiso   1.00
O1026  O     0.39316   0.29816   0.73938   0.00000  Uiso   1.00
O1027  O     0.45491   0.28770   0.70069   0.00000  Uiso   1.00
O1028  O     0.56012   0.12709   0.83334   0.00000  Uiso   1.00
O1029  O     0.42644   0.22214   0.74595   0.00000  Uiso   1.00
O1030  O     0.56012   0.20625   0.83334   0.00000  Uiso   1.00
O1031  O     0.43988   0.12709   0.83333   0.00000  Uiso   1.00
O1032  O     0.50000   0.20625   0.76280   0.00000  Uiso   1.00
O1033  O     0.50000   0.12708   0.90387   0.00000  Uiso   1.00
O1034  O     0.50000   0.20625   0.90387   0.00000  Uiso   1.00
O1035  O     0.50000   0.12708   0.76280   0.00000  Uiso   1.00
O1036  O     0.42623   0.03606   0.70393   0.00000  Uiso   1.00
S1037  S     0.42888   0.05474   0.75574   0.00000  Uiso   1.00
S1038  S     0.57112   0.27859   0.91093   0.00000  Uiso   1.00
S1039  S     0.56350   0.05473   0.91991   0.00000  Uiso   1.00
S1040  S     0.43650   0.27861   0.74676   0.00000  Uiso   1.00
C1041  C     0.75425   0.16663   0.83399   0.00000  Uiso   1.00
C1042  C     0.68667   0.20740   0.82344   0.00000  Uiso   1.00
C1043  C     0.95711   0.16667   0.83277   0.00000  Uiso   1.00
C1044  C     0.70955   0.16667   0.83389   0.00000  Uiso   1.00
C1045  C     0.80436   0.02519   0.79865   0.00000  Uiso   1.00
C1046  C     0.86231   0.30814   0.86802   0.00000  Uiso   1.00
C1047  C     0.86212   0.02515   0.86832   0.00000  Uiso   1.00
C1048  C     0.80455   0.30818   0.79835   0.00000  Uiso   1.00
C1049  C     0.91242   0.16671   0.83268   0.00000  Uiso   1.00
C1050  C     0.83392   0.16673   0.74046   0.00000  Uiso   1.00
C1051  C     0.83275   0.16660   0.92621   0.00000  Uiso   1.00
C1052  C     0.83355   0.16676   0.68859   0.00000  Uiso   1.00
C1053  C     0.83311   0.16658   0.97808   0.00000  Uiso   1.00
C1054  C     0.68939   0.12598   0.84395   0.00000  Uiso   1.00
C1055  C     0.97727   0.20735   0.82272   0.00000  Uiso   1.00
C1056  C     0.97999   0.12593   0.84322   0.00000  Uiso   1.00
Cu1057 Cu    0.83333   0.21355   0.83333   0.00000  Uiso   1.00
Cu1058 Cu    0.83333   0.11978   0.83333   0.00000  Uiso   1.00
H1059  H     0.70662   0.09432   0.85278   0.00000  Uiso   1.00
H1060  H     0.96005   0.23901   0.81389   0.00000  Uiso   1.00
H1061  H     0.96503   0.09413   0.85124   0.00000  Uiso   1.00
H1062  H     0.70164   0.23921   0.81543   0.00000  Uiso   1.00
H1063  H     0.73228   0.11732   0.72468   0.00000  Uiso   1.00
H1064  H     0.93438   0.21602   0.94198   0.00000  Uiso   1.00
H1065  H     0.92292   0.11766   0.95454   0.00000  Uiso   1.00
H1066  H     0.74375   0.21567   0.71212   0.00000  Uiso   1.00
N1067  N     0.83333   0.28402   0.83333   0.00000  Uiso   1.00
N1068  N     0.83333   0.04931   0.83333   0.00000  Uiso   1.00
O1069  O     0.77321   0.20625   0.83333   0.00000  Uiso   1.00
O1070  O     0.72239   0.04379   0.77439   0.00000  Uiso   1.00
O1071  O     0.76018   0.11149   0.74531   0.00000  Uiso   1.00
O1072  O     0.94428   0.28954   0.89228   0.00000  Uiso   1.00
O1073  O     0.90710   0.29728   0.96273   0.00000  Uiso   1.00
O1074  O     0.90649   0.22185   0.92136   0.00000  Uiso   1.00
O1075  O     0.87842   0.04563   0.96598   0.00000  Uiso   1.00
O1076  O     0.94017   0.03517   0.92728   0.00000  Uiso   1.00
O1077  O     0.90689   0.11119   0.92072   0.00000  Uiso   1.00
O1078  O     0.72650   0.29816   0.73938   0.00000  Uiso   1.00
O1079  O     0.78824   0.28770   0.70069   0.00000  Uiso   1.00
O1080  O     0.89345   0.12709   0.83334   0.00000  Uiso   1.00
O1081  O     0.75977   0.22214   0.74595   0.00000  Uiso   1.00
O1082  O     0.89345   0.20625   0.83334   0.00000  Uiso   1.00
O1083  O     0.77321   0.12709   0.83333   0.00000  Uiso   1.00
O1084  O     0.83333   0.20625   0.76280   0.00000  Uiso   1.00
O1085  O     0.83333   0.12708   0.90387   0.00000  Uiso   1.00
O1086  O     0.83333   0.20625   0.90387   0.00000  Uiso   1.00
O1087  O     0.83333   0.12708   0.76280   0.00000  Uiso   1.00
O1088  O     0.75957   0.03606   0.70393   0.00000  Uiso   1.00
S1089  S     0.76221   0.05474   0.75574   0.00000  Uiso   1.00
S1090  S     0.90446   0.27859   0.91093   0.00000  Uiso   1.00
S1091  S     0.89683   0.05473   0.91991   0.00000  Uiso   1.00
S1092  S     0.76984   0.27861   0.74676   0.00000  Uiso   1.00
C1093  C     0.08758   0.49996   0.83399   0.00000  Uiso   1.00
C1094  C     0.02001   0.54073   0.82344   0.00000  Uiso   1.00
C1095  C     0.29045   0.50000   0.83277   0.00000  Uiso   1.00
C1096  C     0.04289   0.50000   0.83389   0.00000  Uiso   1.00
C1097  C     0.13769   0.35853   0.79865   0.00000  Uiso   1.00
C1098  C     0.19564   0.64147   0.86802   0.00000  Uiso   1.00
C1099  C     0.19545   0.35848   0.86832   0.00000  Uiso   1.00
C1100  C     0.13788   0.64152   0.79835   0.00000  Uiso   1.00
C1101  C     0.24575   0.50004   0.83268   0.00000  Uiso   1.00
C1102  C     0.16725   0.50007   0.74046   0.00000  Uiso   1.00
C1103  C     0.16608   0.49993   0.92621   0.00000  Uiso   1.00
C1104  C     0.16689   0.50009   0.68859   0.00000  Uiso   1.00
C1105  C     0.16645   0.49991   0.97808   0.00000  Uiso   1.00
C1106  C     0.02273   0.45931   0.84395   0.00000  Uiso   1.00
C1107  C     0.31061   0.54069   0.82272   0.00000  Uiso   1.00
C1108  C     0.31333   0.45927   0.84322   0.00000  Uiso   1.00
Cu1109 Cu    0.16667   0.54689   0.83333   0.00000  Uiso   1.00
Cu1110 Cu    0.16667   0.45311   0.83333   0.00000  Uiso   1.00
H1111  H     0.03995   0.42766   0.85278   0.00000  Uiso   1.00
H1112  H     0.29338   0.57234   0.81389   0.00000  Uiso   1.00
H1113  H     0.29836   0.42746   0.85124   0.00000  Uiso   1.00
H1114  H     0.03497   0.57254   0.81543   0.00000  Uiso   1.00
H1115  H     0.06562   0.45065   0.72468   0.00000  Uiso   1.00
H1116  H     0.26772   0.54935   0.94198   0.00000  Uiso   1.00
H1117  H     0.25625   0.45100   0.95454   0.00000  Uiso   1.00
H1118  H     0.07709   0.54900   0.71212   0.00000  Uiso   1.00
N1119  N     0.16667   0.61736   0.83333   0.00000  Uiso   1.00
N1120  N     0.16667   0.38264   0.83333   0.00000  Uiso   1.00
O1121  O     0.10655   0.53958   0.83333   0.00000  Uiso   1.00
O1122  O     0.05572   0.37712   0.77439   0.00000  Uiso   1.00
O1123  O     0.09351   0.44482   0.74531   0.00000  Uiso   1.00
O1124  O     0.27761   0.62288   0.89228   0.00000  Uiso   1.00
O1125  O     0.24043   0.63061   0.96273   0.00000  Uiso   1.00
O1126  O     0.23982   0.55518   0.92136   0.00000  Uiso   1.00
O1127  O     0.21176   0.37896   0.96598   0.00000  Uiso   1.00
O1128  O     0.27350   0.36851   0.92728   0.00000  Uiso   1.00
O1129  O     0.24023   0.44453   0.92072   0.00000  Uiso   1.00
O1130  O     0.05983   0.63149   0.73938   0.00000  Uiso   1.00
O1131  O     0.12158   0.62104   0.70069   0.00000  Uiso   1.00
O1132  O     0.22679   0.46042   0.83334   0.00000  Uiso   1.00
O1133  O     0.09311   0.55547   0.74595   0.00000  Uiso   1.00
O1134  O     0.22679   0.53958   0.83334   0.00000  Uiso   1.00
O1135  O     0.10655   0.46042   0.83333   0.00000  Uiso   1.00
O1136  O     0.16667   0.53959   0.76280   0.00000  Uiso   1.00
O1137  O     0.16667   0.46041   0.90387   0.00000  Uiso   1.00
O1138  O     0.16667   0.53959   0.90387   0.00000  Uiso   1.00
O1139  O     0.16667   0.46041   0.76280   0.00000  Uiso   1.00
O1140  O     0.09290   0.36939   0.70393   0.00000  Uiso   1.00
S1141  S     0.09554   0.38807   0.75574   0.00000  Uiso   1.00
S1142  S     0.23779   0.61193   0.91093   0.00000  Uiso   1.00
S1143  S     0.23016   0.38806   0.91991   0.00000  Uiso   1.00
S1144  S     0.10317   0.61194   0.74676   0.00000  Uiso   1.00
C1145  C     0.42092   0.49996   0.83399   0.00000  Uiso   1.00
C1146  C     0.35334   0.54073   0.82344   0.00000  Uiso   1.00
C1147  C     0.62378   0.50000   0.83277   0.00000  Uiso   1.00
C1148  C     0.37622   0.50000   0.83389   0.00000  Uiso   1.00
C1149  C     0.47102   0.35853   0.79865   0.00000  Uiso   1.00
C1150  C     0.52898   0.64147   0.86802   0.00000  Uiso   1.00
C1151  C     0.52878   0.35848   0.86832   0.00000  Uiso   1.00
C1152  C     0.47122   0.64152   0.79835   0.00000  Uiso   1.00
C1153  C     0.57908   0.50004   0.83268   0.00000  Uiso   1.00
C1154  C     0.50059   0.50007   0.74046   0.00000  Uiso   1.00
C1155  C     0.49941   0.49993   0.92621   0.00000  Uiso   1.00
C1156  C     0.50022   0.50009   0.68859   0.00000  Uiso   1.00
C1157  C     0.49978   0.49991   0.97808   0.00000  Uiso   1.00
C1158  C     0.35606   0.45931   0.84395   0.00000  Uiso   1.00
C1159  C     0.64394   0.54069   0.82272   0.00000  Uiso   1.00
C1160  C     0.64666   0.45927   0.84322   0.00000  Uiso   1.00
Cu1161 Cu    0.50000   0.54689   0.83333   0.00000  Uiso   1.00
Cu1162 Cu    0.50000   0.45311   0.83333   0.00000  Uiso   1.00
H1163  H     0.37329   0.42766   0.85278   0.00000  Uiso   1.00
H1164  H     0.62671   0.57234   0.81389   0.00000  Uiso   1.00
H1165  H     0.63170   0.42746   0.85124   0.00000  Uiso   1.00
H1166  H     0.36830   0.57254   0.81543   0.00000  Uiso   1.00
H1167  H     0.39895   0.45065   0.72468   0.00000  Uiso   1.00
H1168  H     0.60105   0.54935   0.94198   0.00000  Uiso   1.00
H1169  H     0.58958   0.45100   0.95454   0.00000  Uiso   1.00
H1170  H     0.41042   0.54900   0.71212   0.00000  Uiso   1.00
N1171  N     0.50000   0.61736   0.83333   0.00000  Uiso   1.00
N1172  N     0.50000   0.38264   0.83333   0.00000  Uiso   1.00
O1173  O     0.43988   0.53958   0.83333   0.00000  Uiso   1.00
O1174  O     0.38906   0.37712   0.77439   0.00000  Uiso   1.00
O1175  O     0.42685   0.44482   0.74531   0.00000  Uiso   1.00
O1176  O     0.61094   0.62288   0.89228   0.00000  Uiso   1.00
O1177  O     0.57377   0.63061   0.96273   0.00000  Uiso   1.00
O1178  O     0.57315   0.55518   0.92136   0.00000  Uiso   1.00
O1179  O     0.54509   0.37896   0.96598   0.00000  Uiso   1.00
O1180  O     0.60684   0.36851   0.92728   0.00000  Uiso   1.00
O1181  O     0.57356   0.44453   0.92072   0.00000  Uiso   1.00
O1182  O     0.39316   0.63149   0.73938   0.00000  Uiso   1.00
O1183  O     0.45491   0.62104   0.70069   0.00000  Uiso   1.00
O1184  O     0.56012   0.46042   0.83334   0.00000  Uiso   1.00
O1185  O     0.42644   0.55547   0.74595   0.00000  Uiso   1.00
O1186  O     0.56012   0.53958   0.83334   0.00000  Uiso   1.00
O1187  O     0.43988   0.46042   0.83333   0.00000  Uiso   1.00
O1188  O     0.50000   0.53959   0.76280   0.00000  Uiso   1.00
O1189  O     0.50000   0.46041   0.90387   0.00000  Uiso   1.00
O1190  O     0.50000   0.53959   0.90387   0.00000  Uiso   1.00
O1191  O     0.50000   0.46041   0.76280   0.00000  Uiso   1.00
O1192  O     0.42623   0.36939   0.70393   0.00000  Uiso   1.00
S1193  S     0.42888   0.38807   0.75574   0.00000  Uiso   1.00
S1194  S     0.57112   0.61193   0.91093   0.00000  Uiso   1.00
S1195  S     0.56350   0.38806   0.91991   0.00000  Uiso   1.00
S1196  S     0.43650   0.61194   0.74676   0.00000  Uiso   1.00
C1197  C     0.75425   0.49996   0.83399   0.00000  Uiso   1.00
C1198  C     0.68667   0.54073   0.82344   0.00000  Uiso   1.00
C1199  C     0.95711   0.50000   0.83277   0.00000  Uiso   1.00
C1200  C     0.70955   0.50000   0.83389   0.00000  Uiso   1.00
C1201  C     0.80436   0.35853   0.79865   0.00000  Uiso   1.00
C1202  C     0.86231   0.64147   0.86802   0.00000  Uiso   1.00
C1203  C     0.86212   0.35848   0.86832   0.00000  Uiso   1.00
C1204  C     0.80455   0.64152   0.79835   0.00000  Uiso   1.00
C1205  C     0.91242   0.50004   0.83268   0.00000  Uiso   1.00
C1206  C     0.83392   0.50007   0.74046   0.00000  Uiso   1.00
C1207  C     0.83275   0.49993   0.92621   0.00000  Uiso   1.00
C1208  C     0.83355   0.50009   0.68859   0.00000  Uiso   1.00
C1209  C     0.83311   0.49991   0.97808   0.00000  Uiso   1.00
C1210  C     0.68939   0.45931   0.84395   0.00000  Uiso   1.00
C1211  C     0.97727   0.54069   0.82272   0.00000  Uiso   1.00
C1212  C     0.97999   0.45927   0.84322   0.00000  Uiso   1.00
Cu1213 Cu    0.83333   0.54689   0.83333   0.00000  Uiso   1.00
Cu1214 Cu    0.83333   0.45311   0.83333   0.00000  Uiso   1.00
H1215  H     0.70662   0.42766   0.85278   0.00000  Uiso   1.00
H1216  H     0.96005   0.57234   0.81389   0.00000  Uiso   1.00
H1217  H     0.96503   0.42746   0.85124   0.00000  Uiso   1.00
H1218  H     0.70164   0.57254   0.81543   0.00000  Uiso   1.00
H1219  H     0.73228   0.45065   0.72468   0.00000  Uiso   1.00
H1220  H     0.93438   0.54935   0.94198   0.00000  Uiso   1.00
H1221  H     0.92292   0.45100   0.95454   0.00000  Uiso   1.00
H1222  H     0.74375   0.54900   0.71212   0.00000  Uiso   1.00
N1223  N     0.83333   0.61736   0.83333   0.00000  Uiso   1.00
N1224  N     0.83333   0.38264   0.83333   0.00000  Uiso   1.00
O1225  O     0.77321   0.53958   0.83333   0.00000  Uiso   1.00
O1226  O     0.72239   0.37712   0.77439   0.00000  Uiso   1.00
O1227  O     0.76018   0.44482   0.74531   0.00000  Uiso   1.00
O1228  O     0.94428   0.62288   0.89228   0.00000  Uiso   1.00
O1229  O     0.90710   0.63061   0.96273   0.00000  Uiso   1.00
O1230  O     0.90649   0.55518   0.92136   0.00000  Uiso   1.00
O1231  O     0.87842   0.37896   0.96598   0.00000  Uiso   1.00
O1232  O     0.94017   0.36851   0.92728   0.00000  Uiso   1.00
O1233  O     0.90689   0.44453   0.92072   0.00000  Uiso   1.00
O1234  O     0.72650   0.63149   0.73938   0.00000  Uiso   1.00
O1235  O     0.78824   0.62104   0.70069   0.00000  Uiso   1.00
O1236  O     0.89345   0.46042   0.83334   0.00000  Uiso   1.00
O1237  O     0.75977   0.55547   0.74595   0.00000  Uiso   1.00
O1238  O     0.89345   0.53958   0.83334   0.00000  Uiso   1.00
O1239  O     0.77321   0.46042   0.83333   0.00000  Uiso   1.00
O1240  O     0.83333   0.53959   0.76280   0.00000  Uiso   1.00
O1241  O     0.83333   0.46041   0.90387   0.00000  Uiso   1.00
O1242  O     0.83333   0.53959   0.90387   0.00000  Uiso   1.00
O1243  O     0.83333   0.46041   0.76280   0.00000  Uiso   1.00
O1244  O     0.75957   0.36939   0.70393   0.00000  Uiso   1.00
S1245  S     0.76221   0.38807   0.75574   0.00000  Uiso   1.00
S1246  S     0.90446   0.61193   0.91093   0.00000  Uiso   1.00
S1247  S     0.89683   0.38806   0.91991   0.00000  Uiso   1.00
S1248  S     0.76984   0.61194   0.74676   0.00000  Uiso   1.00
C1249  C     0.08758   0.83329   0.83399   0.00000  Uiso   1.00
C1250  C     0.02001   0.87407   0.82344   0.00000  Uiso   1.00
C1251  C     0.29045   0.83333   0.83277   0.00000  Uiso   1.00
C1252  C     0.04289   0.83333   0.83389   0.00000  Uiso   1.00
C1253  C     0.13769   0.69186   0.79865   0.00000  Uiso   1.00
C1254  C     0.19564   0.97481   0.86802   0.00000  Uiso   1.00
C1255  C     0.19545   0.69181   0.86832   0.00000  Uiso   1.00
C1256  C     0.13788   0.97485   0.79835   0.00000  Uiso   1.00
C1257  C     0.24575   0.83337   0.83268   0.00000  Uiso   1.00
C1258  C     0.16725   0.83340   0.74046   0.00000  Uiso   1.00
C1259  C     0.16608   0.83327   0.92621   0.00000  Uiso   1.00
C1260  C     0.16689   0.83342   0.68859   0.00000  Uiso   1.00
C1261  C     0.16645   0.83324   0.97808   0.00000  Uiso   1.00
C1262  C     0.02273   0.79265   0.84395   0.00000  Uiso   1.00
C1263  C     0.31061   0.87402   0.82272   0.00000  Uiso   1.00
C1264  C     0.31333   0.79260   0.84322   0.00000  Uiso   1.00
Cu1265 Cu    0.16667   0.88022   0.83333   0.00000  Uiso   1.00
Cu1266 Cu    0.16667   0.78645   0.83333   0.00000  Uiso   1.00
H1267  H     0.03995   0.76099   0.85278   0.00000  Uiso   1.00
H1268  H     0.29338   0.90568   0.81389   0.00000  Uiso   1.00
H1269  H     0.29836   0.76079   0.85124   0.00000  Uiso   1.00
H1270  H     0.03497   0.90587   0.81543   0.00000  Uiso   1.00
H1271  H     0.06562   0.78398   0.72468   0.00000  Uiso   1.00
H1272  H     0.26772   0.88268   0.94198   0.00000  Uiso   1.00
H1273  H     0.25625   0.78433   0.95454   0.00000  Uiso   1.00
H1274  H     0.07709   0.88234   0.71212   0.00000  Uiso   1.00
N1275  N     0.16667   0.95069   0.83333   0.00000  Uiso   1.00
N1276  N     0.16667   0.71598   0.83333   0.00000  Uiso   1.00
O1277  O     0.10655   0.87291   0.83333   0.00000  Uiso   1.00
O1278  O     0.05572   0.71046   0.77439   0.00000  Uiso   1.00
O1279  O     0.09351   0.77815   0.74531   0.00000  Uiso   1.00
O1280  O     0.27761   0.95621   0.89228   0.00000  Uiso   1.00
O1281  O     0.24043   0.96394   0.96273   0.00000  Uiso   1.00
O1282  O     0.23982   0.88851   0.92136   0.00000  Uiso   1.00
O1283  O     0.21176   0.71230   0.96598   0.00000  Uiso   1.00
O1284  O     0.27350   0.70184   0.92728   0.00000  Uiso   1.00
O1285  O     0.24023   0.77786   0.92072   0.00000  Uiso   1.00
O1286  O     0.05983   0.96483   0.73938   0.00000  Uiso   1.00
O1287  O     0.12158   0.95437   0.70069   0.00000  Uiso   1.00
O1288  O     0.22679   0.79375   0.83334   0.00000  Uiso   1.00
O1289  O     0.09311   0.88881   0.74595   0.00000  Uiso   1.00
O1290  O     0.22679   0.87291   0.83334   0.00000  Uiso   1.00
O1291  O     0.10655   0.79375   0.83333   0.00000  Uiso   1.00
O1292  O     0.16667   0.87292   0.76280   0.00000  Uiso   1.00
O1293  O     0.16667   0.79375   0.90387   0.00000  Uiso   1.00
O1294  O     0.16667   0.87292   0.90387   0.00000  Uiso   1.00
O1295  O     0.16667   0.79375   0.76280   0.00000  Uiso   1.00
O1296  O     0.09290   0.70272   0.70393   0.00000  Uiso   1.00
S1297  S     0.09554   0.72141   0.75574   0.00000  Uiso   1.00
S1298  S     0.23779   0.94526   0.91093   0.00000  Uiso   1.00
S1299  S     0.23016   0.72139   0.91991   0.00000  Uiso   1.00
S1300  S     0.10317   0.94527   0.74676   0.00000  Uiso   1.00
C1301  C     0.42092   0.83329   0.83399   0.00000  Uiso   1.00
C1302  C     0.35334   0.87407   0.82344   0.00000  Uiso   1.00
C1303  C     0.62378   0.83333   0.83277   0.00000  Uiso   1.00
C1304  C     0.37622   0.83333   0.83389   0.00000  Uiso   1.00
C1305  C     0.47102   0.69186   0.79865   0.00000  Uiso   1.00
C1306  C     0.52898   0.97481   0.86802   0.00000  Uiso   1.00
C1307  C     0.52878   0.69181   0.86832   0.00000  Uiso   1.00
C1308  C     0.47122   0.97485   0.79835   0.00000  Uiso   1.00
C1309  C     0.57908   0.83337   0.83268   0.00000  Uiso   1.00
C1310  C     0.50059   0.83340   0.74046   0.00000  Uiso   1.00
C1311  C     0.49941   0.83327   0.92621   0.00000  Uiso   1.00
C1312  C     0.50022   0.83342   0.68859   0.00000  Uiso   1.00
C1313  C     0.49978   0.83324   0.97808   0.00000  Uiso   1.00
C1314  C     0.35606   0.79265   0.84395   0.00000  Uiso   1.00
C1315  C     0.64394   0.87402   0.82272   0.00000  Uiso   1.00
C1316  C     0.64666   0.79260   0.84322   0.00000  Uiso   1.00
Cu1317 Cu    0.50000   0.88022   0.83333   0.00000  Uiso   1.00
Cu1318 Cu    0.50000   0.78645   0.83333   0.00000  Uiso   1.00
H1319  H     0.37329   0.76099   0.85278   0.00000  Uiso   1.00
H1320  H     0.62671   0.90568   0.81389   0.00000  Uiso   1.00
H1321  H     0.63170   0.76079   0.85124   0.00000  Uiso   1.00
H1322  H     0.36830   0.90587   0.81543   0.00000  Uiso   1.00
H1323  H     0.39895   0.78398   0.72468   0.00000  Uiso   1.00
H1324  H     0.60105   0.88268   0.94198   0.00000  Uiso   1.00
H1325  H     0.58958   0.78433   0.95454   0.00000  Uiso   1.00
H1326  H     0.41042   0.88234   0.71212   0.00000  Uiso   1.00
N1327  N     0.50000   0.95069   0.83333   0.00000  Uiso   1.00
N1328  N     0.50000   0.71598   0.83333   0.00000  Uiso   1.00
O1329  O     0.43988   0.87291   0.83333   0.00000  Uiso   1.00
O1330  O     0.38906   0.71046   0.77439   0.00000  Uiso   1.00
O1331  O     0.42685   0.77815   0.74531   0.00000  Uiso   1.00
O1332  O     0.61094   0.95621   0.89228   0.00000  Uiso   1.00
O1333  O     0.57377   0.96394   0.96273   0.00000  Uiso   1.00
O1334  O     0.57315   0.88851   0.92136   0.00000  Uiso   1.00
O1335  O     0.54509   0.71230   0.96598   0.00000  Uiso   1.00
O1336  O     0.60684   0.70184   0.92728   0.00000  Uiso   1.00
O1337  O     0.57356   0.77786   0.92072   0.00000  Uiso   1.00
O1338  O     0.39316   0.96483   0.73938   0.00000  Uiso   1.00
O1339  O     0.45491   0.95437   0.70069   0.00000  Uiso   1.00
O1340  O     0.56012   0.79375   0.83334   0.00000  Uiso   1.00
O1341  O     0.42644   0.88881   0.74595   0.00000  Uiso   1.00
O1342  O     0.56012   0.87291   0.83334   0.00000  Uiso   1.00
O1343  O     0.43988   0.79375   0.83333   0.00000  Uiso   1.00
O1344  O     0.50000   0.87292   0.76280   0.00000  Uiso   1.00
O1345  O     0.50000   0.79375   0.90387   0.00000  Uiso   1.00
O1346  O     0.50000   0.87292   0.90387   0.00000  Uiso   1.00
O1347  O     0.50000   0.79375   0.76280   0.00000  Uiso   1.00
O1348  O     0.42623   0.70272   0.70393   0.00000  Uiso   1.00
S1349  S     0.42888   0.72141   0.75574   0.00000  Uiso   1.00
S1350  S     0.57112   0.94526   0.91093   0.00000  Uiso   1.00
S1351  S     0.56350   0.72139   0.91991   0.00000  Uiso   1.00
S1352  S     0.43650   0.94527   0.74676   0.00000  Uiso   1.00
C1353  C     0.75425   0.83329   0.83399   0.00000  Uiso   1.00
C1354  C     0.68667   0.87407   0.82344   0.00000  Uiso   1.00
C1355  C     0.95711   0.83333   0.83277   0.00000  Uiso   1.00
C1356  C     0.70955   0.83333   0.83389   0.00000  Uiso   1.00
C1357  C     0.80436   0.69186   0.79865   0.00000  Uiso   1.00
C1358  C     0.86231   0.97481   0.86802   0.00000  Uiso   1.00
C1359  C     0.86212   0.69181   0.86832   0.00000  Uiso   1.00
C1360  C     0.80455   0.97485   0.79835   0.00000  Uiso   1.00
C1361  C     0.91242   0.83337   0.83268   0.00000  Uiso   1.00
C1362  C     0.83392   0.83340   0.74046   0.00000  Uiso   1.00
C1363  C     0.83275   0.83327   0.92621   0.00000  Uiso   1.00
C1364  C     0.83355   0.83342   0.68859   0.00000  Uiso   1.00
C1365  C     0.83311   0.83324   0.97808   0.00000  Uiso   1.00
C1366  C     0.68939   0.79265   0.84395   0.00000  Uiso   1.00
C1367  C     0.97727   0.87402   0.82272   0.00000  Uiso   1.00
C1368  C     0.97999   0.79260   0.84322   0.00000  Uiso   1.00
Cu1369 Cu    0.83333   0.88022   0.83333   0.00000  Uiso   1.00
Cu1370 Cu    0.83333   0.78645   0.83333   0.00000  Uiso   1.00
H1371  H     0.70662   0.76099   0.85278   0.00000  Uiso   1.00
H1372  H     0.96005   0.90568   0.81389   0.00000  Uiso   1.00
H1373  H     0.96503   0.76079   0.85124   0.00000  Uiso   1.00
H1374  H     0.70164   0.90587   0.81543   0.00000  Uiso   1.00
H1375  H     0.73228   0.78398   0.72468   0.00000  Uiso   1.00
H1376  H     0.93438   0.88268   0.94198   0.00000  Uiso   1.00
H1377  H     0.92292   0.78433   0.95454   0.00000  Uiso   1.00
H1378  H     0.74375   0.88234   0.71212   0.00000  Uiso   1.00
N1379  N     0.83333   0.95069   0.83333   0.00000  Uiso   1.00
N1380  N     0.83333   0.71598   0.83333   0.00000  Uiso   1.00
O1381  O     0.77321   0.87291   0.83333   0.00000  Uiso   1.00
O1382  O     0.72239   0.71046   0.77439   0.00000  Uiso   1.00
O1383  O     0.76018   0.77815   0.74531   0.00000  Uiso   1.00
O1384  O     0.94428   0.95621   0.89228   0.00000  Uiso   1.00
O1385  O     0.90710   0.96394   0.96273   0.00000  Uiso   1.00
O1386  O     0.90649   0.88851   0.92136   0.00000  Uiso   1.00
O1387  O     0.87842   0.71230   0.96598   0.00000  Uiso   1.00
O1388  O     0.94017   0.70184   0.92728   0.00000  Uiso   1.00
O1389  O     0.90689   0.77786   0.92072   0.00000  Uiso   1.00
O1390  O     0.72650   0.96483   0.73938   0.00000  Uiso   1.00
O1391  O     0.78824   0.95437   0.70069   0.00000  Uiso   1.00
O1392  O     0.89345   0.79375   0.83334   0.00000  Uiso   1.00
O1393  O     0.75977   0.88881   0.74595   0.00000  Uiso   1.00
O1394  O     0.89345   0.87291   0.83334   0.00000  Uiso   1.00
O1395  O     0.77321   0.79375   0.83333   0.00000  Uiso   1.00
O1396  O     0.83333   0.87292   0.76280   0.00000  Uiso   1.00
O1397  O     0.83333   0.79375   0.90387   0.00000  Uiso   1.00
O1398  O     0.83333   0.87292   0.90387   0.00000  Uiso   1.00
O1399  O     0.83333   0.79375   0.76280   0.00000  Uiso   1.00
O1400  O     0.75957   0.70272   0.70393   0.00000  Uiso   1.00
S1401  S     0.76221   0.72141   0.75574   0.00000  Uiso   1.00
S1402  S     0.90446   0.94526   0.91093   0.00000  Uiso   1.00
S1403  S     0.89683   0.72139   0.91991   0.00000  Uiso   1.00
S1404  S     0.76984   0.94527   0.74676   0.00000  Uiso   1.00
loop_
_geom_bond_atom_site_label_1
_geom_bond_atom_site_label_2
_geom_bond_distance
_geom_bond_site_symmetry_2
_ccdc_geom_bond_type
C1     C4      1.451   .     S
C1     O29     1.306   .     A
C1     O43     1.308   .     A
C2     H22     1.083   .     S
C2     C4      1.402   .     A
C2     C119    1.384   1_455 S
C3     C9      1.451   .     S
C3     C16     1.402   .     A
C3     C15     1.400   .     A
C4     C14     1.400   .     A
C5     N28     1.397   .     A
C5     S49     1.844   .     S
C5     C320    1.465   1_545 S
C6     N27     1.397   .     A
C6     S50     1.844   .     S
C6     C163    1.465   .     S
C7     S51     1.849   .     S
C7     N28     1.398   .     A
C7     C318    1.465   1_545 S
C8     S52     1.849   .     S
C8     N27     1.398   .     A
C8     C161    1.465   .     S
C9     O42     1.308   .     A
C9     O40     1.306   .     A
C10    C12     1.409   .     S
C10    O44     1.305   .     A
C10    O47     1.303   .     A
C11    C13     1.409   .     S
C11    O45     1.305   .     A
C11    O46     1.303   .     A
C12    C949    1.190   1_554 S
C13    C480    1.190   .     S
C14    H19     1.083   .     S
C14    C120    1.384   1_455 S
C15    H20     1.083   .     S
C15    C54     1.384   .     S
C16    H21     1.083   .     S
C16    C66     1.384   .     S
Cu17   O29     1.963   .     S
Cu17   O44     1.932   .     S
Cu17   Cu18    2.728   .     S
Cu17   N27     2.050   .     S
Cu17   O46     1.930   .     S
Cu17   O42     1.964   .     S
Cu18   N28     2.050   .     S
Cu18   O47     1.930   .     S
Cu18   O43     1.964   .     S
Cu18   O45     1.932   .     S
Cu18   O40     1.963   .     S
H23    O31     0.991   .     S
H24    O34     0.991   .     S
H25    O37     0.991   .     S
H26    O41     0.991   .     S
O30    S49     1.504   .     D
O31    S49     1.673   .     S
O32    S50     1.504   .     D
O33    S50     1.501   .     D
O34    S50     1.673   .     S
O35    S51     1.504   .     D
O36    S51     1.499   .     D
O37    S51     1.673   .     S
O38    S52     1.499   .     D
O39    S52     1.504   .     D
O41    S52     1.673   .     S
O48    S49     1.501   .     D
C53    C56     1.451   .     S
C53    O81     1.306   .     A
C53    O95     1.308   .     A
C54    H74     1.083   .     S
C54    C56     1.402   .     A
C55    C61     1.451   .     S
C55    C68     1.402   .     A
C55    C67     1.400   .     A
C56    C66     1.400   .     A
C57    N80     1.397   .     A
C57    S101    1.844   .     S
C57    C372    1.465   1_545 S
C58    N79     1.397   .     A
C58    S102    1.844   .     S
C58    C215    1.465   .     S
C59    S103    1.849   .     S
C59    N80     1.398   .     A
C59    C370    1.465   1_545 S
C60    S104    1.849   .     S
C60    N79     1.398   .     A
C60    C213    1.465   .     S
C61    O94     1.308   .     A
C61    O92     1.306   .     A
C62    C64     1.409   .     S
C62    O96     1.305   .     A
C62    O99     1.303   .     A
C63    C65     1.409   .     S
C63    O97     1.305   .     A
C63    O98     1.303   .     A
C64    C1001   1.190   1_554 S
C65    C532    1.190   .     S
C66    H71     1.083   .     S
C67    H72     1.083   .     S
C67    C106    1.384   .     S
C68    H73     1.083   .     S
C68    C118    1.384   .     S
Cu69   O81     1.963   .     S
Cu69   O96     1.932   .     S
Cu69   Cu70    2.728   .     S
Cu69   N79     2.050   .     S
Cu69   O98     1.930   .     S
Cu69   O94     1.964   .     S
Cu70   N80     2.050   .     S
Cu70   O99     1.930   .     S
Cu70   O95     1.964   .     S
Cu70   O97     1.932   .     S
Cu70   O92     1.963   .     S
H75    O83     0.991   .     S
H76    O86     0.991   .     S
H77    O89     0.991   .     S
H78    O93     0.991   .     S
O82    S101    1.504   .     D
O83    S101    1.673   .     S
O84    S102    1.504   .     D
O85    S102    1.501   .     D
O86    S102    1.673   .     S
O87    S103    1.504   .     D
O88    S103    1.499   .     D
O89    S103    1.673   .     S
O90    S104    1.499   .     D
O91    S104    1.504   .     D
O93    S104    1.673   .     S
O100   S101    1.501   .     D
C105   C108    1.451   .     S
C105   O133    1.306   .     A
C105   O147    1.308   .     A
C106   H126    1.083   .     S
C106   C108    1.402   .     A
C107   C113    1.451   .     S
C107   C120    1.402   .     A
C107   C119    1.400   .     A
C108   C118    1.400   .     A
C109   N132    1.397   .     A
C109   S153    1.844   .     S
C109   C424    1.465   1_545 S
C110   N131    1.397   .     A
C110   S154    1.844   .     S
C110   C267    1.465   .     S
C111   S155    1.849   .     S
C111   N132    1.398   .     A
C111   C422    1.465   1_545 S
C112   S156    1.849   .     S
C112   N131    1.398   .     A
C112   C265    1.465   .     S
C113   O146    1.308   .     A
C113   O144    1.306   .     A
C114   C116    1.409   .     S
C114   O148    1.305   .     A
C114   O151    1.303   .     A
C115   C117    1.409   .     S
C115   O149    1.305   .     A
C115   O150    1.303   .     A
C116   C1053   1.190   1_554 S
C117   C584    1.190   .     S
C118   H123    1.083   .     S
C119   H124    1.083   .     S
C119   C2      1.384   1_655 S
C120   H125    1.083   .     S
C120   C14     1.384   1_655 S
Cu121  O133    1.963   .     S
Cu121  O148    1.932   .     S
Cu121  Cu122   2.728   .     S
Cu121  N131    2.050   .     S
Cu121  O150    1.930   .     S
Cu121  O146    1.964   .     S
Cu122  N132    2.050   .     S
Cu122  O151    1.930   .     S
Cu122  O147    1.964   .     S
Cu122  O149    1.932   .     S
Cu122  O144    1.963   .     S
H127   O135    0.991   .     S
H128   O138    0.991   .     S
H129   O141    0.991   .     S
H130   O145    0.991   .     S
O134   S153    1.504   .     D
O135   S153    1.673   .     S
O136   S154    1.504   .     D
O137   S154    1.501   .     D
O138   S154    1.673   .     S
O139   S155    1.504   .     D
O140   S155    1.499   .     D
O141   S155    1.673   .     S
O142   S156    1.499   .     D
O143   S156    1.504   .     D
O145   S156    1.673   .     S
O152   S153    1.501   .     D
C157   C160    1.451   .     S
C157   O185    1.306   .     A
C157   O199    1.308   .     A
C158   H178    1.083   .     S
C158   C160    1.402   .     A
C158   C275    1.384   1_455 S
C159   C165    1.451   .     S
C159   C172    1.402   .     A
C159   C171    1.400   .     A
C160   C170    1.400   .     A
C161   N184    1.397   .     A
C161   S205    1.844   .     S
C162   N183    1.397   .     A
C162   S206    1.844   .     S
C162   C319    1.465   .     S
C163   S207    1.849   .     S
C163   N184    1.398   .     A
C164   S208    1.849   .     S
C164   N183    1.398   .     A
C164   C317    1.465   .     S
C165   O198    1.308   .     A
C165   O196    1.306   .     A
C166   C168    1.409   .     S
C166   O200    1.305   .     A
C166   O203    1.303   .     A
C167   C169    1.409   .     S
C167   O201    1.305   .     A
C167   O202    1.303   .     A
C168   C1105   1.190   1_554 S
C169   C636    1.190   .     S
C170   H175    1.083   .     S
C170   C276    1.384   1_455 S
C171   H176    1.083   .     S
C171   C210    1.384   .     S
C172   H177    1.083   .     S
C172   C222    1.384   .     S
Cu173  O185    1.963   .     S
Cu173  O200    1.932   .     S
Cu173  Cu174   2.728   .     S
Cu173  N183    2.050   .     S
Cu173  O202    1.930   .     S
Cu173  O198    1.964   .     S
Cu174  N184    2.050   .     S
Cu174  O203    1.930   .     S
Cu174  O199    1.964   .     S
Cu174  O201    1.932   .     S
Cu174  O196    1.963   .     S
H179   O187    0.991   .     S
H180   O190    0.991   .     S
H181   O193    0.991   .     S
H182   O197    0.991   .     S
O186   S205    1.504   .     D
O187   S205    1.673   .     S
O188   S206    1.504   .     D
O189   S206    1.501   .     D
O190   S206    1.673   .     S
O191   S207    1.504   .     D
O192   S207    1.499   .     D
O193   S207    1.673   .     S
O194   S208    1.499   .     D
O195   S208    1.504   .     D
O197   S208    1.673   .     S
O204   S205    1.501   .     D
C209   C212    1.451   .     S
C209   O237    1.306   .     A
C209   O251    1.308   .     A
C210   H230    1.083   .     S
C210   C212    1.402   .     A
C211   C217    1.451   .     S
C211   C224    1.402   .     A
C211   C223    1.400   .     A
C212   C222    1.400   .     A
C213   N236    1.397   .     A
C213   S257    1.844   .     S
C214   N235    1.397   .     A
C214   S258    1.844   .     S
C214   C371    1.465   .     S
C215   S259    1.849   .     S
C215   N236    1.398   .     A
C216   S260    1.849   .     S
C216   N235    1.398   .     A
C216   C369    1.465   .     S
C217   O250    1.308   .     A
C217   O248    1.306   .     A
C218   C220    1.409   .     S
C218   O252    1.305   .     A
C218   O255    1.303   .     A
C219   C221    1.409   .     S
C219   O253    1.305   .     A
C219   O254    1.303   .     A
C220   C1157   1.190   1_554 S
C221   C688    1.190   .     S
C222   H227    1.083   .     S
C223   H228    1.083   .     S
C223   C262    1.384   .     S
C224   H229    1.083   .     S
C224   C274    1.384   .     S
Cu225  O237    1.963   .     S
Cu225  O252    1.932   .     S
Cu225  Cu226   2.728   .     S
Cu225  N235    2.050   .     S
Cu225  O254    1.930   .     S
Cu225  O250    1.964   .     S
Cu226  N236    2.050   .     S
Cu226  O255    1.930   .     S
Cu226  O251    1.964   .     S
Cu226  O253    1.932   .     S
Cu226  O248    1.963   .     S
H231   O239    0.991   .     S
H232   O242    0.991   .     S
H233   O245    0.991   .     S
H234   O249    0.991   .     S
O238   S257    1.504   .     D
O239   S257    1.673   .     S
O240   S258    1.504   .     D
O241   S258    1.501   .     D
O242   S258    1.673   .     S
O243   S259    1.504   .     D
O244   S259    1.499   .     D
O245   S259    1.673   .     S
O246   S260    1.499   .     D
O247   S260    1.504   .     D
O249   S260    1.673   .     S
O256   S257    1.501   .     D
C261   C264    1.451   .     S
C261   O289    1.306   .     A
C261   O303    1.308   .     A
C262   H282    1.083   .     S
C262   C264    1.402   .     A
C263   C269    1.451   .     S
C263   C276    1.402   .     A
C263   C275    1.400   .     A
C264   C274    1.400   .     A
C265   N288    1.397   .     A
C265   S309    1.844   .     S
C266   N287    1.397   .     A
C266   S310    1.844   .     S
C266   C423    1.465   .     S
C267   S311    1.849   .     S
C267   N288    1.398   .     A
C268   S312    1.849   .     S
C268   N287    1.398   .     A
C268   C421    1.465   .     S
C269   O302    1.308   .     A
C269   O300    1.306   .     A
C270   C272    1.409   .     S
C270   O304    1.305   .     A
C270   O307    1.303   .     A
C271   C273    1.409   .     S
C271   O305    1.305   .     A
C271   O306    1.303   .     A
C272   C1209   1.190   1_554 S
C273   C740    1.190   .     S
C274   H279    1.083   .     S
C275   H280    1.083   .     S
C275   C158    1.384   1_655 S
C276   H281    1.083   .     S
C276   C170    1.384   1_655 S
Cu277  O289    1.963   .     S
Cu277  O304    1.932   .     S
Cu277  Cu278   2.728   .     S
Cu277  N287    2.050   .     S
Cu277  O306    1.930   .     S
Cu277  O302    1.964   .     S
Cu278  N288    2.050   .     S
Cu278  O307    1.930   .     S
Cu278  O303    1.964   .     S
Cu278  O305    1.932   .     S
Cu278  O300    1.963   .     S
H283   O291    0.991   .     S
H284   O294    0.991   .     S
H285   O297    0.991   .     S
H286   O301    0.991   .     S
O290   S309    1.504   .     D
O291   S309    1.673   .     S
O292   S310    1.504   .     D
O293   S310    1.501   .     D
O294   S310    1.673   .     S
O295   S311    1.504   .     D
O296   S311    1.499   .     D
O297   S311    1.673   .     S
O298   S312    1.499   .     D
O299   S312    1.504   .     D
O301   S312    1.673   .     S
O308   S309    1.501   .     D
C313   C316    1.451   .     S
C313   O341    1.306   .     A
C313   O355    1.308   .     A
C314   H334    1.083   .     S
C314   C316    1.402   .     A
C314   C431    1.384   1_455 S
C315   C321    1.451   .     S
C315   C328    1.402   .     A
C315   C327    1.400   .     A
C316   C326    1.400   .     A
C317   N340    1.397   .     A
C317   S361    1.844   .     S
C318   N339    1.397   .     A
C318   S362    1.844   .     S
C318   C7      1.465   1_565 S
C319   S363    1.849   .     S
C319   N340    1.398   .     A
C320   S364    1.849   .     S
C320   N339    1.398   .     A
C320   C5      1.465   1_565 S
C321   O354    1.308   .     A
C321   O352    1.306   .     A
C322   C324    1.409   .     S
C322   O356    1.305   .     A
C322   O359    1.303   .     A
C323   C325    1.409   .     S
C323   O357    1.305   .     A
C323   O358    1.303   .     A
C324   C1261   1.190   1_554 S
C325   C792    1.190   .     S
C326   H331    1.083   .     S
C326   C432    1.384   1_455 S
C327   H332    1.083   .     S
C327   C366    1.384   .     S
C328   H333    1.083   .     S
C328   C378    1.384   .     S
Cu329  O341    1.963   .     S
Cu329  O356    1.932   .     S
Cu329  Cu330   2.728   .     S
Cu329  N339    2.050   .     S
Cu329  O358    1.930   .     S
Cu329  O354    1.964   .     S
Cu330  N340    2.050   .     S
Cu330  O359    1.930   .     S
Cu330  O355    1.964   .     S
Cu330  O357    1.932   .     S
Cu330  O352    1.963   .     S
H335   O343    0.991   .     S
H336   O346    0.991   .     S
H337   O349    0.991   .     S
H338   O353    0.991   .     S
O342   S361    1.504   .     D
O343   S361    1.673   .     S
O344   S362    1.504   .     D
O345   S362    1.501   .     D
O346   S362    1.673   .     S
O347   S363    1.504   .     D
O348   S363    1.499   .     D
O349   S363    1.673   .     S
O350   S364    1.499   .     D
O351   S364    1.504   .     D
O353   S364    1.673   .     S
O360   S361    1.501   .     D
C365   C368    1.451   .     S
C365   O393    1.306   .     A
C365   O407    1.308   .     A
C366   H386    1.083   .     S
C366   C368    1.402   .     A
C367   C373    1.451   .     S
C367   C380    1.402   .     A
C367   C379    1.400   .     A
C368   C378    1.400   .     A
C369   N392    1.397   .     A
C369   S413    1.844   .     S
C370   N391    1.397   .     A
C370   S414    1.844   .     S
C370   C59     1.465   1_565 S
C371   S415    1.849   .     S
C371   N392    1.398   .     A
C372   S416    1.849   .     S
C372   N391    1.398   .     A
C372   C57     1.465   1_565 S
C373   O406    1.308   .     A
C373   O404    1.306   .     A
C374   C376    1.409   .     S
C374   O408    1.305   .     A
C374   O411    1.303   .     A
C375   C377    1.409   .     S
C375   O409    1.305   .     A
C375   O410    1.303   .     A
C376   C1313   1.190   1_554 S
C377   C844    1.190   .     S
C378   H383    1.083   .     S
C379   H384    1.083   .     S
C379   C418    1.384   .     S
C380   H385    1.083   .     S
C380   C430    1.384   .     S
Cu381  O393    1.963   .     S
Cu381  O408    1.932   .     S
Cu381  Cu382   2.728   .     S
Cu381  N391    2.050   .     S
Cu381  O410    1.930   .     S
Cu381  O406    1.964   .     S
Cu382  N392    2.050   .     S
Cu382  O411    1.930   .     S
Cu382  O407    1.964   .     S
Cu382  O409    1.932   .     S
Cu382  O404    1.963   .     S
H387   O395    0.991   .     S
H388   O398    0.991   .     S
H389   O401    0.991   .     S
H390   O405    0.991   .     S
O394   S413    1.504   .     D
O395   S413    1.673   .     S
O396   S414    1.504   .     D
O397   S414    1.501   .     D
O398   S414    1.673   .     S
O399   S415    1.504   .     D
O400   S415    1.499   .     D
O401   S415    1.673   .     S
O402   S416    1.499   .     D
O403   S416    1.504   .     D
O405   S416    1.673   .     S
O412   S413    1.501   .     D
C417   C420    1.451   .     S
C417   O445    1.306   .     A
C417   O459    1.308   .     A
C418   H438    1.083   .     S
C418   C420    1.402   .     A
C419   C425    1.451   .     S
C419   C432    1.402   .     A
C419   C431    1.400   .     A
C420   C430    1.400   .     A
C421   N444    1.397   .     A
C421   S465    1.844   .     S
C422   N443    1.397   .     A
C422   S466    1.844   .     S
C422   C111    1.465   1_565 S
C423   S467    1.849   .     S
C423   N444    1.398   .     A
C424   S468    1.849   .     S
C424   N443    1.398   .     A
C424   C109    1.465   1_565 S
C425   O458    1.308   .     A
C425   O456    1.306   .     A
C426   C428    1.409   .     S
C426   O460    1.305   .     A
C426   O463    1.303   .     A
C427   C429    1.409   .     S
C427   O461    1.305   .     A
C427   O462    1.303   .     A
C428   C1365   1.190   1_554 S
C429   C896    1.190   .     S
C430   H435    1.083   .     S
C431   H436    1.083   .     S
C431   C314    1.384   1_655 S
C432   H437    1.083   .     S
C432   C326    1.384   1_655 S
Cu433  O445    1.963   .     S
Cu433  O460    1.932   .     S
Cu433  Cu434   2.728   .     S
Cu433  N443    2.050   .     S
Cu433  O462    1.930   .     S
Cu433  O458    1.964   .     S
Cu434  N444    2.050   .     S
Cu434  O463    1.930   .     S
Cu434  O459    1.964   .     S
Cu434  O461    1.932   .     S
Cu434  O456    1.963   .     S
H439   O447    0.991   .     S
H440   O450    0.991   .     S
H441   O453    0.991   .     S
H442   O457    0.991   .     S
O446   S465    1.504   .     D
O447   S465    1.673   .     S
O448   S466    1.504   .     D
O449   S466    1.501   .     D
O450   S466    1.673   .     S
O451   S467    1.504   .     D
O452   S467    1.499   .     D
O453   S467    1.673   .     S
O454   S468    1.499   .     D
O455   S468    1.504   .     D
O457   S468    1.673   .     S
O464   S465    1.501   .     D
C469   C472    1.451   .     S
C469   O497    1.306   .     A
C469   O511    1.308   .     A
C470   H490    1.083   .     S
C470   C472    1.402   .     A
C470   C587    1.384   1_455 S
C471   C477    1.451   .     S
C471   C484    1.402   .     A
C471   C483    1.400   .     A
C472   C482    1.400   .     A
C473   N496    1.397   .     A
C473   S517    1.844   .     S
C473   C788    1.465   1_545 S
C474   N495    1.397   .     A
C474   S518    1.844   .     S
C474   C631    1.465   .     S
C475   S519    1.849   .     S
C475   N496    1.398   .     A
C475   C786    1.465   1_545 S
C476   S520    1.849   .     S
C476   N495    1.398   .     A
C476   C629    1.465   .     S
C477   O510    1.308   .     A
C477   O508    1.306   .     A
C478   C480    1.409   .     S
C478   O512    1.305   .     A
C478   O515    1.303   .     A
C479   C481    1.409   .     S
C479   O513    1.305   .     A
C479   O514    1.303   .     A
C481   C948    1.190   .     S
C482   H487    1.083   .     S
C482   C588    1.384   1_455 S
C483   H488    1.083   .     S
C483   C522    1.384   .     S
C484   H489    1.083   .     S
C484   C534    1.384   .     S
Cu485  O497    1.963   .     S
Cu485  O512    1.932   .     S
Cu485  Cu486   2.728   .     S
Cu485  N495    2.050   .     S
Cu485  O514    1.930   .     S
Cu485  O510    1.964   .     S
Cu486  N496    2.050   .     S
Cu486  O515    1.930   .     S
Cu486  O511    1.964   .     S
Cu486  O513    1.932   .     S
Cu486  O508    1.963   .     S
H491   O499    0.991   .     S
H492   O502    0.991   .     S
H493   O505    0.991   .     S
H494   O509    0.991   .     S
O498   S517    1.504   .     D
O499   S517    1.673   .     S
O500   S518    1.504   .     D
O501   S518    1.501   .     D
O502   S518    1.673   .     S
O503   S519    1.504   .     D
O504   S519    1.499   .     D
O505   S519    1.673   .     S
O506   S520    1.499   .     D
O507   S520    1.504   .     D
O509   S520    1.673   .     S
O516   S517    1.501   .     D
C521   C524    1.451   .     S
C521   O549    1.306   .     A
C521   O563    1.308   .     A
C522   H542    1.083   .     S
C522   C524    1.402   .     A
C523   C529    1.451   .     S
C523   C536    1.402   .     A
C523   C535    1.400   .     A
C524   C534    1.400   .     A
C525   N548    1.397   .     A
C525   S569    1.844   .     S
C525   C840    1.465   1_545 S
C526   N547    1.397   .     A
C526   S570    1.844   .     S
C526   C683    1.465   .     S
C527   S571    1.849   .     S
C527   N548    1.398   .     A
C527   C838    1.465   1_545 S
C528   S572    1.849   .     S
C528   N547    1.398   .     A
C528   C681    1.465   .     S
C529   O562    1.308   .     A
C529   O560    1.306   .     A
C530   C532    1.409   .     S
C530   O564    1.305   .     A
C530   O567    1.303   .     A
C531   C533    1.409   .     S
C531   O565    1.305   .     A
C531   O566    1.303   .     A
C533   C1000   1.190   .     S
C534   H539    1.083   .     S
C535   H540    1.083   .     S
C535   C574    1.384   .     S
C536   H541    1.083   .     S
C536   C586    1.384   .     S
Cu537  O549    1.963   .     S
Cu537  O564    1.932   .     S
Cu537  Cu538   2.728   .     S
Cu537  N547    2.050   .     S
Cu537  O566    1.930   .     S
Cu537  O562    1.964   .     S
Cu538  N548    2.050   .     S
Cu538  O567    1.930   .     S
Cu538  O563    1.964   .     S
Cu538  O565    1.932   .     S
Cu538  O560    1.963   .     S
H543   O551    0.991   .     S
H544   O554    0.991   .     S
H545   O557    0.991   .     S
H546   O561    0.991   .     S
O550   S569    1.504   .     D
O551   S569    1.673   .     S
O552   S570    1.504   .     D
O553   S570    1.501   .     D
O554   S570    1.673   .     S
O555   S571    1.504   .     D
O556   S571    1.499   .     D
O557   S571    1.673   .     S
O558   S572    1.499   .     D
O559   S572    1.504   .     D
O561   S572    1.673   .     S
O568   S569    1.501   .     D
C573   C576    1.451   .     S
C573   O601    1.306   .     A
C573   O615    1.308   .     A
C574   H594    1.083   .     S
C574   C576    1.402   .     A
C575   C581    1.451   .     S
C575   C588    1.402   .     A
C575   C587    1.400   .     A
C576   C586    1.400   .     A
C577   N600    1.397   .     A
C577   S621    1.844   .     S
C577   C892    1.465   1_545 S
C578   N599    1.397   .     A
C578   S622    1.844   .     S
C578   C735    1.465   .     S
C579   S623    1.849   .     S
C579   N600    1.398   .     A
C579   C890    1.465   1_545 S
C580   S624    1.849   .     S
C580   N599    1.398   .     A
C580   C733    1.465   .     S
C581   O614    1.308   .     A
C581   O612    1.306   .     A
C582   C584    1.409   .     S
C582   O616    1.305   .     A
C582   O619    1.303   .     A
C583   C585    1.409   .     S
C583   O617    1.305   .     A
C583   O618    1.303   .     A
C585   C1052   1.190   .     S
C586   H591    1.083   .     S
C587   H592    1.083   .     S
C587   C470    1.384   1_655 S
C588   H593    1.083   .     S
C588   C482    1.384   1_655 S
Cu589  O601    1.963   .     S
Cu589  O616    1.932   .     S
Cu589  Cu590   2.728   .     S
Cu589  N599    2.050   .     S
Cu589  O618    1.930   .     S
Cu589  O614    1.964   .     S
Cu590  N600    2.050   .     S
Cu590  O619    1.930   .     S
Cu590  O615    1.964   .     S
Cu590  O617    1.932   .     S
Cu590  O612    1.963   .     S
H595   O603    0.991   .     S
H596   O606    0.991   .     S
H597   O609    0.991   .     S
H598   O613    0.991   .     S
O602   S621    1.504   .     D
O603   S621    1.673   .     S
O604   S622    1.504   .     D
O605   S622    1.501   .     D
O606   S622    1.673   .     S
O607   S623    1.504   .     D
O608   S623    1.499   .     D
O609   S623    1.673   .     S
O610   S624    1.499   .     D
O611   S624    1.504   .     D
O613   S624    1.673   .     S
O620   S621    1.501   .     D
C625   C628    1.451   .     S
C625   O653    1.306   .     A
C625   O667    1.308   .     A
C626   H646    1.083   .     S
C626   C628    1.402   .     A
C626   C743    1.384   1_455 S
C627   C633    1.451   .     S
C627   C640    1.402   .     A
C627   C639    1.400   .     A
C628   C638    1.400   .     A
C629   N652    1.397   .     A
C629   S673    1.844   .     S
C630   N651    1.397   .     A
C630   S674    1.844   .     S
C630   C787    1.465   .     S
C631   S675    1.849   .     S
C631   N652    1.398   .     A
C632   S676    1.849   .     S
C632   N651    1.398   .     A
C632   C785    1.465   .     S
C633   O666    1.308   .     A
C633   O664    1.306   .     A
C634   C636    1.409   .     S
C634   O668    1.305   .     A
C634   O671    1.303   .     A
C635   C637    1.409   .     S
C635   O669    1.305   .     A
C635   O670    1.303   .     A
C637   C1104   1.190   .     S
C638   H643    1.083   .     S
C638   C744    1.384   1_455 S
C639   H644    1.083   .     S
C639   C678    1.384   .     S
C640   H645    1.083   .     S
C640   C690    1.384   .     S
Cu641  O653    1.963   .     S
Cu641  O668    1.932   .     S
Cu641  Cu642   2.728   .     S
Cu641  N651    2.050   .     S
Cu641  O670    1.930   .     S
Cu641  O666    1.964   .     S
Cu642  N652    2.050   .     S
Cu642  O671    1.930   .     S
Cu642  O667    1.964   .     S
Cu642  O669    1.932   .     S
Cu642  O664    1.963   .     S
H647   O655    0.991   .     S
H648   O658    0.991   .     S
H649   O661    0.991   .     S
H650   O665    0.991   .     S
O654   S673    1.504   .     D
O655   S673    1.673   .     S
O656   S674    1.504   .     D
O657   S674    1.501   .     D
O658   S674    1.673   .     S
O659   S675    1.504   .     D
O660   S675    1.499   .     D
O661   S675    1.673   .     S
O662   S676    1.499   .     D
O663   S676    1.504   .     D
O665   S676    1.673   .     S
O672   S673    1.501   .     D
C677   C680    1.451   .     S
C677   O705    1.306   .     A
C677   O719    1.308   .     A
C678   H698    1.083   .     S
C678   C680    1.402   .     A
C679   C685    1.451   .     S
C679   C692    1.402   .     A
C679   C691    1.400   .     A
C680   C690    1.400   .     A
C681   N704    1.397   .     A
C681   S725    1.844   .     S
C682   N703    1.397   .     A
C682   S726    1.844   .     S
C682   C839    1.465   .     S
C683   S727    1.849   .     S
C683   N704    1.398   .     A
C684   S728    1.849   .     S
C684   N703    1.398   .     A
C684   C837    1.465   .     S
C685   O718    1.308   .     A
C685   O716    1.306   .     A
C686   C688    1.409   .     S
C686   O720    1.305   .     A
C686   O723    1.303   .     A
C687   C689    1.409   .     S
C687   O721    1.305   .     A
C687   O722    1.303   .     A
C689   C1156   1.190   .     S
C690   H695    1.083   .     S
C691   H696    1.083   .     S
C691   C730    1.384   .     S
C692   H697    1.083   .     S
C692   C742    1.384   .     S
Cu693  O705    1.963   .     S
Cu693  O720    1.932   .     S
Cu693  Cu694   2.728   .     S
Cu693  N703    2.050   .     S
Cu693  O722    1.930   .     S
Cu693  O718    1.964   .     S
Cu694  N704    2.050   .     S
Cu694  O723    1.930   .     S
Cu694  O719    1.964   .     S
Cu694  O721    1.932   .     S
Cu694  O716    1.963   .     S
H699   O707    0.991   .     S
H700   O710    0.991   .     S
H701   O713    0.991   .     S
H702   O717    0.991   .     S
O706   S725    1.504   .     D
O707   S725    1.673   .     S
O708   S726    1.504   .     D
O709   S726    1.501   .     D
O710   S726    1.673   .     S
O711   S727    1.504   .     D
O712   S727    1.499   .     D
O713   S727    1.673   .     S
O714   S728    1.499   .     D
O715   S728    1.504   .     D
O717   S728    1.673   .     S
O724   S725    1.501   .     D
C729   C732    1.451   .     S
C729   O757    1.306   .     A
C729   O771    1.308   .     A
C730   H750    1.083   .     S
C730   C732    1.402   .     A
C731   C737    1.451   .     S
C731   C744    1.402   .     A
C731   C743    1.400   .     A
C732   C742    1.400   .     A
C733   N756    1.397   .     A
C733   S777    1.844   .     S
C734   N755    1.397   .     A
C734   S778    1.844   .     S
C734   C891    1.465   .     S
C735   S779    1.849   .     S
C735   N756    1.398   .     A
C736   S780    1.849   .     S
C736   N755    1.398   .     A
C736   C889    1.465   .     S
C737   O770    1.308   .     A
C737   O768    1.306   .     A
C738   C740    1.409   .     S
C738   O772    1.305   .     A
C738   O775    1.303   .     A
C739   C741    1.409   .     S
C739   O773    1.305   .     A
C739   O774    1.303   .     A
C741   C1208   1.190   .     S
C742   H747    1.083   .     S
C743   H748    1.083   .     S
C743   C626    1.384   1_655 S
C744   H749    1.083   .     S
C744   C638    1.384   1_655 S
Cu745  O757    1.963   .     S
Cu745  O772    1.932   .     S
Cu745  Cu746   2.728   .     S
Cu745  N755    2.050   .     S
Cu745  O774    1.930   .     S
Cu745  O770    1.964   .     S
Cu746  N756    2.050   .     S
Cu746  O775    1.930   .     S
Cu746  O771    1.964   .     S
Cu746  O773    1.932   .     S
Cu746  O768    1.963   .     S
H751   O759    0.991   .     S
H752   O762    0.991   .     S
H753   O765    0.991   .     S
H754   O769    0.991   .     S
O758   S777    1.504   .     D
O759   S777    1.673   .     S
O760   S778    1.504   .     D
O761   S778    1.501   .     D
O762   S778    1.673   .     S
O763   S779    1.504   .     D
O764   S779    1.499   .     D
O765   S779    1.673   .     S
O766   S780    1.499   .     D
O767   S780    1.504   .     D
O769   S780    1.673   .     S
O776   S777    1.501   .     D
C781   C784    1.451   .     S
C781   O809    1.306   .     A
C781   O823    1.308   .     A
C782   H802    1.083   .     S
C782   C784    1.402   .     A
C782   C899    1.384   1_455 S
C783   C789    1.451   .     S
C783   C796    1.402   .     A
C783   C795    1.400   .     A
C784   C794    1.400   .     A
C785   N808    1.397   .     A
C785   S829    1.844   .     S
C786   N807    1.397   .     A
C786   S830    1.844   .     S
C786   C475    1.465   1_565 S
C787   S831    1.849   .     S
C787   N808    1.398   .     A
C788   S832    1.849   .     S
C788   N807    1.398   .     A
C788   C473    1.465   1_565 S
C789   O822    1.308   .     A
C789   O820    1.306   .     A
C790   C792    1.409   .     S
C790   O824    1.305   .     A
C790   O827    1.303   .     A
C791   C793    1.409   .     S
C791   O825    1.305   .     A
C791   O826    1.303   .     A
C793   C1260   1.190   .     S
C794   H799    1.083   .     S
C794   C900    1.384   1_455 S
C795   H800    1.083   .     S
C795   C834    1.384   .     S
C796   H801    1.083   .     S
C796   C846    1.384   .     S
Cu797  O809    1.963   .     S
Cu797  O824    1.932   .     S
Cu797  Cu798   2.728   .     S
Cu797  N807    2.050   .     S
Cu797  O826    1.930   .     S
Cu797  O822    1.964   .     S
Cu798  N808    2.050   .     S
Cu798  O827    1.930   .     S
Cu798  O823    1.964   .     S
Cu798  O825    1.932   .     S
Cu798  O820    1.963   .     S
H803   O811    0.991   .     S
H804   O814    0.991   .     S
H805   O817    0.991   .     S
H806   O821    0.991   .     S
O810   S829    1.504   .     D
O811   S829    1.673   .     S
O812   S830    1.504   .     D
O813   S830    1.501   .     D
O814   S830    1.673   .     S
O815   S831    1.504   .     D
O816   S831    1.499   .     D
O817   S831    1.673   .     S
O818   S832    1.499   .     D
O819   S832    1.504   .     D
O821   S832    1.673   .     S
O828   S829    1.501   .     D
C833   C836    1.451   .     S
C833   O861    1.306   .     A
C833   O875    1.308   .     A
C834   H854    1.083   .     S
C834   C836    1.402   .     A
C835   C841    1.451   .     S
C835   C848    1.402   .     A
C835   C847    1.400   .     A
C836   C846    1.400   .     A
C837   N860    1.397   .     A
C837   S881    1.844   .     S
C838   N859    1.397   .     A
C838   S882    1.844   .     S
C838   C527    1.465   1_565 S
C839   S883    1.849   .     S
C839   N860    1.398   .     A
C840   S884    1.849   .     S
C840   N859    1.398   .     A
C840   C525    1.465   1_565 S
C841   O874    1.308   .     A
C841   O872    1.306   .     A
C842   C844    1.409   .     S
C842   O876    1.305   .     A
C842   O879    1.303   .     A
C843   C845    1.409   .     S
C843   O877    1.305   .     A
C843   O878    1.303   .     A
C845   C1312   1.190   .     S
C846   H851    1.083   .     S
C847   H852    1.083   .     S
C847   C886    1.384   .     S
C848   H853    1.083   .     S
C848   C898    1.384   .     S
Cu849  O861    1.963   .     S
Cu849  O876    1.932   .     S
Cu849  Cu850   2.728   .     S
Cu849  N859    2.050   .     S
Cu849  O878    1.930   .     S
Cu849  O874    1.964   .     S
Cu850  N860    2.050   .     S
Cu850  O879    1.930   .     S
Cu850  O875    1.964   .     S
Cu850  O877    1.932   .     S
Cu850  O872    1.963   .     S
H855   O863    0.991   .     S
H856   O866    0.991   .     S
H857   O869    0.991   .     S
H858   O873    0.991   .     S
O862   S881    1.504   .     D
O863   S881    1.673   .     S
O864   S882    1.504   .     D
O865   S882    1.501   .     D
O866   S882    1.673   .     S
O867   S883    1.504   .     D
O868   S883    1.499   .     D
O869   S883    1.673   .     S
O870   S884    1.499   .     D
O871   S884    1.504   .     D
O873   S884    1.673   .     S
O880   S881    1.501   .     D
C885   C888    1.451   .     S
C885   O913    1.306   .     A
C885   O927    1.308   .     A
C886   H906    1.083   .     S
C886   C888    1.402   .     A
C887   C893    1.451   .     S
C887   C900    1.402   .     A
C887   C899    1.400   .     A
C888   C898    1.400   .     A
C889   N912    1.397   .     A
C889   S933    1.844   .     S
C890   N911    1.397   .     A
C890   S934    1.844   .     S
C890   C579    1.465   1_565 S
C891   S935    1.849   .     S
C891   N912    1.398   .     A
C892   S936    1.849   .     S
C892   N911    1.398   .     A
C892   C577    1.465   1_565 S
C893   O926    1.308   .     A
C893   O924    1.306   .     A
C894   C896    1.409   .     S
C894   O928    1.305   .     A
C894   O931    1.303   .     A
C895   C897    1.409   .     S
C895   O929    1.305   .     A
C895   O930    1.303   .     A
C897   C1364   1.190   .     S
C898   H903    1.083   .     S
C899   H904    1.083   .     S
C899   C782    1.384   1_655 S
C900   H905    1.083   .     S
C900   C794    1.384   1_655 S
Cu901  O913    1.963   .     S
Cu901  O928    1.932   .     S
Cu901  Cu902   2.728   .     S
Cu901  N911    2.050   .     S
Cu901  O930    1.930   .     S
Cu901  O926    1.964   .     S
Cu902  N912    2.050   .     S
Cu902  O931    1.930   .     S
Cu902  O927    1.964   .     S
Cu902  O929    1.932   .     S
Cu902  O924    1.963   .     S
H907   O915    0.991   .     S
H908   O918    0.991   .     S
H909   O921    0.991   .     S
H910   O925    0.991   .     S
O914   S933    1.504   .     D
O915   S933    1.673   .     S
O916   S934    1.504   .     D
O917   S934    1.501   .     D
O918   S934    1.673   .     S
O919   S935    1.504   .     D
O920   S935    1.499   .     D
O921   S935    1.673   .     S
O922   S936    1.499   .     D
O923   S936    1.504   .     D
O925   S936    1.673   .     S
O932   S933    1.501   .     D
C937   C940    1.451   .     S
C937   O965    1.306   .     A
C937   O979    1.308   .     A
C938   H958    1.083   .     S
C938   C940    1.402   .     A
C938   C1055   1.384   1_455 S
C939   C945    1.451   .     S
C939   C952    1.402   .     A
C939   C951    1.400   .     A
C940   C950    1.400   .     A
C941   N964    1.397   .     A
C941   S985    1.844   .     S
C941   C1256   1.465   1_545 S
C942   N963    1.397   .     A
C942   S986    1.844   .     S
C942   C1099   1.465   .     S
C943   S987    1.849   .     S
C943   N964    1.398   .     A
C943   C1254   1.465   1_545 S
C944   S988    1.849   .     S
C944   N963    1.398   .     A
C944   C1097   1.465   .     S
C945   O978    1.308   .     A
C945   O976    1.306   .     A
C946   C948    1.409   .     S
C946   O980    1.305   .     A
C946   O983    1.303   .     A
C947   C949    1.409   .     S
C947   O981    1.305   .     A
C947   O982    1.303   .     A
C949   C12     1.190   1_556 S
C950   H955    1.083   .     S
C950   C1056   1.384   1_455 S
C951   H956    1.083   .     S
C951   C990    1.384   .     S
C952   H957    1.083   .     S
C952   C1002   1.384   .     S
Cu953  O965    1.963   .     S
Cu953  O980    1.932   .     S
Cu953  Cu954   2.728   .     S
Cu953  N963    2.050   .     S
Cu953  O982    1.930   .     S
Cu953  O978    1.964   .     S
Cu954  N964    2.050   .     S
Cu954  O983    1.930   .     S
Cu954  O979    1.964   .     S
Cu954  O981    1.932   .     S
Cu954  O976    1.963   .     S
H959   O967    0.991   .     S
H960   O970    0.991   .     S
H961   O973    0.991   .     S
H962   O977    0.991   .     S
O966   S985    1.504   .     D
O967   S985    1.673   .     S
O968   S986    1.504   .     D
O969   S986    1.501   .     D
O970   S986    1.673   .     S
O971   S987    1.504   .     D
O972   S987    1.499   .     D
O973   S987    1.673   .     S
O974   S988    1.499   .     D
O975   S988    1.504   .     D
O977   S988    1.673   .     S
O984   S985    1.501   .     D
C989   C992    1.451   .     S
C989   O1017   1.306   .     A
C989   O1031   1.308   .     A
C990   H1010   1.083   .     S
C990   C992    1.402   .     A
C991   C997    1.451   .     S
C991   C1004   1.402   .     A
C991   C1003   1.400   .     A
C992   C1002   1.400   .     A
C993   N1016   1.397   .     A
C993   S1037   1.844   .     S
C993   C1308   1.465   1_545 S
C994   N1015   1.397   .     A
C994   S1038   1.844   .     S
C994   C1151   1.465   .     S
C995   S1039   1.849   .     S
C995   N1016   1.398   .     A
C995   C1306   1.465   1_545 S
C996   S1040   1.849   .     S
C996   N1015   1.398   .     A
C996   C1149   1.465   .     S
C997   O1030   1.308   .     A
C997   O1028   1.306   .     A
C998   C1000   1.409   .     S
C998   O1032   1.305   .     A
C998   O1035   1.303   .     A
C999   C1001   1.409   .     S
C999   O1033   1.305   .     A
C999   O1034   1.303   .     A
C1001  C64     1.190   1_556 S
C1002  H1007   1.083   .     S
C1003  H1008   1.083   .     S
C1003  C1042   1.384   .     S
C1004  H1009   1.083   .     S
C1004  C1054   1.384   .     S
Cu1005 O1017   1.963   .     S
Cu1005 O1032   1.932   .     S
Cu1005 Cu1006  2.728   .     S
Cu1005 N1015   2.050   .     S
Cu1005 O1034   1.930   .     S
Cu1005 O1030   1.964   .     S
Cu1006 N1016   2.050   .     S
Cu1006 O1035   1.930   .     S
Cu1006 O1031   1.964   .     S
Cu1006 O1033   1.932   .     S
Cu1006 O1028   1.963   .     S
H1011  O1019   0.991   .     S
H1012  O1022   0.991   .     S
H1013  O1025   0.991   .     S
H1014  O1029   0.991   .     S
O1018  S1037   1.504   .     D
O1019  S1037   1.673   .     S
O1020  S1038   1.504   .     D
O1021  S1038   1.501   .     D
O1022  S1038   1.673   .     S
O1023  S1039   1.504   .     D
O1024  S1039   1.499   .     D
O1025  S1039   1.673   .     S
O1026  S1040   1.499   .     D
O1027  S1040   1.504   .     D
O1029  S1040   1.673   .     S
O1036  S1037   1.501   .     D
C1041  C1044   1.451   .     S
C1041  O1069   1.306   .     A
C1041  O1083   1.308   .     A
C1042  H1062   1.083   .     S
C1042  C1044   1.402   .     A
C1043  C1049   1.451   .     S
C1043  C1056   1.402   .     A
C1043  C1055   1.400   .     A
C1044  C1054   1.400   .     A
C1045  N1068   1.397   .     A
C1045  S1089   1.844   .     S
C1045  C1360   1.465   1_545 S
C1046  N1067   1.397   .     A
C1046  S1090   1.844   .     S
C1046  C1203   1.465   .     S
C1047  S1091   1.849   .     S
C1047  N1068   1.398   .     A
C1047  C1358   1.465   1_545 S
C1048  S1092   1.849   .     S
C1048  N1067   1.398   .     A
C1048  C1201   1.465   .     S
C1049  O1082   1.308   .     A
C1049  O1080   1.306   .     A
C1050  C1052   1.409   .     S
C1050  O1084   1.305   .     A
C1050  O1087   1.303   .     A
C1051  C1053   1.409   .     S
C1051  O1085   1.305   .     A
C1051  O1086   1.303   .     A
C1053  C116    1.190   1_556 S
C1054  H1059   1.083   .     S
C1055  H1060   1.083   .     S
C1055  C938    1.384   1_655 S
C1056  H1061   1.083   .     S
C1056  C950    1.384   1_655 S
Cu1057 O1069   1.963   .     S
Cu1057 O1084   1.932   .     S
Cu1057 Cu1058  2.728   .     S
Cu1057 N1067   2.050   .     S
Cu1057 O1086   1.930   .     S
Cu1057 O1082   1.964   .     S
Cu1058 N1068   2.050   .     S
Cu1058 O1087   1.930   .     S
Cu1058 O1083   1.964   .     S
Cu1058 O1085   1.932   .     S
Cu1058 O1080   1.963   .     S
H1063  O1071   0.991   .     S
H1064  O1074   0.991   .     S
H1065  O1077   0.991   .     S
H1066  O1081   0.991   .     S
O1070  S1089   1.504   .     D
O1071  S1089   1.673   .     S
O1072  S1090   1.504   .     D
O1073  S1090   1.501   .     D
O1074  S1090   1.673   .     S
O1075  S1091   1.504   .     D
O1076  S1091   1.499   .     D
O1077  S1091   1.673   .     S
O1078  S1092   1.499   .     D
O1079  S1092   1.504   .     D
O1081  S1092   1.673   .     S
O1088  S1089   1.501   .     D
C1093  C1096   1.451   .     S
C1093  O1121   1.306   .     A
C1093  O1135   1.308   .     A
C1094  H1114   1.083   .     S
C1094  C1096   1.402   .     A
C1094  C1211   1.384   1_455 S
C1095  C1101   1.451   .     S
C1095  C1108   1.402   .     A
C1095  C1107   1.400   .     A
C1096  C1106   1.400   .     A
C1097  N1120   1.397   .     A
C1097  S1141   1.844   .     S
C1098  N1119   1.397   .     A
C1098  S1142   1.844   .     S
C1098  C1255   1.465   .     S
C1099  S1143   1.849   .     S
C1099  N1120   1.398   .     A
C1100  S1144   1.849   .     S
C1100  N1119   1.398   .     A
C1100  C1253   1.465   .     S
C1101  O1134   1.308   .     A
C1101  O1132   1.306   .     A
C1102  C1104   1.409   .     S
C1102  O1136   1.305   .     A
C1102  O1139   1.303   .     A
C1103  C1105   1.409   .     S
C1103  O1137   1.305   .     A
C1103  O1138   1.303   .     A
C1105  C168    1.190   1_556 S
C1106  H1111   1.083   .     S
C1106  C1212   1.384   1_455 S
C1107  H1112   1.083   .     S
C1107  C1146   1.384   .     S
C1108  H1113   1.083   .     S
C1108  C1158   1.384   .     S
Cu1109 O1121   1.963   .     S
Cu1109 O1136   1.932   .     S
Cu1109 Cu1110  2.728   .     S
Cu1109 N1119   2.050   .     S
Cu1109 O1138   1.930   .     S
Cu1109 O1134   1.964   .     S
Cu1110 N1120   2.050   .     S
Cu1110 O1139   1.930   .     S
Cu1110 O1135   1.964   .     S
Cu1110 O1137   1.932   .     S
Cu1110 O1132   1.963   .     S
H1115  O1123   0.991   .     S
H1116  O1126   0.991   .     S
H1117  O1129   0.991   .     S
H1118  O1133   0.991   .     S
O1122  S1141   1.504   .     D
O1123  S1141   1.673   .     S
O1124  S1142   1.504   .     D
O1125  S1142   1.501   .     D
O1126  S1142   1.673   .     S
O1127  S1143   1.504   .     D
O1128  S1143   1.499   .     D
O1129  S1143   1.673   .     S
O1130  S1144   1.499   .     D
O1131  S1144   1.504   .     D
O1133  S1144   1.673   .     S
O1140  S1141   1.501   .     D
C1145  C1148   1.451   .     S
C1145  O1173   1.306   .     A
C1145  O1187   1.308   .     A
C1146  H1166   1.083   .     S
C1146  C1148   1.402   .     A
C1147  C1153   1.451   .     S
C1147  C1160   1.402   .     A
C1147  C1159   1.400   .     A
C1148  C1158   1.400   .     A
C1149  N1172   1.397   .     A
C1149  S1193   1.844   .     S
C1150  N1171   1.397   .     A
C1150  S1194   1.844   .     S
C1150  C1307   1.465   .     S
C1151  S1195   1.849   .     S
C1151  N1172   1.398   .     A
C1152  S1196   1.849   .     S
C1152  N1171   1.398   .     A
C1152  C1305   1.465   .     S
C1153  O1186   1.308   .     A
C1153  O1184   1.306   .     A
C1154  C1156   1.409   .     S
C1154  O1188   1.305   .     A
C1154  O1191   1.303   .     A
C1155  C1157   1.409   .     S
C1155  O1189   1.305   .     A
C1155  O1190   1.303   .     A
C1157  C220    1.190   1_556 S
C1158  H1163   1.083   .     S
C1159  H1164   1.083   .     S
C1159  C1198   1.384   .     S
C1160  H1165   1.083   .     S
C1160  C1210   1.384   .     S
Cu1161 O1173   1.963   .     S
Cu1161 O1188   1.932   .     S
Cu1161 Cu1162  2.728   .     S
Cu1161 N1171   2.050   .     S
Cu1161 O1190   1.930   .     S
Cu1161 O1186   1.964   .     S
Cu1162 N1172   2.050   .     S
Cu1162 O1191   1.930   .     S
Cu1162 O1187   1.964   .     S
Cu1162 O1189   1.932   .     S
Cu1162 O1184   1.963   .     S
H1167  O1175   0.991   .     S
H1168  O1178   0.991   .     S
H1169  O1181   0.991   .     S
H1170  O1185   0.991   .     S
O1174  S1193   1.504   .     D
O1175  S1193   1.673   .     S
O1176  S1194   1.504   .     D
O1177  S1194   1.501   .     D
O1178  S1194   1.673   .     S
O1179  S1195   1.504   .     D
O1180  S1195   1.499   .     D
O1181  S1195   1.673   .     S
O1182  S1196   1.499   .     D
O1183  S1196   1.504   .     D
O1185  S1196   1.673   .     S
O1192  S1193   1.501   .     D
C1197  C1200   1.451   .     S
C1197  O1225   1.306   .     A
C1197  O1239   1.308   .     A
C1198  H1218   1.083   .     S
C1198  C1200   1.402   .     A
C1199  C1205   1.451   .     S
C1199  C1212   1.402   .     A
C1199  C1211   1.400   .     A
C1200  C1210   1.400   .     A
C1201  N1224   1.397   .     A
C1201  S1245   1.844   .     S
C1202  N1223   1.397   .     A
C1202  S1246   1.844   .     S
C1202  C1359   1.465   .     S
C1203  S1247   1.849   .     S
C1203  N1224   1.398   .     A
C1204  S1248   1.849   .     S
C1204  N1223   1.398   .     A
C1204  C1357   1.465   .     S
C1205  O1238   1.308   .     A
C1205  O1236   1.306   .     A
C1206  C1208   1.409   .     S
C1206  O1240   1.305   .     A
C1206  O1243   1.303   .     A
C1207  C1209   1.409   .     S
C1207  O1241   1.305   .     A
C1207  O1242   1.303   .     A
C1209  C272    1.190   1_556 S
C1210  H1215   1.083   .     S
C1211  H1216   1.083   .     S
C1211  C1094   1.384   1_655 S
C1212  H1217   1.083   .     S
C1212  C1106   1.384   1_655 S
Cu1213 O1225   1.963   .     S
Cu1213 O1240   1.932   .     S
Cu1213 Cu1214  2.728   .     S
Cu1213 N1223   2.050   .     S
Cu1213 O1242   1.930   .     S
Cu1213 O1238   1.964   .     S
Cu1214 N1224   2.050   .     S
Cu1214 O1243   1.930   .     S
Cu1214 O1239   1.964   .     S
Cu1214 O1241   1.932   .     S
Cu1214 O1236   1.963   .     S
H1219  O1227   0.991   .     S
H1220  O1230   0.991   .     S
H1221  O1233   0.991   .     S
H1222  O1237   0.991   .     S
O1226  S1245   1.504   .     D
O1227  S1245   1.673   .     S
O1228  S1246   1.504   .     D
O1229  S1246   1.501   .     D
O1230  S1246   1.673   .     S
O1231  S1247   1.504   .     D
O1232  S1247   1.499   .     D
O1233  S1247   1.673   .     S
O1234  S1248   1.499   .     D
O1235  S1248   1.504   .     D
O1237  S1248   1.673   .     S
O1244  S1245   1.501   .     D
C1249  C1252   1.451   .     S
C1249  O1277   1.306   .     A
C1249  O1291   1.308   .     A
C1250  H1270   1.083   .     S
C1250  C1252   1.402   .     A
C1250  C1367   1.384   1_455 S
C1251  C1257   1.451   .     S
C1251  C1264   1.402   .     A
C1251  C1263   1.400   .     A
C1252  C1262   1.400   .     A
C1253  N1276   1.397   .     A
C1253  S1297   1.844   .     S
C1254  N1275   1.397   .     A
C1254  S1298   1.844   .     S
C1254  C943    1.465   1_565 S
C1255  S1299   1.849   .     S
C1255  N1276   1.398   .     A
C1256  S1300   1.849   .     S
C1256  N1275   1.398   .     A
C1256  C941    1.465   1_565 S
C1257  O1290   1.308   .     A
C1257  O1288   1.306   .     A
C1258  C1260   1.409   .     S
C1258  O1292   1.305   .     A
C1258  O1295   1.303   .     A
C1259  C1261   1.409   .     S
C1259  O1293   1.305   .     A
C1259  O1294   1.303   .     A
C1261  C324    1.190   1_556 S
C1262  H1267   1.083   .     S
C1262  C1368   1.384   1_455 S
C1263  H1268   1.083   .     S
C1263  C1302   1.384   .     S
C1264  H1269   1.083   .     S
C1264  C1314   1.384   .     S
Cu1265 O1277   1.963   .     S
Cu1265 O1292   1.932   .     S
Cu1265 Cu1266  2.728   .     S
Cu1265 N1275   2.050   .     S
Cu1265 O1294   1.930   .     S
Cu1265 O1290   1.964   .     S
Cu1266 N1276   2.050   .     S
Cu1266 O1295   1.930   .     S
Cu1266 O1291   1.964   .     S
Cu1266 O1293   1.932   .     S
Cu1266 O1288   1.963   .     S
H1271  O1279   0.991   .     S
H1272  O1282   0.991   .     S
H1273  O1285   0.991   .     S
H1274  O1289   0.991   .     S
O1278  S1297   1.504   .     D
O1279  S1297   1.673   .     S
O1280  S1298   1.504   .     D
O1281  S1298   1.501   .     D
O1282  S1298   1.673   .     S
O1283  S1299   1.504   .     D
O1284  S1299   1.499   .     D
O1285  S1299   1.673   .     S
O1286  S1300   1.499   .     D
O1287  S1300   1.504   .     D
O1289  S1300   1.673   .     S
O1296  S1297   1.501   .     D
C1301  C1304   1.451   .     S
C1301  O1329   1.306   .     A
C1301  O1343   1.308   .     A
C1302  H1322   1.083   .     S
C1302  C1304   1.402   .     A
C1303  C1309   1.451   .     S
C1303  C1316   1.402   .     A
C1303  C1315   1.400   .     A
C1304  C1314   1.400   .     A
C1305  N1328   1.397   .     A
C1305  S1349   1.844   .     S
C1306  N1327   1.397   .     A
C1306  S1350   1.844   .     S
C1306  C995    1.465   1_565 S
C1307  S1351   1.849   .     S
C1307  N1328   1.398   .     A
C1308  S1352   1.849   .     S
C1308  N1327   1.398   .     A
C1308  C993    1.465   1_565 S
C1309  O1342   1.308   .     A
C1309  O1340   1.306   .     A
C1310  C1312   1.409   .     S
C1310  O1344   1.305   .     A
C1310  O1347   1.303   .     A
C1311  C1313   1.409   .     S
C1311  O1345   1.305   .     A
C1311  O1346   1.303   .     A
C1313  C376    1.190   1_556 S
C1314  H1319   1.083   .     S
C1315  H1320   1.083   .     S
C1315  C1354   1.384   .     S
C1316  H1321   1.083   .     S
C1316  C1366   1.384   .     S
Cu1317 O1329   1.963   .     S
Cu1317 O1344   1.932   .     S
Cu1317 Cu1318  2.728   .     S
Cu1317 N1327   2.050   .     S
Cu1317 O1346   1.930   .     S
Cu1317 O1342   1.964   .     S
Cu1318 N1328   2.050   .     S
Cu1318 O1347   1.930   .     S
Cu1318 O1343   1.964   .     S
Cu1318 O1345   1.932   .     S
Cu1318 O1340   1.963   .     S
H1323  O1331   0.991   .     S
H1324  O1334   0.991   .     S
H1325  O1337   0.991   .     S
H1326  O1341   0.991   .     S
O1330  S1349   1.504   .     D
O1331  S1349   1.673   .     S
O1332  S1350   1.504   .     D
O1333  S1350   1.501   .     D
O1334  S1350   1.673   .     S
O1335  S1351   1.504   .     D
O1336  S1351   1.499   .     D
O1337  S1351   1.673   .     S
O1338  S1352   1.499   .     D
O1339  S1352   1.504   .     D
O1341  S1352   1.673   .     S
O1348  S1349   1.501   .     D
C1353  C1356   1.451   .     S
C1353  O1381   1.306   .     A
C1353  O1395   1.308   .     A
C1354  H1374   1.083   .     S
C1354  C1356   1.402   .     A
C1355  C1361   1.451   .     S
C1355  C1368   1.402   .     A
C1355  C1367   1.400   .     A
C1356  C1366   1.400   .     A
C1357  N1380   1.397   .     A
C1357  S1401   1.844   .     S
C1358  N1379   1.397   .     A
C1358  S1402   1.844   .     S
C1358  C1047   1.465   1_565 S
C1359  S1403   1.849   .     S
C1359  N1380   1.398   .     A
C1360  S1404   1.849   .     S
C1360  N1379   1.398   .     A
C1360  C1045   1.465   1_565 S
C1361  O1394   1.308   .     A
C1361  O1392   1.306   .     A
C1362  C1364   1.409   .     S
C1362  O1396   1.305   .     A
C1362  O1399   1.303   .     A
C1363  C1365   1.409   .     S
C1363  O1397   1.305   .     A
C1363  O1398   1.303   .     A
C1365  C428    1.190   1_556 S
C1366  H1371   1.083   .     S
C1367  H1372   1.083   .     S
C1367  C1250   1.384   1_655 S
C1368  H1373   1.083   .     S
C1368  C1262   1.384   1_655 S
Cu1369 O1381   1.963   .     S
Cu1369 O1396   1.932   .     S
Cu1369 Cu1370  2.728   .     S
Cu1369 N1379   2.050   .     S
Cu1369 O1398   1.930   .     S
Cu1369 O1394   1.964   .     S
Cu1370 N1380   2.050   .     S
Cu1370 O1399   1.930   .     S
Cu1370 O1395   1.964   .     S
Cu1370 O1397   1.932   .     S
Cu1370 O1392   1.963   .     S
H1375  O1383   0.991   .     S
H1376  O1386   0.991   .     S
H1377  O1389   0.991   .     S
H1378  O1393   0.991   .     S
O1382  S1401   1.504   .     D
O1383  S1401   1.673   .     S
O1384  S1402   1.504   .     D
O1385  S1402   1.501   .     D
O1386  S1402   1.673   .     S
O1387  S1403   1.504   .     D
O1388  S1403   1.499   .     D
O1389  S1403   1.673   .     S
O1390  S1404   1.499   .     D
O1391  S1404   1.504   .     D
O1393  S1404   1.673   .     S
O1400  S1401   1.501   .     D
