data_str_m1_o10_o16_pcu_sym.135
_audit_creation_date              2020-01-03
_audit_creation_method            'Materials Studio'
_symmetry_space_group_name_H-M    'P1'
_symmetry_Int_Tables_number       1
_symmetry_cell_setting            triclinic
loop_
_symmetry_equiv_pos_as_xyz
  x,y,z
_cell_length_a                    32.5246
_cell_length_b                    32.5072
_cell_length_c                    31.1509
_cell_angle_alpha                 96.3826
_cell_angle_beta                  74.2075
_cell_angle_gamma                 98.7951
loop_
_atom_site_label
_atom_site_type_symbol
_atom_site_fract_x
_atom_site_fract_y
_atom_site_fract_z
_atom_site_U_iso_or_equiv
_atom_site_adp_type
_atom_site_occupancy
C1     C     0.05269   0.15954   0.26025   0.00000  Uiso   1.00
C2     C     0.16840   0.16561   0.06131   0.00000  Uiso   1.00
C3     C     0.22874   0.12736   0.05550   0.00000  Uiso   1.00
C4     C     0.28093   0.17408   0.23989   0.00000  Uiso   1.00
C5     C     0.13705   0.18857   0.41995   0.00000  Uiso   1.00
C6     C     0.32720   0.17734   0.23555   0.00000  Uiso   1.00
C7     C     0.00745   0.15769   0.26373   0.00000  Uiso   1.00
C8     C     0.18324   0.32333   0.23876   0.00000  Uiso   1.00
C9     C     0.15185   0.01160   0.26287   0.00000  Uiso   1.00
C10    C     0.15588   0.05593   0.26027   0.00000  Uiso   1.00
C11    C     0.17717   0.27811   0.24052   0.00000  Uiso   1.00
C12    C     0.07776   0.18428   0.48708   0.00000  Uiso   1.00
C13    C     0.18559   0.14835   0.12940   0.00000  Uiso   1.00
C14    C     0.14889   0.18505   0.37076   0.00000  Uiso   1.00
C15    C     0.24333   0.13310   0.01018   0.00000  Uiso   1.00
C16    C     0.19239   0.14462   0.08127   0.00000  Uiso   1.00
C17    C     0.09379   0.19199   0.44215   0.00000  Uiso   1.00
C18    C     0.25465   0.01284   0.22975   0.00000  Uiso   1.00
C19    C     0.29228   0.04166   0.20362   0.00000  Uiso   1.00
C20    C     0.28132   0.15675   0.41792   0.00000  Uiso   1.00
C21    C     0.13902   0.19563   0.09081   0.00000  Uiso   1.00
C22    C     0.02695   0.21578   0.04040   0.00000  Uiso   1.00
C23    C     0.10507   0.17224   0.00980   0.00000  Uiso   1.00
C24    C     0.31214   0.21475   0.06156   0.00000  Uiso   1.00
C25    C     0.02711   0.24086   0.21221   0.00000  Uiso   1.00
C26    C     0.06457   0.26237   0.17788   0.00000  Uiso   1.00
C27    C     0.14983   0.17369   0.49021   0.00000  Uiso   1.00
C28    C     0.16581   0.18113   0.44435   0.00000  Uiso   1.00
C29    C     0.17840   0.16398   0.01386   0.00000  Uiso   1.00
C30    C     0.21935   0.15271   0.48901   0.00000  Uiso   1.00
C31    C     0.23584   0.16260   0.44409   0.00000  Uiso   1.00
C32    C     0.20981   0.17945   0.42349   0.00000  Uiso   1.00
H33    H     0.24804   0.11266   0.07127   0.00000  Uiso   1.00
H34    H     0.28282   0.07327   0.20480   0.00000  Uiso   1.00
H35    H     0.32004   0.04415   0.21851   0.00000  Uiso   1.00
H36    H     0.30219   0.02909   0.16822   0.00000  Uiso   1.00
H37    H     0.28931   0.16800   0.38386   0.00000  Uiso   1.00
H38    H     0.30459   0.17449   0.43566   0.00000  Uiso   1.00
H39    H     0.28531   0.12312   0.41407   0.00000  Uiso   1.00
H40    H     0.15565   0.21518   0.11416   0.00000  Uiso   1.00
H41    H     0.13076   0.21842   0.07155   0.00000  Uiso   1.00
H42    H     0.10925   0.17803   0.11075   0.00000  Uiso   1.00
H43    H     0.03941   0.24656   0.02604   0.00000  Uiso   1.00
H44    H     0.31848   0.14099   0.29079   0.00000  Uiso   1.00
H45    H     0.04259   0.21261   0.06733   0.00000  Uiso   1.00
H46    H     0.29922   0.18511   0.07788   0.00000  Uiso   1.00
H47    H     0.30615   0.24124   0.08726   0.00000  Uiso   1.00
H48    H     0.29516   0.21724   0.03564   0.00000  Uiso   1.00
H49    H     0.03374   0.24834   0.24571   0.00000  Uiso   1.00
H50    H     0.33059   0.25362   0.21221   0.00000  Uiso   1.00
H51    H     0.05911   0.25573   0.14396   0.00000  Uiso   1.00
H52    H     0.06755   0.29663   0.18620   0.00000  Uiso   1.00
H53    H     0.09503   0.25097   0.17801   0.00000  Uiso   1.00
H54    H     0.12191   0.32979   0.28326   0.00000  Uiso   1.00
H55    H     0.27367   0.12238   0.49218   0.00000  Uiso   1.00
H56    H     0.07145   0.19751   0.42382   0.00000  Uiso   1.00
H57    H     0.09044   0.16045   0.04228   0.00000  Uiso   1.00
H58    H     0.22398   0.18978   0.39024   0.00000  Uiso   1.00
H59    H     0.26518   0.31494   0.22842   0.00000  Uiso   1.00
H60    H     0.24622   0.02611   0.26518   0.00000  Uiso   1.00
O61    O     0.16667   0.16667   0.25000   0.00000  Uiso   1.00
O62    O     0.15451   0.12637   0.15458   0.00000  Uiso   1.00
O63    O     0.12940   0.20391   0.34968   0.00000  Uiso   1.00
O64    O     0.20824   0.17759   0.14606   0.00000  Uiso   1.00
O65    O     0.17451   0.15880   0.34968   0.00000  Uiso   1.00
O66    O     0.21966   0.00993   0.21039   0.00000  Uiso   1.00
O67    O     0.03399   0.18293   0.00658   0.00000  Uiso   1.00
O68    O     0.02325   0.19746   0.20064   0.00000  Uiso   1.00
O69    O     0.17930   0.08019   0.28213   0.00000  Uiso   1.00
O70    O     0.14632   0.26085   0.27014   0.00000  Uiso   1.00
O71    O     0.07412   0.13291   0.23413   0.00000  Uiso   1.00
O72    O     0.26693   0.19272   0.21360   0.00000  Uiso   1.00
O73    O     0.07071   0.18878   0.28213   0.00000  Uiso   1.00
O74    O     0.25491   0.15226   0.27013   0.00000  Uiso   1.00
O75    O     0.13760   0.06944   0.23413   0.00000  Uiso   1.00
O76    O     0.20345   0.25620   0.21361   0.00000  Uiso   1.00
Zn77   Zn    0.19338   0.13994   0.28734   0.00000  Uiso   1.00
Zn78   Zn    0.13379   0.12458   0.21875   0.00000  Uiso   1.00
Zn79   Zn    0.21056   0.19775   0.20657   0.00000  Uiso   1.00
Zn80   Zn    0.12893   0.20439   0.28734   0.00000  Uiso   1.00
C81    C     0.38603   0.15954   0.26025   0.00000  Uiso   1.00
C82    C     0.50174   0.16561   0.06131   0.00000  Uiso   1.00
C83    C     0.56207   0.12736   0.05550   0.00000  Uiso   1.00
C84    C     0.61426   0.17408   0.23989   0.00000  Uiso   1.00
C85    C     0.47038   0.18857   0.41995   0.00000  Uiso   1.00
C86    C     0.66053   0.17734   0.23555   0.00000  Uiso   1.00
C87    C     0.34078   0.15769   0.26373   0.00000  Uiso   1.00
C88    C     0.51657   0.32333   0.23876   0.00000  Uiso   1.00
C89    C     0.48518   0.01160   0.26287   0.00000  Uiso   1.00
C90    C     0.48922   0.05593   0.26027   0.00000  Uiso   1.00
C91    C     0.51050   0.27811   0.24052   0.00000  Uiso   1.00
C92    C     0.41109   0.18428   0.48708   0.00000  Uiso   1.00
C93    C     0.51892   0.14835   0.12940   0.00000  Uiso   1.00
C94    C     0.48222   0.18505   0.37076   0.00000  Uiso   1.00
C95    C     0.57667   0.13310   0.01018   0.00000  Uiso   1.00
C96    C     0.52572   0.14462   0.08127   0.00000  Uiso   1.00
C97    C     0.42713   0.19199   0.44215   0.00000  Uiso   1.00
C98    C     0.58798   0.01284   0.22975   0.00000  Uiso   1.00
C99    C     0.62562   0.04166   0.20362   0.00000  Uiso   1.00
C100   C     0.61465   0.15675   0.41792   0.00000  Uiso   1.00
C101   C     0.47235   0.19563   0.09081   0.00000  Uiso   1.00
C102   C     0.36028   0.21578   0.04040   0.00000  Uiso   1.00
C103   C     0.43840   0.17224   0.00980   0.00000  Uiso   1.00
C104   C     0.64548   0.21475   0.06156   0.00000  Uiso   1.00
C105   C     0.36044   0.24086   0.21221   0.00000  Uiso   1.00
C106   C     0.39790   0.26237   0.17788   0.00000  Uiso   1.00
C107   C     0.48316   0.17369   0.49021   0.00000  Uiso   1.00
C108   C     0.49914   0.18113   0.44435   0.00000  Uiso   1.00
C109   C     0.51174   0.16398   0.01386   0.00000  Uiso   1.00
C110   C     0.55269   0.15271   0.48901   0.00000  Uiso   1.00
C111   C     0.56918   0.16260   0.44409   0.00000  Uiso   1.00
C112   C     0.54314   0.17945   0.42349   0.00000  Uiso   1.00
H113   H     0.58137   0.11266   0.07127   0.00000  Uiso   1.00
H114   H     0.61616   0.07327   0.20480   0.00000  Uiso   1.00
H115   H     0.65337   0.04415   0.21851   0.00000  Uiso   1.00
H116   H     0.63553   0.02909   0.16822   0.00000  Uiso   1.00
H117   H     0.62264   0.16800   0.38386   0.00000  Uiso   1.00
H118   H     0.63793   0.17449   0.43566   0.00000  Uiso   1.00
H119   H     0.61865   0.12312   0.41407   0.00000  Uiso   1.00
H120   H     0.48898   0.21518   0.11416   0.00000  Uiso   1.00
H121   H     0.46410   0.21842   0.07155   0.00000  Uiso   1.00
H122   H     0.44258   0.17803   0.11075   0.00000  Uiso   1.00
H123   H     0.37275   0.24656   0.02604   0.00000  Uiso   1.00
H124   H     0.65181   0.14099   0.29079   0.00000  Uiso   1.00
H125   H     0.37592   0.21261   0.06733   0.00000  Uiso   1.00
H126   H     0.63255   0.18511   0.07788   0.00000  Uiso   1.00
H127   H     0.63949   0.24124   0.08726   0.00000  Uiso   1.00
H128   H     0.62849   0.21724   0.03564   0.00000  Uiso   1.00
H129   H     0.36707   0.24834   0.24571   0.00000  Uiso   1.00
H130   H     0.66392   0.25362   0.21221   0.00000  Uiso   1.00
H131   H     0.39245   0.25573   0.14396   0.00000  Uiso   1.00
H132   H     0.40089   0.29663   0.18620   0.00000  Uiso   1.00
H133   H     0.42836   0.25097   0.17801   0.00000  Uiso   1.00
H134   H     0.45524   0.32979   0.28326   0.00000  Uiso   1.00
H135   H     0.60701   0.12238   0.49218   0.00000  Uiso   1.00
H136   H     0.40479   0.19751   0.42382   0.00000  Uiso   1.00
H137   H     0.42378   0.16045   0.04228   0.00000  Uiso   1.00
H138   H     0.55732   0.18978   0.39024   0.00000  Uiso   1.00
H139   H     0.59851   0.31494   0.22842   0.00000  Uiso   1.00
H140   H     0.57955   0.02611   0.26518   0.00000  Uiso   1.00
O141   O     0.50000   0.16667   0.25000   0.00000  Uiso   1.00
O142   O     0.48784   0.12637   0.15458   0.00000  Uiso   1.00
O143   O     0.46274   0.20391   0.34968   0.00000  Uiso   1.00
O144   O     0.54157   0.17759   0.14606   0.00000  Uiso   1.00
O145   O     0.50785   0.15880   0.34968   0.00000  Uiso   1.00
O146   O     0.55299   0.00993   0.21039   0.00000  Uiso   1.00
O147   O     0.36733   0.18293   0.00658   0.00000  Uiso   1.00
O148   O     0.35658   0.19746   0.20064   0.00000  Uiso   1.00
O149   O     0.51264   0.08019   0.28213   0.00000  Uiso   1.00
O150   O     0.47965   0.26085   0.27014   0.00000  Uiso   1.00
O151   O     0.40745   0.13291   0.23413   0.00000  Uiso   1.00
O152   O     0.60026   0.19272   0.21360   0.00000  Uiso   1.00
O153   O     0.40405   0.18878   0.28213   0.00000  Uiso   1.00
O154   O     0.58824   0.15226   0.27013   0.00000  Uiso   1.00
O155   O     0.47093   0.06944   0.23413   0.00000  Uiso   1.00
O156   O     0.53678   0.25620   0.21361   0.00000  Uiso   1.00
Zn157  Zn    0.52672   0.13994   0.28734   0.00000  Uiso   1.00
Zn158  Zn    0.46713   0.12458   0.21875   0.00000  Uiso   1.00
Zn159  Zn    0.54389   0.19775   0.20657   0.00000  Uiso   1.00
Zn160  Zn    0.46226   0.20439   0.28734   0.00000  Uiso   1.00
C161   C     0.71936   0.15954   0.26025   0.00000  Uiso   1.00
C162   C     0.83507   0.16561   0.06131   0.00000  Uiso   1.00
C163   C     0.89540   0.12736   0.05550   0.00000  Uiso   1.00
C164   C     0.94759   0.17408   0.23989   0.00000  Uiso   1.00
C165   C     0.80372   0.18857   0.41995   0.00000  Uiso   1.00
C166   C     0.99387   0.17734   0.23555   0.00000  Uiso   1.00
C167   C     0.67411   0.15769   0.26373   0.00000  Uiso   1.00
C168   C     0.84991   0.32333   0.23876   0.00000  Uiso   1.00
C169   C     0.81851   0.01160   0.26287   0.00000  Uiso   1.00
C170   C     0.82255   0.05593   0.26027   0.00000  Uiso   1.00
C171   C     0.84383   0.27811   0.24052   0.00000  Uiso   1.00
C172   C     0.74442   0.18428   0.48708   0.00000  Uiso   1.00
C173   C     0.85225   0.14835   0.12940   0.00000  Uiso   1.00
C174   C     0.81556   0.18505   0.37076   0.00000  Uiso   1.00
C175   C     0.91000   0.13310   0.01018   0.00000  Uiso   1.00
C176   C     0.85906   0.14462   0.08127   0.00000  Uiso   1.00
C177   C     0.76046   0.19199   0.44215   0.00000  Uiso   1.00
C178   C     0.92132   0.01284   0.22975   0.00000  Uiso   1.00
C179   C     0.95895   0.04166   0.20362   0.00000  Uiso   1.00
C180   C     0.94799   0.15675   0.41792   0.00000  Uiso   1.00
C181   C     0.80568   0.19563   0.09081   0.00000  Uiso   1.00
C182   C     0.69361   0.21578   0.04040   0.00000  Uiso   1.00
C183   C     0.77173   0.17224   0.00980   0.00000  Uiso   1.00
C184   C     0.97881   0.21475   0.06156   0.00000  Uiso   1.00
C185   C     0.69377   0.24086   0.21221   0.00000  Uiso   1.00
C186   C     0.73123   0.26237   0.17788   0.00000  Uiso   1.00
C187   C     0.81650   0.17369   0.49021   0.00000  Uiso   1.00
C188   C     0.83247   0.18113   0.44435   0.00000  Uiso   1.00
C189   C     0.84507   0.16398   0.01386   0.00000  Uiso   1.00
C190   C     0.88602   0.15271   0.48901   0.00000  Uiso   1.00
C191   C     0.90251   0.16260   0.44409   0.00000  Uiso   1.00
C192   C     0.87647   0.17945   0.42349   0.00000  Uiso   1.00
H193   H     0.91470   0.11266   0.07127   0.00000  Uiso   1.00
H194   H     0.94949   0.07327   0.20480   0.00000  Uiso   1.00
H195   H     0.98671   0.04415   0.21851   0.00000  Uiso   1.00
H196   H     0.96886   0.02909   0.16822   0.00000  Uiso   1.00
H197   H     0.95598   0.16800   0.38386   0.00000  Uiso   1.00
H198   H     0.97126   0.17449   0.43566   0.00000  Uiso   1.00
H199   H     0.95198   0.12312   0.41407   0.00000  Uiso   1.00
H200   H     0.82232   0.21518   0.11416   0.00000  Uiso   1.00
H201   H     0.79743   0.21842   0.07155   0.00000  Uiso   1.00
H202   H     0.77591   0.17803   0.11075   0.00000  Uiso   1.00
H203   H     0.70608   0.24656   0.02604   0.00000  Uiso   1.00
H204   H     0.98515   0.14099   0.29079   0.00000  Uiso   1.00
H205   H     0.70925   0.21261   0.06733   0.00000  Uiso   1.00
H206   H     0.96589   0.18511   0.07788   0.00000  Uiso   1.00
H207   H     0.97282   0.24124   0.08726   0.00000  Uiso   1.00
H208   H     0.96182   0.21724   0.03564   0.00000  Uiso   1.00
H209   H     0.70040   0.24834   0.24571   0.00000  Uiso   1.00
H210   H     0.99725   0.25362   0.21221   0.00000  Uiso   1.00
H211   H     0.72578   0.25573   0.14396   0.00000  Uiso   1.00
H212   H     0.73422   0.29663   0.18620   0.00000  Uiso   1.00
H213   H     0.76170   0.25097   0.17801   0.00000  Uiso   1.00
H214   H     0.78857   0.32979   0.28326   0.00000  Uiso   1.00
H215   H     0.94034   0.12238   0.49218   0.00000  Uiso   1.00
H216   H     0.73812   0.19751   0.42382   0.00000  Uiso   1.00
H217   H     0.75711   0.16045   0.04228   0.00000  Uiso   1.00
H218   H     0.89065   0.18978   0.39024   0.00000  Uiso   1.00
H219   H     0.93185   0.31494   0.22842   0.00000  Uiso   1.00
H220   H     0.91288   0.02611   0.26518   0.00000  Uiso   1.00
O221   O     0.83333   0.16667   0.25000   0.00000  Uiso   1.00
O222   O     0.82118   0.12637   0.15458   0.00000  Uiso   1.00
O223   O     0.79607   0.20391   0.34968   0.00000  Uiso   1.00
O224   O     0.87491   0.17759   0.14606   0.00000  Uiso   1.00
O225   O     0.84118   0.15880   0.34968   0.00000  Uiso   1.00
O226   O     0.88632   0.00993   0.21039   0.00000  Uiso   1.00
O227   O     0.70066   0.18293   0.00658   0.00000  Uiso   1.00
O228   O     0.68991   0.19746   0.20064   0.00000  Uiso   1.00
O229   O     0.84597   0.08019   0.28213   0.00000  Uiso   1.00
O230   O     0.81298   0.26085   0.27014   0.00000  Uiso   1.00
O231   O     0.74078   0.13291   0.23413   0.00000  Uiso   1.00
O232   O     0.93360   0.19272   0.21360   0.00000  Uiso   1.00
O233   O     0.73738   0.18878   0.28213   0.00000  Uiso   1.00
O234   O     0.92158   0.15226   0.27013   0.00000  Uiso   1.00
O235   O     0.80426   0.06944   0.23413   0.00000  Uiso   1.00
O236   O     0.87012   0.25620   0.21361   0.00000  Uiso   1.00
Zn237  Zn    0.86005   0.13994   0.28734   0.00000  Uiso   1.00
Zn238  Zn    0.80046   0.12458   0.21875   0.00000  Uiso   1.00
Zn239  Zn    0.87723   0.19775   0.20657   0.00000  Uiso   1.00
Zn240  Zn    0.79560   0.20439   0.28734   0.00000  Uiso   1.00
C241   C     0.05269   0.49287   0.26025   0.00000  Uiso   1.00
C242   C     0.16840   0.49894   0.06131   0.00000  Uiso   1.00
C243   C     0.22874   0.46069   0.05550   0.00000  Uiso   1.00
C244   C     0.28093   0.50741   0.23989   0.00000  Uiso   1.00
C245   C     0.13705   0.52190   0.41995   0.00000  Uiso   1.00
C246   C     0.32720   0.51067   0.23555   0.00000  Uiso   1.00
C247   C     0.00745   0.49103   0.26373   0.00000  Uiso   1.00
C248   C     0.18324   0.65667   0.23876   0.00000  Uiso   1.00
C249   C     0.15185   0.34494   0.26287   0.00000  Uiso   1.00
C250   C     0.15588   0.38926   0.26027   0.00000  Uiso   1.00
C251   C     0.17717   0.61144   0.24052   0.00000  Uiso   1.00
C252   C     0.07776   0.51762   0.48708   0.00000  Uiso   1.00
C253   C     0.18559   0.48168   0.12940   0.00000  Uiso   1.00
C254   C     0.14889   0.51838   0.37076   0.00000  Uiso   1.00
C255   C     0.24333   0.46643   0.01018   0.00000  Uiso   1.00
C256   C     0.19239   0.47795   0.08127   0.00000  Uiso   1.00
C257   C     0.09379   0.52532   0.44215   0.00000  Uiso   1.00
C258   C     0.25465   0.34617   0.22975   0.00000  Uiso   1.00
C259   C     0.29228   0.37499   0.20362   0.00000  Uiso   1.00
C260   C     0.28132   0.49009   0.41792   0.00000  Uiso   1.00
C261   C     0.13902   0.52896   0.09081   0.00000  Uiso   1.00
C262   C     0.02695   0.54911   0.04040   0.00000  Uiso   1.00
C263   C     0.10507   0.50557   0.00980   0.00000  Uiso   1.00
C264   C     0.31214   0.54809   0.06156   0.00000  Uiso   1.00
C265   C     0.02711   0.57419   0.21221   0.00000  Uiso   1.00
C266   C     0.06457   0.59571   0.17788   0.00000  Uiso   1.00
C267   C     0.14983   0.50703   0.49021   0.00000  Uiso   1.00
C268   C     0.16581   0.51447   0.44435   0.00000  Uiso   1.00
C269   C     0.17840   0.49731   0.01386   0.00000  Uiso   1.00
C270   C     0.21935   0.48604   0.48901   0.00000  Uiso   1.00
C271   C     0.23584   0.49594   0.44409   0.00000  Uiso   1.00
C272   C     0.20981   0.51278   0.42349   0.00000  Uiso   1.00
H273   H     0.24804   0.44600   0.07127   0.00000  Uiso   1.00
H274   H     0.28282   0.40661   0.20480   0.00000  Uiso   1.00
H275   H     0.32004   0.37748   0.21851   0.00000  Uiso   1.00
H276   H     0.30219   0.36242   0.16822   0.00000  Uiso   1.00
H277   H     0.28931   0.50134   0.38386   0.00000  Uiso   1.00
H278   H     0.30459   0.50783   0.43566   0.00000  Uiso   1.00
H279   H     0.28531   0.45646   0.41407   0.00000  Uiso   1.00
H280   H     0.15565   0.54852   0.11416   0.00000  Uiso   1.00
H281   H     0.13076   0.55175   0.07155   0.00000  Uiso   1.00
H282   H     0.10925   0.51136   0.11075   0.00000  Uiso   1.00
H283   H     0.03941   0.57990   0.02604   0.00000  Uiso   1.00
H284   H     0.31848   0.47432   0.29079   0.00000  Uiso   1.00
H285   H     0.04259   0.54594   0.06733   0.00000  Uiso   1.00
H286   H     0.29922   0.51844   0.07788   0.00000  Uiso   1.00
H287   H     0.30615   0.57457   0.08726   0.00000  Uiso   1.00
H288   H     0.29516   0.55058   0.03564   0.00000  Uiso   1.00
H289   H     0.03374   0.58168   0.24571   0.00000  Uiso   1.00
H290   H     0.33059   0.58696   0.21221   0.00000  Uiso   1.00
H291   H     0.05911   0.58906   0.14396   0.00000  Uiso   1.00
H292   H     0.06755   0.62997   0.18620   0.00000  Uiso   1.00
H293   H     0.09503   0.58430   0.17801   0.00000  Uiso   1.00
H294   H     0.12191   0.66312   0.28326   0.00000  Uiso   1.00
H295   H     0.27367   0.45572   0.49218   0.00000  Uiso   1.00
H296   H     0.07145   0.53084   0.42382   0.00000  Uiso   1.00
H297   H     0.09044   0.49378   0.04228   0.00000  Uiso   1.00
H298   H     0.22398   0.52311   0.39024   0.00000  Uiso   1.00
H299   H     0.26518   0.64828   0.22842   0.00000  Uiso   1.00
H300   H     0.24622   0.35944   0.26518   0.00000  Uiso   1.00
O301   O     0.16667   0.50000   0.25000   0.00000  Uiso   1.00
O302   O     0.15451   0.45970   0.15458   0.00000  Uiso   1.00
O303   O     0.12940   0.53724   0.34968   0.00000  Uiso   1.00
O304   O     0.20824   0.51092   0.14606   0.00000  Uiso   1.00
O305   O     0.17451   0.49213   0.34968   0.00000  Uiso   1.00
O306   O     0.21966   0.34327   0.21039   0.00000  Uiso   1.00
O307   O     0.03399   0.51627   0.00658   0.00000  Uiso   1.00
O308   O     0.02325   0.53079   0.20064   0.00000  Uiso   1.00
O309   O     0.17930   0.41352   0.28213   0.00000  Uiso   1.00
O310   O     0.14632   0.59418   0.27014   0.00000  Uiso   1.00
O311   O     0.07412   0.46625   0.23413   0.00000  Uiso   1.00
O312   O     0.26693   0.52605   0.21360   0.00000  Uiso   1.00
O313   O     0.07071   0.52211   0.28213   0.00000  Uiso   1.00
O314   O     0.25491   0.48559   0.27013   0.00000  Uiso   1.00
O315   O     0.13760   0.40277   0.23413   0.00000  Uiso   1.00
O316   O     0.20345   0.58953   0.21361   0.00000  Uiso   1.00
Zn317  Zn    0.19338   0.47327   0.28734   0.00000  Uiso   1.00
Zn318  Zn    0.13379   0.45791   0.21875   0.00000  Uiso   1.00
Zn319  Zn    0.21056   0.53109   0.20657   0.00000  Uiso   1.00
Zn320  Zn    0.12893   0.53773   0.28734   0.00000  Uiso   1.00
C321   C     0.38603   0.49287   0.26025   0.00000  Uiso   1.00
C322   C     0.50174   0.49894   0.06131   0.00000  Uiso   1.00
C323   C     0.56207   0.46069   0.05550   0.00000  Uiso   1.00
C324   C     0.61426   0.50741   0.23989   0.00000  Uiso   1.00
C325   C     0.47038   0.52190   0.41995   0.00000  Uiso   1.00
C326   C     0.66053   0.51067   0.23555   0.00000  Uiso   1.00
C327   C     0.34078   0.49103   0.26373   0.00000  Uiso   1.00
C328   C     0.51657   0.65667   0.23876   0.00000  Uiso   1.00
C329   C     0.48518   0.34494   0.26287   0.00000  Uiso   1.00
C330   C     0.48922   0.38926   0.26027   0.00000  Uiso   1.00
C331   C     0.51050   0.61144   0.24052   0.00000  Uiso   1.00
C332   C     0.41109   0.51762   0.48708   0.00000  Uiso   1.00
C333   C     0.51892   0.48168   0.12940   0.00000  Uiso   1.00
C334   C     0.48222   0.51838   0.37076   0.00000  Uiso   1.00
C335   C     0.57667   0.46643   0.01018   0.00000  Uiso   1.00
C336   C     0.52572   0.47795   0.08127   0.00000  Uiso   1.00
C337   C     0.42713   0.52532   0.44215   0.00000  Uiso   1.00
C338   C     0.58798   0.34617   0.22975   0.00000  Uiso   1.00
C339   C     0.62562   0.37499   0.20362   0.00000  Uiso   1.00
C340   C     0.61465   0.49009   0.41792   0.00000  Uiso   1.00
C341   C     0.47235   0.52896   0.09081   0.00000  Uiso   1.00
C342   C     0.36028   0.54911   0.04040   0.00000  Uiso   1.00
C343   C     0.43840   0.50557   0.00980   0.00000  Uiso   1.00
C344   C     0.64548   0.54809   0.06156   0.00000  Uiso   1.00
C345   C     0.36044   0.57419   0.21221   0.00000  Uiso   1.00
C346   C     0.39790   0.59571   0.17788   0.00000  Uiso   1.00
C347   C     0.48316   0.50703   0.49021   0.00000  Uiso   1.00
C348   C     0.49914   0.51447   0.44435   0.00000  Uiso   1.00
C349   C     0.51174   0.49731   0.01386   0.00000  Uiso   1.00
C350   C     0.55269   0.48604   0.48901   0.00000  Uiso   1.00
C351   C     0.56918   0.49594   0.44409   0.00000  Uiso   1.00
C352   C     0.54314   0.51278   0.42349   0.00000  Uiso   1.00
H353   H     0.58137   0.44600   0.07127   0.00000  Uiso   1.00
H354   H     0.61616   0.40661   0.20480   0.00000  Uiso   1.00
H355   H     0.65337   0.37748   0.21851   0.00000  Uiso   1.00
H356   H     0.63553   0.36242   0.16822   0.00000  Uiso   1.00
H357   H     0.62264   0.50134   0.38386   0.00000  Uiso   1.00
H358   H     0.63793   0.50783   0.43566   0.00000  Uiso   1.00
H359   H     0.61865   0.45646   0.41407   0.00000  Uiso   1.00
H360   H     0.48898   0.54852   0.11416   0.00000  Uiso   1.00
H361   H     0.46410   0.55175   0.07155   0.00000  Uiso   1.00
H362   H     0.44258   0.51136   0.11075   0.00000  Uiso   1.00
H363   H     0.37275   0.57990   0.02604   0.00000  Uiso   1.00
H364   H     0.65181   0.47432   0.29079   0.00000  Uiso   1.00
H365   H     0.37592   0.54594   0.06733   0.00000  Uiso   1.00
H366   H     0.63255   0.51844   0.07788   0.00000  Uiso   1.00
H367   H     0.63949   0.57457   0.08726   0.00000  Uiso   1.00
H368   H     0.62849   0.55058   0.03564   0.00000  Uiso   1.00
H369   H     0.36707   0.58168   0.24571   0.00000  Uiso   1.00
H370   H     0.66392   0.58696   0.21221   0.00000  Uiso   1.00
H371   H     0.39245   0.58906   0.14396   0.00000  Uiso   1.00
H372   H     0.40089   0.62997   0.18620   0.00000  Uiso   1.00
H373   H     0.42836   0.58430   0.17801   0.00000  Uiso   1.00
H374   H     0.45524   0.66312   0.28326   0.00000  Uiso   1.00
H375   H     0.60701   0.45572   0.49218   0.00000  Uiso   1.00
H376   H     0.40479   0.53084   0.42382   0.00000  Uiso   1.00
H377   H     0.42378   0.49378   0.04228   0.00000  Uiso   1.00
H378   H     0.55732   0.52311   0.39024   0.00000  Uiso   1.00
H379   H     0.59851   0.64828   0.22842   0.00000  Uiso   1.00
H380   H     0.57955   0.35944   0.26518   0.00000  Uiso   1.00
O381   O     0.50000   0.50000   0.25000   0.00000  Uiso   1.00
O382   O     0.48784   0.45970   0.15458   0.00000  Uiso   1.00
O383   O     0.46274   0.53724   0.34968   0.00000  Uiso   1.00
O384   O     0.54157   0.51092   0.14606   0.00000  Uiso   1.00
O385   O     0.50785   0.49213   0.34968   0.00000  Uiso   1.00
O386   O     0.55299   0.34327   0.21039   0.00000  Uiso   1.00
O387   O     0.36733   0.51627   0.00658   0.00000  Uiso   1.00
O388   O     0.35658   0.53079   0.20064   0.00000  Uiso   1.00
O389   O     0.51264   0.41352   0.28213   0.00000  Uiso   1.00
O390   O     0.47965   0.59418   0.27014   0.00000  Uiso   1.00
O391   O     0.40745   0.46625   0.23413   0.00000  Uiso   1.00
O392   O     0.60026   0.52605   0.21360   0.00000  Uiso   1.00
O393   O     0.40405   0.52211   0.28213   0.00000  Uiso   1.00
O394   O     0.58824   0.48559   0.27013   0.00000  Uiso   1.00
O395   O     0.47093   0.40277   0.23413   0.00000  Uiso   1.00
O396   O     0.53678   0.58953   0.21361   0.00000  Uiso   1.00
Zn397  Zn    0.52672   0.47327   0.28734   0.00000  Uiso   1.00
Zn398  Zn    0.46713   0.45791   0.21875   0.00000  Uiso   1.00
Zn399  Zn    0.54389   0.53109   0.20657   0.00000  Uiso   1.00
Zn400  Zn    0.46226   0.53773   0.28734   0.00000  Uiso   1.00
C401   C     0.71936   0.49287   0.26025   0.00000  Uiso   1.00
C402   C     0.83507   0.49894   0.06131   0.00000  Uiso   1.00
C403   C     0.89540   0.46069   0.05550   0.00000  Uiso   1.00
C404   C     0.94759   0.50741   0.23989   0.00000  Uiso   1.00
C405   C     0.80372   0.52190   0.41995   0.00000  Uiso   1.00
C406   C     0.99387   0.51067   0.23555   0.00000  Uiso   1.00
C407   C     0.67411   0.49103   0.26373   0.00000  Uiso   1.00
C408   C     0.84991   0.65667   0.23876   0.00000  Uiso   1.00
C409   C     0.81851   0.34494   0.26287   0.00000  Uiso   1.00
C410   C     0.82255   0.38926   0.26027   0.00000  Uiso   1.00
C411   C     0.84383   0.61144   0.24052   0.00000  Uiso   1.00
C412   C     0.74442   0.51762   0.48708   0.00000  Uiso   1.00
C413   C     0.85225   0.48168   0.12940   0.00000  Uiso   1.00
C414   C     0.81556   0.51838   0.37076   0.00000  Uiso   1.00
C415   C     0.91000   0.46643   0.01018   0.00000  Uiso   1.00
C416   C     0.85906   0.47795   0.08127   0.00000  Uiso   1.00
C417   C     0.76046   0.52532   0.44215   0.00000  Uiso   1.00
C418   C     0.92132   0.34617   0.22975   0.00000  Uiso   1.00
C419   C     0.95895   0.37499   0.20362   0.00000  Uiso   1.00
C420   C     0.94799   0.49009   0.41792   0.00000  Uiso   1.00
C421   C     0.80568   0.52896   0.09081   0.00000  Uiso   1.00
C422   C     0.69361   0.54911   0.04040   0.00000  Uiso   1.00
C423   C     0.77173   0.50557   0.00980   0.00000  Uiso   1.00
C424   C     0.97881   0.54809   0.06156   0.00000  Uiso   1.00
C425   C     0.69377   0.57419   0.21221   0.00000  Uiso   1.00
C426   C     0.73123   0.59571   0.17788   0.00000  Uiso   1.00
C427   C     0.81650   0.50703   0.49021   0.00000  Uiso   1.00
C428   C     0.83247   0.51447   0.44435   0.00000  Uiso   1.00
C429   C     0.84507   0.49731   0.01386   0.00000  Uiso   1.00
C430   C     0.88602   0.48604   0.48901   0.00000  Uiso   1.00
C431   C     0.90251   0.49594   0.44409   0.00000  Uiso   1.00
C432   C     0.87647   0.51278   0.42349   0.00000  Uiso   1.00
H433   H     0.91470   0.44600   0.07127   0.00000  Uiso   1.00
H434   H     0.94949   0.40661   0.20480   0.00000  Uiso   1.00
H435   H     0.98671   0.37748   0.21851   0.00000  Uiso   1.00
H436   H     0.96886   0.36242   0.16822   0.00000  Uiso   1.00
H437   H     0.95598   0.50134   0.38386   0.00000  Uiso   1.00
H438   H     0.97126   0.50783   0.43566   0.00000  Uiso   1.00
H439   H     0.95198   0.45646   0.41407   0.00000  Uiso   1.00
H440   H     0.82232   0.54852   0.11416   0.00000  Uiso   1.00
H441   H     0.79743   0.55175   0.07155   0.00000  Uiso   1.00
H442   H     0.77591   0.51136   0.11075   0.00000  Uiso   1.00
H443   H     0.70608   0.57990   0.02604   0.00000  Uiso   1.00
H444   H     0.98515   0.47432   0.29079   0.00000  Uiso   1.00
H445   H     0.70925   0.54594   0.06733   0.00000  Uiso   1.00
H446   H     0.96589   0.51844   0.07788   0.00000  Uiso   1.00
H447   H     0.97282   0.57457   0.08726   0.00000  Uiso   1.00
H448   H     0.96182   0.55058   0.03564   0.00000  Uiso   1.00
H449   H     0.70040   0.58168   0.24571   0.00000  Uiso   1.00
H450   H     0.99725   0.58696   0.21221   0.00000  Uiso   1.00
H451   H     0.72578   0.58906   0.14396   0.00000  Uiso   1.00
H452   H     0.73422   0.62997   0.18620   0.00000  Uiso   1.00
H453   H     0.76170   0.58430   0.17801   0.00000  Uiso   1.00
H454   H     0.78857   0.66312   0.28326   0.00000  Uiso   1.00
H455   H     0.94034   0.45572   0.49218   0.00000  Uiso   1.00
H456   H     0.73812   0.53084   0.42382   0.00000  Uiso   1.00
H457   H     0.75711   0.49378   0.04228   0.00000  Uiso   1.00
H458   H     0.89065   0.52311   0.39024   0.00000  Uiso   1.00
H459   H     0.93185   0.64828   0.22842   0.00000  Uiso   1.00
H460   H     0.91288   0.35944   0.26518   0.00000  Uiso   1.00
O461   O     0.83333   0.50000   0.25000   0.00000  Uiso   1.00
O462   O     0.82118   0.45970   0.15458   0.00000  Uiso   1.00
O463   O     0.79607   0.53724   0.34968   0.00000  Uiso   1.00
O464   O     0.87491   0.51092   0.14606   0.00000  Uiso   1.00
O465   O     0.84118   0.49213   0.34968   0.00000  Uiso   1.00
O466   O     0.88632   0.34327   0.21039   0.00000  Uiso   1.00
O467   O     0.70066   0.51627   0.00658   0.00000  Uiso   1.00
O468   O     0.68991   0.53079   0.20064   0.00000  Uiso   1.00
O469   O     0.84597   0.41352   0.28213   0.00000  Uiso   1.00
O470   O     0.81298   0.59418   0.27014   0.00000  Uiso   1.00
O471   O     0.74078   0.46625   0.23413   0.00000  Uiso   1.00
O472   O     0.93360   0.52605   0.21360   0.00000  Uiso   1.00
O473   O     0.73738   0.52211   0.28213   0.00000  Uiso   1.00
O474   O     0.92158   0.48559   0.27013   0.00000  Uiso   1.00
O475   O     0.80426   0.40277   0.23413   0.00000  Uiso   1.00
O476   O     0.87012   0.58953   0.21361   0.00000  Uiso   1.00
Zn477  Zn    0.86005   0.47327   0.28734   0.00000  Uiso   1.00
Zn478  Zn    0.80046   0.45791   0.21875   0.00000  Uiso   1.00
Zn479  Zn    0.87723   0.53109   0.20657   0.00000  Uiso   1.00
Zn480  Zn    0.79560   0.53773   0.28734   0.00000  Uiso   1.00
C481   C     0.05269   0.82620   0.26025   0.00000  Uiso   1.00
C482   C     0.16840   0.83228   0.06131   0.00000  Uiso   1.00
C483   C     0.22874   0.79403   0.05550   0.00000  Uiso   1.00
C484   C     0.28093   0.84075   0.23989   0.00000  Uiso   1.00
C485   C     0.13705   0.85524   0.41995   0.00000  Uiso   1.00
C486   C     0.32720   0.84401   0.23555   0.00000  Uiso   1.00
C487   C     0.00745   0.82436   0.26373   0.00000  Uiso   1.00
C488   C     0.18324   0.99000   0.23876   0.00000  Uiso   1.00
C489   C     0.15185   0.67827   0.26287   0.00000  Uiso   1.00
C490   C     0.15588   0.72260   0.26027   0.00000  Uiso   1.00
C491   C     0.17717   0.94478   0.24052   0.00000  Uiso   1.00
C492   C     0.07776   0.85095   0.48708   0.00000  Uiso   1.00
C493   C     0.18559   0.81501   0.12940   0.00000  Uiso   1.00
C494   C     0.14889   0.85171   0.37076   0.00000  Uiso   1.00
C495   C     0.24333   0.79976   0.01018   0.00000  Uiso   1.00
C496   C     0.19239   0.81129   0.08127   0.00000  Uiso   1.00
C497   C     0.09379   0.85866   0.44215   0.00000  Uiso   1.00
C498   C     0.25465   0.67950   0.22975   0.00000  Uiso   1.00
C499   C     0.29228   0.70832   0.20362   0.00000  Uiso   1.00
C500   C     0.28132   0.82342   0.41792   0.00000  Uiso   1.00
C501   C     0.13902   0.86230   0.09081   0.00000  Uiso   1.00
C502   C     0.02695   0.88245   0.04040   0.00000  Uiso   1.00
C503   C     0.10507   0.83891   0.00980   0.00000  Uiso   1.00
C504   C     0.31214   0.88142   0.06156   0.00000  Uiso   1.00
C505   C     0.02711   0.90752   0.21221   0.00000  Uiso   1.00
C506   C     0.06457   0.92904   0.17788   0.00000  Uiso   1.00
C507   C     0.14983   0.84036   0.49021   0.00000  Uiso   1.00
C508   C     0.16581   0.84780   0.44435   0.00000  Uiso   1.00
C509   C     0.17840   0.83065   0.01386   0.00000  Uiso   1.00
C510   C     0.21935   0.81937   0.48901   0.00000  Uiso   1.00
C511   C     0.23584   0.82927   0.44409   0.00000  Uiso   1.00
C512   C     0.20981   0.84611   0.42349   0.00000  Uiso   1.00
H513   H     0.24804   0.77933   0.07127   0.00000  Uiso   1.00
H514   H     0.28282   0.73994   0.20480   0.00000  Uiso   1.00
H515   H     0.32004   0.71082   0.21851   0.00000  Uiso   1.00
H516   H     0.30219   0.69576   0.16822   0.00000  Uiso   1.00
H517   H     0.28931   0.83467   0.38386   0.00000  Uiso   1.00
H518   H     0.30459   0.84116   0.43566   0.00000  Uiso   1.00
H519   H     0.28531   0.78979   0.41407   0.00000  Uiso   1.00
H520   H     0.15565   0.88185   0.11416   0.00000  Uiso   1.00
H521   H     0.13076   0.88509   0.07155   0.00000  Uiso   1.00
H522   H     0.10925   0.84469   0.11075   0.00000  Uiso   1.00
H523   H     0.03941   0.91323   0.02604   0.00000  Uiso   1.00
H524   H     0.31848   0.80766   0.29079   0.00000  Uiso   1.00
H525   H     0.04259   0.87928   0.06733   0.00000  Uiso   1.00
H526   H     0.29922   0.85178   0.07788   0.00000  Uiso   1.00
H527   H     0.30615   0.90790   0.08726   0.00000  Uiso   1.00
H528   H     0.29516   0.88391   0.03564   0.00000  Uiso   1.00
H529   H     0.03374   0.91501   0.24571   0.00000  Uiso   1.00
H530   H     0.33059   0.92029   0.21221   0.00000  Uiso   1.00
H531   H     0.05911   0.92239   0.14396   0.00000  Uiso   1.00
H532   H     0.06755   0.96330   0.18620   0.00000  Uiso   1.00
H533   H     0.09503   0.91763   0.17801   0.00000  Uiso   1.00
H534   H     0.12191   0.99646   0.28326   0.00000  Uiso   1.00
H535   H     0.27367   0.78905   0.49218   0.00000  Uiso   1.00
H536   H     0.07145   0.86418   0.42382   0.00000  Uiso   1.00
H537   H     0.09044   0.82711   0.04228   0.00000  Uiso   1.00
H538   H     0.22398   0.85645   0.39024   0.00000  Uiso   1.00
H539   H     0.26518   0.98161   0.22842   0.00000  Uiso   1.00
H540   H     0.24622   0.69278   0.26518   0.00000  Uiso   1.00
O541   O     0.16667   0.83333   0.25000   0.00000  Uiso   1.00
O542   O     0.15451   0.79304   0.15458   0.00000  Uiso   1.00
O543   O     0.12940   0.87058   0.34968   0.00000  Uiso   1.00
O544   O     0.20824   0.84425   0.14606   0.00000  Uiso   1.00
O545   O     0.17451   0.82546   0.34968   0.00000  Uiso   1.00
O546   O     0.21966   0.67660   0.21039   0.00000  Uiso   1.00
O547   O     0.03399   0.84960   0.00658   0.00000  Uiso   1.00
O548   O     0.02325   0.86413   0.20064   0.00000  Uiso   1.00
O549   O     0.17930   0.74686   0.28213   0.00000  Uiso   1.00
O550   O     0.14632   0.92751   0.27014   0.00000  Uiso   1.00
O551   O     0.07412   0.79958   0.23413   0.00000  Uiso   1.00
O552   O     0.26693   0.85939   0.21360   0.00000  Uiso   1.00
O553   O     0.07071   0.85544   0.28213   0.00000  Uiso   1.00
O554   O     0.25491   0.81892   0.27013   0.00000  Uiso   1.00
O555   O     0.13760   0.73610   0.23413   0.00000  Uiso   1.00
O556   O     0.20345   0.92286   0.21361   0.00000  Uiso   1.00
Zn557  Zn    0.19338   0.80661   0.28734   0.00000  Uiso   1.00
Zn558  Zn    0.13379   0.79124   0.21875   0.00000  Uiso   1.00
Zn559  Zn    0.21056   0.86442   0.20657   0.00000  Uiso   1.00
Zn560  Zn    0.12893   0.87106   0.28734   0.00000  Uiso   1.00
C561   C     0.38603   0.82620   0.26025   0.00000  Uiso   1.00
C562   C     0.50174   0.83228   0.06131   0.00000  Uiso   1.00
C563   C     0.56207   0.79403   0.05550   0.00000  Uiso   1.00
C564   C     0.61426   0.84075   0.23989   0.00000  Uiso   1.00
C565   C     0.47038   0.85524   0.41995   0.00000  Uiso   1.00
C566   C     0.66053   0.84401   0.23555   0.00000  Uiso   1.00
C567   C     0.34078   0.82436   0.26373   0.00000  Uiso   1.00
C568   C     0.51657   0.99000   0.23876   0.00000  Uiso   1.00
C569   C     0.48518   0.67827   0.26287   0.00000  Uiso   1.00
C570   C     0.48922   0.72260   0.26027   0.00000  Uiso   1.00
C571   C     0.51050   0.94478   0.24052   0.00000  Uiso   1.00
C572   C     0.41109   0.85095   0.48708   0.00000  Uiso   1.00
C573   C     0.51892   0.81501   0.12940   0.00000  Uiso   1.00
C574   C     0.48222   0.85171   0.37076   0.00000  Uiso   1.00
C575   C     0.57667   0.79976   0.01018   0.00000  Uiso   1.00
C576   C     0.52572   0.81129   0.08127   0.00000  Uiso   1.00
C577   C     0.42713   0.85866   0.44215   0.00000  Uiso   1.00
C578   C     0.58798   0.67950   0.22975   0.00000  Uiso   1.00
C579   C     0.62562   0.70832   0.20362   0.00000  Uiso   1.00
C580   C     0.61465   0.82342   0.41792   0.00000  Uiso   1.00
C581   C     0.47235   0.86230   0.09081   0.00000  Uiso   1.00
C582   C     0.36028   0.88245   0.04040   0.00000  Uiso   1.00
C583   C     0.43840   0.83891   0.00980   0.00000  Uiso   1.00
C584   C     0.64548   0.88142   0.06156   0.00000  Uiso   1.00
C585   C     0.36044   0.90752   0.21221   0.00000  Uiso   1.00
C586   C     0.39790   0.92904   0.17788   0.00000  Uiso   1.00
C587   C     0.48316   0.84036   0.49021   0.00000  Uiso   1.00
C588   C     0.49914   0.84780   0.44435   0.00000  Uiso   1.00
C589   C     0.51174   0.83065   0.01386   0.00000  Uiso   1.00
C590   C     0.55269   0.81937   0.48901   0.00000  Uiso   1.00
C591   C     0.56918   0.82927   0.44409   0.00000  Uiso   1.00
C592   C     0.54314   0.84611   0.42349   0.00000  Uiso   1.00
H593   H     0.58137   0.77933   0.07127   0.00000  Uiso   1.00
H594   H     0.61616   0.73994   0.20480   0.00000  Uiso   1.00
H595   H     0.65337   0.71082   0.21851   0.00000  Uiso   1.00
H596   H     0.63553   0.69576   0.16822   0.00000  Uiso   1.00
H597   H     0.62264   0.83467   0.38386   0.00000  Uiso   1.00
H598   H     0.63793   0.84116   0.43566   0.00000  Uiso   1.00
H599   H     0.61865   0.78979   0.41407   0.00000  Uiso   1.00
H600   H     0.48898   0.88185   0.11416   0.00000  Uiso   1.00
H601   H     0.46410   0.88509   0.07155   0.00000  Uiso   1.00
H602   H     0.44258   0.84469   0.11075   0.00000  Uiso   1.00
H603   H     0.37275   0.91323   0.02604   0.00000  Uiso   1.00
H604   H     0.65181   0.80766   0.29079   0.00000  Uiso   1.00
H605   H     0.37592   0.87928   0.06733   0.00000  Uiso   1.00
H606   H     0.63255   0.85178   0.07788   0.00000  Uiso   1.00
H607   H     0.63949   0.90790   0.08726   0.00000  Uiso   1.00
H608   H     0.62849   0.88391   0.03564   0.00000  Uiso   1.00
H609   H     0.36707   0.91501   0.24571   0.00000  Uiso   1.00
H610   H     0.66392   0.92029   0.21221   0.00000  Uiso   1.00
H611   H     0.39245   0.92239   0.14396   0.00000  Uiso   1.00
H612   H     0.40089   0.96330   0.18620   0.00000  Uiso   1.00
H613   H     0.42836   0.91763   0.17801   0.00000  Uiso   1.00
H614   H     0.45524   0.99646   0.28326   0.00000  Uiso   1.00
H615   H     0.60701   0.78905   0.49218   0.00000  Uiso   1.00
H616   H     0.40479   0.86418   0.42382   0.00000  Uiso   1.00
H617   H     0.42378   0.82711   0.04228   0.00000  Uiso   1.00
H618   H     0.55732   0.85645   0.39024   0.00000  Uiso   1.00
H619   H     0.59851   0.98161   0.22842   0.00000  Uiso   1.00
H620   H     0.57955   0.69278   0.26518   0.00000  Uiso   1.00
O621   O     0.50000   0.83333   0.25000   0.00000  Uiso   1.00
O622   O     0.48784   0.79304   0.15458   0.00000  Uiso   1.00
O623   O     0.46274   0.87058   0.34968   0.00000  Uiso   1.00
O624   O     0.54157   0.84425   0.14606   0.00000  Uiso   1.00
O625   O     0.50785   0.82546   0.34968   0.00000  Uiso   1.00
O626   O     0.55299   0.67660   0.21039   0.00000  Uiso   1.00
O627   O     0.36733   0.84960   0.00658   0.00000  Uiso   1.00
O628   O     0.35658   0.86413   0.20064   0.00000  Uiso   1.00
O629   O     0.51264   0.74686   0.28213   0.00000  Uiso   1.00
O630   O     0.47965   0.92751   0.27014   0.00000  Uiso   1.00
O631   O     0.40745   0.79958   0.23413   0.00000  Uiso   1.00
O632   O     0.60026   0.85939   0.21360   0.00000  Uiso   1.00
O633   O     0.40405   0.85544   0.28213   0.00000  Uiso   1.00
O634   O     0.58824   0.81892   0.27013   0.00000  Uiso   1.00
O635   O     0.47093   0.73610   0.23413   0.00000  Uiso   1.00
O636   O     0.53678   0.92286   0.21361   0.00000  Uiso   1.00
Zn637  Zn    0.52672   0.80661   0.28734   0.00000  Uiso   1.00
Zn638  Zn    0.46713   0.79124   0.21875   0.00000  Uiso   1.00
Zn639  Zn    0.54389   0.86442   0.20657   0.00000  Uiso   1.00
Zn640  Zn    0.46226   0.87106   0.28734   0.00000  Uiso   1.00
C641   C     0.71936   0.82620   0.26025   0.00000  Uiso   1.00
C642   C     0.83507   0.83228   0.06131   0.00000  Uiso   1.00
C643   C     0.89540   0.79403   0.05550   0.00000  Uiso   1.00
C644   C     0.94759   0.84075   0.23989   0.00000  Uiso   1.00
C645   C     0.80372   0.85524   0.41995   0.00000  Uiso   1.00
C646   C     0.99387   0.84401   0.23555   0.00000  Uiso   1.00
C647   C     0.67411   0.82436   0.26373   0.00000  Uiso   1.00
C648   C     0.84991   0.99000   0.23876   0.00000  Uiso   1.00
C649   C     0.81851   0.67827   0.26287   0.00000  Uiso   1.00
C650   C     0.82255   0.72260   0.26027   0.00000  Uiso   1.00
C651   C     0.84383   0.94478   0.24052   0.00000  Uiso   1.00
C652   C     0.74442   0.85095   0.48708   0.00000  Uiso   1.00
C653   C     0.85225   0.81501   0.12940   0.00000  Uiso   1.00
C654   C     0.81556   0.85171   0.37076   0.00000  Uiso   1.00
C655   C     0.91000   0.79976   0.01018   0.00000  Uiso   1.00
C656   C     0.85906   0.81129   0.08127   0.00000  Uiso   1.00
C657   C     0.76046   0.85866   0.44215   0.00000  Uiso   1.00
C658   C     0.92132   0.67950   0.22975   0.00000  Uiso   1.00
C659   C     0.95895   0.70832   0.20362   0.00000  Uiso   1.00
C660   C     0.94799   0.82342   0.41792   0.00000  Uiso   1.00
C661   C     0.80568   0.86230   0.09081   0.00000  Uiso   1.00
C662   C     0.69361   0.88245   0.04040   0.00000  Uiso   1.00
C663   C     0.77173   0.83891   0.00980   0.00000  Uiso   1.00
C664   C     0.97881   0.88142   0.06156   0.00000  Uiso   1.00
C665   C     0.69377   0.90752   0.21221   0.00000  Uiso   1.00
C666   C     0.73123   0.92904   0.17788   0.00000  Uiso   1.00
C667   C     0.81650   0.84036   0.49021   0.00000  Uiso   1.00
C668   C     0.83247   0.84780   0.44435   0.00000  Uiso   1.00
C669   C     0.84507   0.83065   0.01386   0.00000  Uiso   1.00
C670   C     0.88602   0.81937   0.48901   0.00000  Uiso   1.00
C671   C     0.90251   0.82927   0.44409   0.00000  Uiso   1.00
C672   C     0.87647   0.84611   0.42349   0.00000  Uiso   1.00
H673   H     0.91470   0.77933   0.07127   0.00000  Uiso   1.00
H674   H     0.94949   0.73994   0.20480   0.00000  Uiso   1.00
H675   H     0.98671   0.71082   0.21851   0.00000  Uiso   1.00
H676   H     0.96886   0.69576   0.16822   0.00000  Uiso   1.00
H677   H     0.95598   0.83467   0.38386   0.00000  Uiso   1.00
H678   H     0.97126   0.84116   0.43566   0.00000  Uiso   1.00
H679   H     0.95198   0.78979   0.41407   0.00000  Uiso   1.00
H680   H     0.82232   0.88185   0.11416   0.00000  Uiso   1.00
H681   H     0.79743   0.88509   0.07155   0.00000  Uiso   1.00
H682   H     0.77591   0.84469   0.11075   0.00000  Uiso   1.00
H683   H     0.70608   0.91323   0.02604   0.00000  Uiso   1.00
H684   H     0.98515   0.80766   0.29079   0.00000  Uiso   1.00
H685   H     0.70925   0.87928   0.06733   0.00000  Uiso   1.00
H686   H     0.96589   0.85178   0.07788   0.00000  Uiso   1.00
H687   H     0.97282   0.90790   0.08726   0.00000  Uiso   1.00
H688   H     0.96182   0.88391   0.03564   0.00000  Uiso   1.00
H689   H     0.70040   0.91501   0.24571   0.00000  Uiso   1.00
H690   H     0.99725   0.92029   0.21221   0.00000  Uiso   1.00
H691   H     0.72578   0.92239   0.14396   0.00000  Uiso   1.00
H692   H     0.73422   0.96330   0.18620   0.00000  Uiso   1.00
H693   H     0.76170   0.91763   0.17801   0.00000  Uiso   1.00
H694   H     0.78857   0.99646   0.28326   0.00000  Uiso   1.00
H695   H     0.94034   0.78905   0.49218   0.00000  Uiso   1.00
H696   H     0.73812   0.86418   0.42382   0.00000  Uiso   1.00
H697   H     0.75711   0.82711   0.04228   0.00000  Uiso   1.00
H698   H     0.89065   0.85645   0.39024   0.00000  Uiso   1.00
H699   H     0.93185   0.98161   0.22842   0.00000  Uiso   1.00
H700   H     0.91288   0.69278   0.26518   0.00000  Uiso   1.00
O701   O     0.83333   0.83333   0.25000   0.00000  Uiso   1.00
O702   O     0.82118   0.79304   0.15458   0.00000  Uiso   1.00
O703   O     0.79607   0.87058   0.34968   0.00000  Uiso   1.00
O704   O     0.87491   0.84425   0.14606   0.00000  Uiso   1.00
O705   O     0.84118   0.82546   0.34968   0.00000  Uiso   1.00
O706   O     0.88632   0.67660   0.21039   0.00000  Uiso   1.00
O707   O     0.70066   0.84960   0.00658   0.00000  Uiso   1.00
O708   O     0.68991   0.86413   0.20064   0.00000  Uiso   1.00
O709   O     0.84597   0.74686   0.28213   0.00000  Uiso   1.00
O710   O     0.81298   0.92751   0.27014   0.00000  Uiso   1.00
O711   O     0.74078   0.79958   0.23413   0.00000  Uiso   1.00
O712   O     0.93360   0.85939   0.21360   0.00000  Uiso   1.00
O713   O     0.73738   0.85544   0.28213   0.00000  Uiso   1.00
O714   O     0.92158   0.81892   0.27013   0.00000  Uiso   1.00
O715   O     0.80426   0.73610   0.23413   0.00000  Uiso   1.00
O716   O     0.87012   0.92286   0.21361   0.00000  Uiso   1.00
Zn717  Zn    0.86005   0.80661   0.28734   0.00000  Uiso   1.00
Zn718  Zn    0.80046   0.79124   0.21875   0.00000  Uiso   1.00
Zn719  Zn    0.87723   0.86442   0.20657   0.00000  Uiso   1.00
Zn720  Zn    0.79560   0.87106   0.28734   0.00000  Uiso   1.00
C721   C     0.05269   0.15954   0.76025   0.00000  Uiso   1.00
C722   C     0.16840   0.16561   0.56131   0.00000  Uiso   1.00
C723   C     0.22874   0.12736   0.55550   0.00000  Uiso   1.00
C724   C     0.28093   0.17408   0.73989   0.00000  Uiso   1.00
C725   C     0.13705   0.18857   0.91995   0.00000  Uiso   1.00
C726   C     0.32720   0.17734   0.73555   0.00000  Uiso   1.00
C727   C     0.00745   0.15769   0.76373   0.00000  Uiso   1.00
C728   C     0.18324   0.32333   0.73876   0.00000  Uiso   1.00
C729   C     0.15185   0.01160   0.76287   0.00000  Uiso   1.00
C730   C     0.15588   0.05593   0.76027   0.00000  Uiso   1.00
C731   C     0.17717   0.27811   0.74052   0.00000  Uiso   1.00
C732   C     0.07776   0.18428   0.98708   0.00000  Uiso   1.00
C733   C     0.18559   0.14835   0.62940   0.00000  Uiso   1.00
C734   C     0.14889   0.18505   0.87076   0.00000  Uiso   1.00
C735   C     0.24333   0.13310   0.51018   0.00000  Uiso   1.00
C736   C     0.19239   0.14462   0.58127   0.00000  Uiso   1.00
C737   C     0.09379   0.19199   0.94215   0.00000  Uiso   1.00
C738   C     0.25465   0.01284   0.72975   0.00000  Uiso   1.00
C739   C     0.29228   0.04166   0.70362   0.00000  Uiso   1.00
C740   C     0.28132   0.15675   0.91792   0.00000  Uiso   1.00
C741   C     0.13902   0.19563   0.59081   0.00000  Uiso   1.00
C742   C     0.02695   0.21578   0.54040   0.00000  Uiso   1.00
C743   C     0.10507   0.17224   0.50980   0.00000  Uiso   1.00
C744   C     0.31214   0.21475   0.56156   0.00000  Uiso   1.00
C745   C     0.02711   0.24086   0.71221   0.00000  Uiso   1.00
C746   C     0.06457   0.26237   0.67788   0.00000  Uiso   1.00
C747   C     0.14983   0.17369   0.99021   0.00000  Uiso   1.00
C748   C     0.16581   0.18113   0.94435   0.00000  Uiso   1.00
C749   C     0.17840   0.16398   0.51386   0.00000  Uiso   1.00
C750   C     0.21935   0.15271   0.98901   0.00000  Uiso   1.00
C751   C     0.23584   0.16260   0.94409   0.00000  Uiso   1.00
C752   C     0.20981   0.17945   0.92349   0.00000  Uiso   1.00
H753   H     0.24804   0.11266   0.57127   0.00000  Uiso   1.00
H754   H     0.28282   0.07327   0.70480   0.00000  Uiso   1.00
H755   H     0.32004   0.04415   0.71851   0.00000  Uiso   1.00
H756   H     0.30219   0.02909   0.66822   0.00000  Uiso   1.00
H757   H     0.28931   0.16800   0.88386   0.00000  Uiso   1.00
H758   H     0.30459   0.17449   0.93566   0.00000  Uiso   1.00
H759   H     0.28531   0.12312   0.91407   0.00000  Uiso   1.00
H760   H     0.15565   0.21518   0.61416   0.00000  Uiso   1.00
H761   H     0.13076   0.21842   0.57155   0.00000  Uiso   1.00
H762   H     0.10925   0.17803   0.61075   0.00000  Uiso   1.00
H763   H     0.03941   0.24656   0.52604   0.00000  Uiso   1.00
H764   H     0.31848   0.14099   0.79079   0.00000  Uiso   1.00
H765   H     0.04259   0.21261   0.56733   0.00000  Uiso   1.00
H766   H     0.29922   0.18511   0.57788   0.00000  Uiso   1.00
H767   H     0.30615   0.24124   0.58726   0.00000  Uiso   1.00
H768   H     0.29516   0.21724   0.53564   0.00000  Uiso   1.00
H769   H     0.03374   0.24834   0.74571   0.00000  Uiso   1.00
H770   H     0.33059   0.25362   0.71221   0.00000  Uiso   1.00
H771   H     0.05911   0.25573   0.64396   0.00000  Uiso   1.00
H772   H     0.06755   0.29663   0.68620   0.00000  Uiso   1.00
H773   H     0.09503   0.25097   0.67801   0.00000  Uiso   1.00
H774   H     0.12191   0.32979   0.78326   0.00000  Uiso   1.00
H775   H     0.27367   0.12238   0.99218   0.00000  Uiso   1.00
H776   H     0.07145   0.19751   0.92382   0.00000  Uiso   1.00
H777   H     0.09044   0.16045   0.54228   0.00000  Uiso   1.00
H778   H     0.22398   0.18978   0.89024   0.00000  Uiso   1.00
H779   H     0.26518   0.31494   0.72842   0.00000  Uiso   1.00
H780   H     0.24622   0.02611   0.76518   0.00000  Uiso   1.00
O781   O     0.16667   0.16667   0.75000   0.00000  Uiso   1.00
O782   O     0.15451   0.12637   0.65458   0.00000  Uiso   1.00
O783   O     0.12940   0.20391   0.84968   0.00000  Uiso   1.00
O784   O     0.20824   0.17759   0.64606   0.00000  Uiso   1.00
O785   O     0.17451   0.15880   0.84968   0.00000  Uiso   1.00
O786   O     0.21966   0.00993   0.71039   0.00000  Uiso   1.00
O787   O     0.03399   0.18293   0.50658   0.00000  Uiso   1.00
O788   O     0.02325   0.19746   0.70064   0.00000  Uiso   1.00
O789   O     0.17930   0.08019   0.78213   0.00000  Uiso   1.00
O790   O     0.14632   0.26085   0.77014   0.00000  Uiso   1.00
O791   O     0.07412   0.13291   0.73413   0.00000  Uiso   1.00
O792   O     0.26693   0.19272   0.71360   0.00000  Uiso   1.00
O793   O     0.07071   0.18878   0.78213   0.00000  Uiso   1.00
O794   O     0.25491   0.15226   0.77013   0.00000  Uiso   1.00
O795   O     0.13760   0.06944   0.73413   0.00000  Uiso   1.00
O796   O     0.20345   0.25620   0.71361   0.00000  Uiso   1.00
Zn797  Zn    0.19338   0.13994   0.78734   0.00000  Uiso   1.00
Zn798  Zn    0.13379   0.12458   0.71875   0.00000  Uiso   1.00
Zn799  Zn    0.21056   0.19775   0.70657   0.00000  Uiso   1.00
Zn800  Zn    0.12893   0.20439   0.78734   0.00000  Uiso   1.00
C801   C     0.38603   0.15954   0.76025   0.00000  Uiso   1.00
C802   C     0.50174   0.16561   0.56131   0.00000  Uiso   1.00
C803   C     0.56207   0.12736   0.55550   0.00000  Uiso   1.00
C804   C     0.61426   0.17408   0.73989   0.00000  Uiso   1.00
C805   C     0.47038   0.18857   0.91995   0.00000  Uiso   1.00
C806   C     0.66053   0.17734   0.73555   0.00000  Uiso   1.00
C807   C     0.34078   0.15769   0.76373   0.00000  Uiso   1.00
C808   C     0.51657   0.32333   0.73876   0.00000  Uiso   1.00
C809   C     0.48518   0.01160   0.76287   0.00000  Uiso   1.00
C810   C     0.48922   0.05593   0.76027   0.00000  Uiso   1.00
C811   C     0.51050   0.27811   0.74052   0.00000  Uiso   1.00
C812   C     0.41109   0.18428   0.98708   0.00000  Uiso   1.00
C813   C     0.51892   0.14835   0.62940   0.00000  Uiso   1.00
C814   C     0.48222   0.18505   0.87076   0.00000  Uiso   1.00
C815   C     0.57667   0.13310   0.51018   0.00000  Uiso   1.00
C816   C     0.52572   0.14462   0.58127   0.00000  Uiso   1.00
C817   C     0.42713   0.19199   0.94215   0.00000  Uiso   1.00
C818   C     0.58798   0.01284   0.72975   0.00000  Uiso   1.00
C819   C     0.62562   0.04166   0.70362   0.00000  Uiso   1.00
C820   C     0.61465   0.15675   0.91792   0.00000  Uiso   1.00
C821   C     0.47235   0.19563   0.59081   0.00000  Uiso   1.00
C822   C     0.36028   0.21578   0.54040   0.00000  Uiso   1.00
C823   C     0.43840   0.17224   0.50980   0.00000  Uiso   1.00
C824   C     0.64548   0.21475   0.56156   0.00000  Uiso   1.00
C825   C     0.36044   0.24086   0.71221   0.00000  Uiso   1.00
C826   C     0.39790   0.26237   0.67788   0.00000  Uiso   1.00
C827   C     0.48316   0.17369   0.99021   0.00000  Uiso   1.00
C828   C     0.49914   0.18113   0.94435   0.00000  Uiso   1.00
C829   C     0.51174   0.16398   0.51386   0.00000  Uiso   1.00
C830   C     0.55269   0.15271   0.98901   0.00000  Uiso   1.00
C831   C     0.56918   0.16260   0.94409   0.00000  Uiso   1.00
C832   C     0.54314   0.17945   0.92349   0.00000  Uiso   1.00
H833   H     0.58137   0.11266   0.57127   0.00000  Uiso   1.00
H834   H     0.61616   0.07327   0.70480   0.00000  Uiso   1.00
H835   H     0.65337   0.04415   0.71851   0.00000  Uiso   1.00
H836   H     0.63553   0.02909   0.66822   0.00000  Uiso   1.00
H837   H     0.62264   0.16800   0.88386   0.00000  Uiso   1.00
H838   H     0.63793   0.17449   0.93566   0.00000  Uiso   1.00
H839   H     0.61865   0.12312   0.91407   0.00000  Uiso   1.00
H840   H     0.48898   0.21518   0.61416   0.00000  Uiso   1.00
H841   H     0.46410   0.21842   0.57155   0.00000  Uiso   1.00
H842   H     0.44258   0.17803   0.61075   0.00000  Uiso   1.00
H843   H     0.37275   0.24656   0.52604   0.00000  Uiso   1.00
H844   H     0.65181   0.14099   0.79079   0.00000  Uiso   1.00
H845   H     0.37592   0.21261   0.56733   0.00000  Uiso   1.00
H846   H     0.63255   0.18511   0.57788   0.00000  Uiso   1.00
H847   H     0.63949   0.24124   0.58726   0.00000  Uiso   1.00
H848   H     0.62849   0.21724   0.53564   0.00000  Uiso   1.00
H849   H     0.36707   0.24834   0.74571   0.00000  Uiso   1.00
H850   H     0.66392   0.25362   0.71221   0.00000  Uiso   1.00
H851   H     0.39245   0.25573   0.64396   0.00000  Uiso   1.00
H852   H     0.40089   0.29663   0.68620   0.00000  Uiso   1.00
H853   H     0.42836   0.25097   0.67801   0.00000  Uiso   1.00
H854   H     0.45524   0.32979   0.78326   0.00000  Uiso   1.00
H855   H     0.60701   0.12238   0.99218   0.00000  Uiso   1.00
H856   H     0.40479   0.19751   0.92382   0.00000  Uiso   1.00
H857   H     0.42378   0.16045   0.54228   0.00000  Uiso   1.00
H858   H     0.55732   0.18978   0.89024   0.00000  Uiso   1.00
H859   H     0.59851   0.31494   0.72842   0.00000  Uiso   1.00
H860   H     0.57955   0.02611   0.76518   0.00000  Uiso   1.00
O861   O     0.50000   0.16667   0.75000   0.00000  Uiso   1.00
O862   O     0.48784   0.12637   0.65458   0.00000  Uiso   1.00
O863   O     0.46274   0.20391   0.84968   0.00000  Uiso   1.00
O864   O     0.54157   0.17759   0.64606   0.00000  Uiso   1.00
O865   O     0.50785   0.15880   0.84968   0.00000  Uiso   1.00
O866   O     0.55299   0.00993   0.71039   0.00000  Uiso   1.00
O867   O     0.36733   0.18293   0.50658   0.00000  Uiso   1.00
O868   O     0.35658   0.19746   0.70064   0.00000  Uiso   1.00
O869   O     0.51264   0.08019   0.78213   0.00000  Uiso   1.00
O870   O     0.47965   0.26085   0.77014   0.00000  Uiso   1.00
O871   O     0.40745   0.13291   0.73413   0.00000  Uiso   1.00
O872   O     0.60026   0.19272   0.71360   0.00000  Uiso   1.00
O873   O     0.40405   0.18878   0.78213   0.00000  Uiso   1.00
O874   O     0.58824   0.15226   0.77013   0.00000  Uiso   1.00
O875   O     0.47093   0.06944   0.73413   0.00000  Uiso   1.00
O876   O     0.53678   0.25620   0.71361   0.00000  Uiso   1.00
Zn877  Zn    0.52672   0.13994   0.78734   0.00000  Uiso   1.00
Zn878  Zn    0.46713   0.12458   0.71875   0.00000  Uiso   1.00
Zn879  Zn    0.54389   0.19775   0.70657   0.00000  Uiso   1.00
Zn880  Zn    0.46226   0.20439   0.78734   0.00000  Uiso   1.00
C881   C     0.71936   0.15954   0.76025   0.00000  Uiso   1.00
C882   C     0.83507   0.16561   0.56131   0.00000  Uiso   1.00
C883   C     0.89540   0.12736   0.55550   0.00000  Uiso   1.00
C884   C     0.94759   0.17408   0.73989   0.00000  Uiso   1.00
C885   C     0.80372   0.18857   0.91995   0.00000  Uiso   1.00
C886   C     0.99387   0.17734   0.73555   0.00000  Uiso   1.00
C887   C     0.67411   0.15769   0.76373   0.00000  Uiso   1.00
C888   C     0.84991   0.32333   0.73876   0.00000  Uiso   1.00
C889   C     0.81851   0.01160   0.76287   0.00000  Uiso   1.00
C890   C     0.82255   0.05593   0.76027   0.00000  Uiso   1.00
C891   C     0.84383   0.27811   0.74052   0.00000  Uiso   1.00
C892   C     0.74442   0.18428   0.98708   0.00000  Uiso   1.00
C893   C     0.85225   0.14835   0.62940   0.00000  Uiso   1.00
C894   C     0.81556   0.18505   0.87076   0.00000  Uiso   1.00
C895   C     0.91000   0.13310   0.51018   0.00000  Uiso   1.00
C896   C     0.85906   0.14462   0.58127   0.00000  Uiso   1.00
C897   C     0.76046   0.19199   0.94215   0.00000  Uiso   1.00
C898   C     0.92132   0.01284   0.72975   0.00000  Uiso   1.00
C899   C     0.95895   0.04166   0.70362   0.00000  Uiso   1.00
C900   C     0.94799   0.15675   0.91792   0.00000  Uiso   1.00
C901   C     0.80568   0.19563   0.59081   0.00000  Uiso   1.00
C902   C     0.69361   0.21578   0.54040   0.00000  Uiso   1.00
C903   C     0.77173   0.17224   0.50980   0.00000  Uiso   1.00
C904   C     0.97881   0.21475   0.56156   0.00000  Uiso   1.00
C905   C     0.69377   0.24086   0.71221   0.00000  Uiso   1.00
C906   C     0.73123   0.26237   0.67788   0.00000  Uiso   1.00
C907   C     0.81650   0.17369   0.99021   0.00000  Uiso   1.00
C908   C     0.83247   0.18113   0.94435   0.00000  Uiso   1.00
C909   C     0.84507   0.16398   0.51386   0.00000  Uiso   1.00
C910   C     0.88602   0.15271   0.98901   0.00000  Uiso   1.00
C911   C     0.90251   0.16260   0.94409   0.00000  Uiso   1.00
C912   C     0.87647   0.17945   0.92349   0.00000  Uiso   1.00
H913   H     0.91470   0.11266   0.57127   0.00000  Uiso   1.00
H914   H     0.94949   0.07327   0.70480   0.00000  Uiso   1.00
H915   H     0.98671   0.04415   0.71851   0.00000  Uiso   1.00
H916   H     0.96886   0.02909   0.66822   0.00000  Uiso   1.00
H917   H     0.95598   0.16800   0.88386   0.00000  Uiso   1.00
H918   H     0.97126   0.17449   0.93566   0.00000  Uiso   1.00
H919   H     0.95198   0.12312   0.91407   0.00000  Uiso   1.00
H920   H     0.82232   0.21518   0.61416   0.00000  Uiso   1.00
H921   H     0.79743   0.21842   0.57155   0.00000  Uiso   1.00
H922   H     0.77591   0.17803   0.61075   0.00000  Uiso   1.00
H923   H     0.70608   0.24656   0.52604   0.00000  Uiso   1.00
H924   H     0.98515   0.14099   0.79079   0.00000  Uiso   1.00
H925   H     0.70925   0.21261   0.56733   0.00000  Uiso   1.00
H926   H     0.96589   0.18511   0.57788   0.00000  Uiso   1.00
H927   H     0.97282   0.24124   0.58726   0.00000  Uiso   1.00
H928   H     0.96182   0.21724   0.53564   0.00000  Uiso   1.00
H929   H     0.70040   0.24834   0.74571   0.00000  Uiso   1.00
H930   H     0.99725   0.25362   0.71221   0.00000  Uiso   1.00
H931   H     0.72578   0.25573   0.64396   0.00000  Uiso   1.00
H932   H     0.73422   0.29663   0.68620   0.00000  Uiso   1.00
H933   H     0.76170   0.25097   0.67801   0.00000  Uiso   1.00
H934   H     0.78857   0.32979   0.78326   0.00000  Uiso   1.00
H935   H     0.94034   0.12238   0.99218   0.00000  Uiso   1.00
H936   H     0.73812   0.19751   0.92382   0.00000  Uiso   1.00
H937   H     0.75711   0.16045   0.54228   0.00000  Uiso   1.00
H938   H     0.89065   0.18978   0.89024   0.00000  Uiso   1.00
H939   H     0.93185   0.31494   0.72842   0.00000  Uiso   1.00
H940   H     0.91288   0.02611   0.76518   0.00000  Uiso   1.00
O941   O     0.83333   0.16667   0.75000   0.00000  Uiso   1.00
O942   O     0.82118   0.12637   0.65458   0.00000  Uiso   1.00
O943   O     0.79607   0.20391   0.84968   0.00000  Uiso   1.00
O944   O     0.87491   0.17759   0.64606   0.00000  Uiso   1.00
O945   O     0.84118   0.15880   0.84968   0.00000  Uiso   1.00
O946   O     0.88632   0.00993   0.71039   0.00000  Uiso   1.00
O947   O     0.70066   0.18293   0.50658   0.00000  Uiso   1.00
O948   O     0.68991   0.19746   0.70064   0.00000  Uiso   1.00
O949   O     0.84597   0.08019   0.78213   0.00000  Uiso   1.00
O950   O     0.81298   0.26085   0.77014   0.00000  Uiso   1.00
O951   O     0.74078   0.13291   0.73413   0.00000  Uiso   1.00
O952   O     0.93360   0.19272   0.71360   0.00000  Uiso   1.00
O953   O     0.73738   0.18878   0.78213   0.00000  Uiso   1.00
O954   O     0.92158   0.15226   0.77013   0.00000  Uiso   1.00
O955   O     0.80426   0.06944   0.73413   0.00000  Uiso   1.00
O956   O     0.87012   0.25620   0.71361   0.00000  Uiso   1.00
Zn957  Zn    0.86005   0.13994   0.78734   0.00000  Uiso   1.00
Zn958  Zn    0.80046   0.12458   0.71875   0.00000  Uiso   1.00
Zn959  Zn    0.87723   0.19775   0.70657   0.00000  Uiso   1.00
Zn960  Zn    0.79560   0.20439   0.78734   0.00000  Uiso   1.00
C961   C     0.05269   0.49287   0.76025   0.00000  Uiso   1.00
C962   C     0.16840   0.49894   0.56131   0.00000  Uiso   1.00
C963   C     0.22874   0.46069   0.55550   0.00000  Uiso   1.00
C964   C     0.28093   0.50741   0.73989   0.00000  Uiso   1.00
C965   C     0.13705   0.52190   0.91995   0.00000  Uiso   1.00
C966   C     0.32720   0.51067   0.73555   0.00000  Uiso   1.00
C967   C     0.00745   0.49103   0.76373   0.00000  Uiso   1.00
C968   C     0.18324   0.65667   0.73876   0.00000  Uiso   1.00
C969   C     0.15185   0.34494   0.76287   0.00000  Uiso   1.00
C970   C     0.15588   0.38926   0.76027   0.00000  Uiso   1.00
C971   C     0.17717   0.61144   0.74052   0.00000  Uiso   1.00
C972   C     0.07776   0.51762   0.98708   0.00000  Uiso   1.00
C973   C     0.18559   0.48168   0.62940   0.00000  Uiso   1.00
C974   C     0.14889   0.51838   0.87076   0.00000  Uiso   1.00
C975   C     0.24333   0.46643   0.51018   0.00000  Uiso   1.00
C976   C     0.19239   0.47795   0.58127   0.00000  Uiso   1.00
C977   C     0.09379   0.52532   0.94215   0.00000  Uiso   1.00
C978   C     0.25465   0.34617   0.72975   0.00000  Uiso   1.00
C979   C     0.29228   0.37499   0.70362   0.00000  Uiso   1.00
C980   C     0.28132   0.49009   0.91792   0.00000  Uiso   1.00
C981   C     0.13902   0.52896   0.59081   0.00000  Uiso   1.00
C982   C     0.02695   0.54911   0.54040   0.00000  Uiso   1.00
C983   C     0.10507   0.50557   0.50980   0.00000  Uiso   1.00
C984   C     0.31214   0.54809   0.56156   0.00000  Uiso   1.00
C985   C     0.02711   0.57419   0.71221   0.00000  Uiso   1.00
C986   C     0.06457   0.59571   0.67788   0.00000  Uiso   1.00
C987   C     0.14983   0.50703   0.99021   0.00000  Uiso   1.00
C988   C     0.16581   0.51447   0.94435   0.00000  Uiso   1.00
C989   C     0.17840   0.49731   0.51386   0.00000  Uiso   1.00
C990   C     0.21935   0.48604   0.98901   0.00000  Uiso   1.00
C991   C     0.23584   0.49594   0.94409   0.00000  Uiso   1.00
C992   C     0.20981   0.51278   0.92349   0.00000  Uiso   1.00
H993   H     0.24804   0.44600   0.57127   0.00000  Uiso   1.00
H994   H     0.28282   0.40661   0.70480   0.00000  Uiso   1.00
H995   H     0.32004   0.37748   0.71851   0.00000  Uiso   1.00
H996   H     0.30219   0.36242   0.66822   0.00000  Uiso   1.00
H997   H     0.28931   0.50134   0.88386   0.00000  Uiso   1.00
H998   H     0.30459   0.50783   0.93566   0.00000  Uiso   1.00
H999   H     0.28531   0.45646   0.91407   0.00000  Uiso   1.00
H1000  H     0.15565   0.54852   0.61416   0.00000  Uiso   1.00
H1001  H     0.13076   0.55175   0.57155   0.00000  Uiso   1.00
H1002  H     0.10925   0.51136   0.61075   0.00000  Uiso   1.00
H1003  H     0.03941   0.57990   0.52604   0.00000  Uiso   1.00
H1004  H     0.31848   0.47432   0.79079   0.00000  Uiso   1.00
H1005  H     0.04259   0.54594   0.56733   0.00000  Uiso   1.00
H1006  H     0.29922   0.51844   0.57788   0.00000  Uiso   1.00
H1007  H     0.30615   0.57457   0.58726   0.00000  Uiso   1.00
H1008  H     0.29516   0.55058   0.53564   0.00000  Uiso   1.00
H1009  H     0.03374   0.58168   0.74571   0.00000  Uiso   1.00
H1010  H     0.33059   0.58696   0.71221   0.00000  Uiso   1.00
H1011  H     0.05911   0.58906   0.64396   0.00000  Uiso   1.00
H1012  H     0.06755   0.62997   0.68620   0.00000  Uiso   1.00
H1013  H     0.09503   0.58430   0.67801   0.00000  Uiso   1.00
H1014  H     0.12191   0.66312   0.78326   0.00000  Uiso   1.00
H1015  H     0.27367   0.45572   0.99218   0.00000  Uiso   1.00
H1016  H     0.07145   0.53084   0.92382   0.00000  Uiso   1.00
H1017  H     0.09044   0.49378   0.54228   0.00000  Uiso   1.00
H1018  H     0.22398   0.52311   0.89024   0.00000  Uiso   1.00
H1019  H     0.26518   0.64828   0.72842   0.00000  Uiso   1.00
H1020  H     0.24622   0.35944   0.76518   0.00000  Uiso   1.00
O1021  O     0.16667   0.50000   0.75000   0.00000  Uiso   1.00
O1022  O     0.15451   0.45970   0.65458   0.00000  Uiso   1.00
O1023  O     0.12940   0.53724   0.84968   0.00000  Uiso   1.00
O1024  O     0.20824   0.51092   0.64606   0.00000  Uiso   1.00
O1025  O     0.17451   0.49213   0.84968   0.00000  Uiso   1.00
O1026  O     0.21966   0.34327   0.71039   0.00000  Uiso   1.00
O1027  O     0.03399   0.51627   0.50658   0.00000  Uiso   1.00
O1028  O     0.02325   0.53079   0.70064   0.00000  Uiso   1.00
O1029  O     0.17930   0.41352   0.78213   0.00000  Uiso   1.00
O1030  O     0.14632   0.59418   0.77014   0.00000  Uiso   1.00
O1031  O     0.07412   0.46625   0.73413   0.00000  Uiso   1.00
O1032  O     0.26693   0.52605   0.71360   0.00000  Uiso   1.00
O1033  O     0.07071   0.52211   0.78213   0.00000  Uiso   1.00
O1034  O     0.25491   0.48559   0.77013   0.00000  Uiso   1.00
O1035  O     0.13760   0.40277   0.73413   0.00000  Uiso   1.00
O1036  O     0.20345   0.58953   0.71361   0.00000  Uiso   1.00
Zn1037 Zn    0.19338   0.47327   0.78734   0.00000  Uiso   1.00
Zn1038 Zn    0.13379   0.45791   0.71875   0.00000  Uiso   1.00
Zn1039 Zn    0.21056   0.53109   0.70657   0.00000  Uiso   1.00
Zn1040 Zn    0.12893   0.53773   0.78734   0.00000  Uiso   1.00
C1041  C     0.38603   0.49287   0.76025   0.00000  Uiso   1.00
C1042  C     0.50174   0.49894   0.56131   0.00000  Uiso   1.00
C1043  C     0.56207   0.46069   0.55550   0.00000  Uiso   1.00
C1044  C     0.61426   0.50741   0.73989   0.00000  Uiso   1.00
C1045  C     0.47038   0.52190   0.91995   0.00000  Uiso   1.00
C1046  C     0.66053   0.51067   0.73555   0.00000  Uiso   1.00
C1047  C     0.34078   0.49103   0.76373   0.00000  Uiso   1.00
C1048  C     0.51657   0.65667   0.73876   0.00000  Uiso   1.00
C1049  C     0.48518   0.34494   0.76287   0.00000  Uiso   1.00
C1050  C     0.48922   0.38926   0.76027   0.00000  Uiso   1.00
C1051  C     0.51050   0.61144   0.74052   0.00000  Uiso   1.00
C1052  C     0.41109   0.51762   0.98708   0.00000  Uiso   1.00
C1053  C     0.51892   0.48168   0.62940   0.00000  Uiso   1.00
C1054  C     0.48222   0.51838   0.87076   0.00000  Uiso   1.00
C1055  C     0.57667   0.46643   0.51018   0.00000  Uiso   1.00
C1056  C     0.52572   0.47795   0.58127   0.00000  Uiso   1.00
C1057  C     0.42713   0.52532   0.94215   0.00000  Uiso   1.00
C1058  C     0.58798   0.34617   0.72975   0.00000  Uiso   1.00
C1059  C     0.62562   0.37499   0.70362   0.00000  Uiso   1.00
C1060  C     0.61465   0.49009   0.91792   0.00000  Uiso   1.00
C1061  C     0.47235   0.52896   0.59081   0.00000  Uiso   1.00
C1062  C     0.36028   0.54911   0.54040   0.00000  Uiso   1.00
C1063  C     0.43840   0.50557   0.50980   0.00000  Uiso   1.00
C1064  C     0.64548   0.54809   0.56156   0.00000  Uiso   1.00
C1065  C     0.36044   0.57419   0.71221   0.00000  Uiso   1.00
C1066  C     0.39790   0.59571   0.67788   0.00000  Uiso   1.00
C1067  C     0.48316   0.50703   0.99021   0.00000  Uiso   1.00
C1068  C     0.49914   0.51447   0.94435   0.00000  Uiso   1.00
C1069  C     0.51174   0.49731   0.51386   0.00000  Uiso   1.00
C1070  C     0.55269   0.48604   0.98901   0.00000  Uiso   1.00
C1071  C     0.56918   0.49594   0.94409   0.00000  Uiso   1.00
C1072  C     0.54314   0.51278   0.92349   0.00000  Uiso   1.00
H1073  H     0.58137   0.44600   0.57127   0.00000  Uiso   1.00
H1074  H     0.61616   0.40661   0.70480   0.00000  Uiso   1.00
H1075  H     0.65337   0.37748   0.71851   0.00000  Uiso   1.00
H1076  H     0.63553   0.36242   0.66822   0.00000  Uiso   1.00
H1077  H     0.62264   0.50134   0.88386   0.00000  Uiso   1.00
H1078  H     0.63793   0.50783   0.93566   0.00000  Uiso   1.00
H1079  H     0.61865   0.45646   0.91407   0.00000  Uiso   1.00
H1080  H     0.48898   0.54852   0.61416   0.00000  Uiso   1.00
H1081  H     0.46410   0.55175   0.57155   0.00000  Uiso   1.00
H1082  H     0.44258   0.51136   0.61075   0.00000  Uiso   1.00
H1083  H     0.37275   0.57990   0.52604   0.00000  Uiso   1.00
H1084  H     0.65181   0.47432   0.79079   0.00000  Uiso   1.00
H1085  H     0.37592   0.54594   0.56733   0.00000  Uiso   1.00
H1086  H     0.63255   0.51844   0.57788   0.00000  Uiso   1.00
H1087  H     0.63949   0.57457   0.58726   0.00000  Uiso   1.00
H1088  H     0.62849   0.55058   0.53564   0.00000  Uiso   1.00
H1089  H     0.36707   0.58168   0.74571   0.00000  Uiso   1.00
H1090  H     0.66392   0.58696   0.71221   0.00000  Uiso   1.00
H1091  H     0.39245   0.58906   0.64396   0.00000  Uiso   1.00
H1092  H     0.40089   0.62997   0.68620   0.00000  Uiso   1.00
H1093  H     0.42836   0.58430   0.67801   0.00000  Uiso   1.00
H1094  H     0.45524   0.66312   0.78326   0.00000  Uiso   1.00
H1095  H     0.60701   0.45572   0.99218   0.00000  Uiso   1.00
H1096  H     0.40479   0.53084   0.92382   0.00000  Uiso   1.00
H1097  H     0.42378   0.49378   0.54228   0.00000  Uiso   1.00
H1098  H     0.55732   0.52311   0.89024   0.00000  Uiso   1.00
H1099  H     0.59851   0.64828   0.72842   0.00000  Uiso   1.00
H1100  H     0.57955   0.35944   0.76518   0.00000  Uiso   1.00
O1101  O     0.50000   0.50000   0.75000   0.00000  Uiso   1.00
O1102  O     0.48784   0.45970   0.65458   0.00000  Uiso   1.00
O1103  O     0.46274   0.53724   0.84968   0.00000  Uiso   1.00
O1104  O     0.54157   0.51092   0.64606   0.00000  Uiso   1.00
O1105  O     0.50785   0.49213   0.84968   0.00000  Uiso   1.00
O1106  O     0.55299   0.34327   0.71039   0.00000  Uiso   1.00
O1107  O     0.36733   0.51627   0.50658   0.00000  Uiso   1.00
O1108  O     0.35658   0.53079   0.70064   0.00000  Uiso   1.00
O1109  O     0.51264   0.41352   0.78213   0.00000  Uiso   1.00
O1110  O     0.47965   0.59418   0.77014   0.00000  Uiso   1.00
O1111  O     0.40745   0.46625   0.73413   0.00000  Uiso   1.00
O1112  O     0.60026   0.52605   0.71360   0.00000  Uiso   1.00
O1113  O     0.40405   0.52211   0.78213   0.00000  Uiso   1.00
O1114  O     0.58824   0.48559   0.77013   0.00000  Uiso   1.00
O1115  O     0.47093   0.40277   0.73413   0.00000  Uiso   1.00
O1116  O     0.53678   0.58953   0.71361   0.00000  Uiso   1.00
Zn1117 Zn    0.52672   0.47327   0.78734   0.00000  Uiso   1.00
Zn1118 Zn    0.46713   0.45791   0.71875   0.00000  Uiso   1.00
Zn1119 Zn    0.54389   0.53109   0.70657   0.00000  Uiso   1.00
Zn1120 Zn    0.46226   0.53773   0.78734   0.00000  Uiso   1.00
C1121  C     0.71936   0.49287   0.76025   0.00000  Uiso   1.00
C1122  C     0.83507   0.49894   0.56131   0.00000  Uiso   1.00
C1123  C     0.89540   0.46069   0.55550   0.00000  Uiso   1.00
C1124  C     0.94759   0.50741   0.73989   0.00000  Uiso   1.00
C1125  C     0.80372   0.52190   0.91995   0.00000  Uiso   1.00
C1126  C     0.99387   0.51067   0.73555   0.00000  Uiso   1.00
C1127  C     0.67411   0.49103   0.76373   0.00000  Uiso   1.00
C1128  C     0.84991   0.65667   0.73876   0.00000  Uiso   1.00
C1129  C     0.81851   0.34494   0.76287   0.00000  Uiso   1.00
C1130  C     0.82255   0.38926   0.76027   0.00000  Uiso   1.00
C1131  C     0.84383   0.61144   0.74052   0.00000  Uiso   1.00
C1132  C     0.74442   0.51762   0.98708   0.00000  Uiso   1.00
C1133  C     0.85225   0.48168   0.62940   0.00000  Uiso   1.00
C1134  C     0.81556   0.51838   0.87076   0.00000  Uiso   1.00
C1135  C     0.91000   0.46643   0.51018   0.00000  Uiso   1.00
C1136  C     0.85906   0.47795   0.58127   0.00000  Uiso   1.00
C1137  C     0.76046   0.52532   0.94215   0.00000  Uiso   1.00
C1138  C     0.92132   0.34617   0.72975   0.00000  Uiso   1.00
C1139  C     0.95895   0.37499   0.70362   0.00000  Uiso   1.00
C1140  C     0.94799   0.49009   0.91792   0.00000  Uiso   1.00
C1141  C     0.80568   0.52896   0.59081   0.00000  Uiso   1.00
C1142  C     0.69361   0.54911   0.54040   0.00000  Uiso   1.00
C1143  C     0.77173   0.50557   0.50980   0.00000  Uiso   1.00
C1144  C     0.97881   0.54809   0.56156   0.00000  Uiso   1.00
C1145  C     0.69377   0.57419   0.71221   0.00000  Uiso   1.00
C1146  C     0.73123   0.59571   0.67788   0.00000  Uiso   1.00
C1147  C     0.81650   0.50703   0.99021   0.00000  Uiso   1.00
C1148  C     0.83247   0.51447   0.94435   0.00000  Uiso   1.00
C1149  C     0.84507   0.49731   0.51386   0.00000  Uiso   1.00
C1150  C     0.88602   0.48604   0.98901   0.00000  Uiso   1.00
C1151  C     0.90251   0.49594   0.94409   0.00000  Uiso   1.00
C1152  C     0.87647   0.51278   0.92349   0.00000  Uiso   1.00
H1153  H     0.91470   0.44600   0.57127   0.00000  Uiso   1.00
H1154  H     0.94949   0.40661   0.70480   0.00000  Uiso   1.00
H1155  H     0.98671   0.37748   0.71851   0.00000  Uiso   1.00
H1156  H     0.96886   0.36242   0.66822   0.00000  Uiso   1.00
H1157  H     0.95598   0.50134   0.88386   0.00000  Uiso   1.00
H1158  H     0.97126   0.50783   0.93566   0.00000  Uiso   1.00
H1159  H     0.95198   0.45646   0.91407   0.00000  Uiso   1.00
H1160  H     0.82232   0.54852   0.61416   0.00000  Uiso   1.00
H1161  H     0.79743   0.55175   0.57155   0.00000  Uiso   1.00
H1162  H     0.77591   0.51136   0.61075   0.00000  Uiso   1.00
H1163  H     0.70608   0.57990   0.52604   0.00000  Uiso   1.00
H1164  H     0.98515   0.47432   0.79079   0.00000  Uiso   1.00
H1165  H     0.70925   0.54594   0.56733   0.00000  Uiso   1.00
H1166  H     0.96589   0.51844   0.57788   0.00000  Uiso   1.00
H1167  H     0.97282   0.57457   0.58726   0.00000  Uiso   1.00
H1168  H     0.96182   0.55058   0.53564   0.00000  Uiso   1.00
H1169  H     0.70040   0.58168   0.74571   0.00000  Uiso   1.00
H1170  H     0.99725   0.58696   0.71221   0.00000  Uiso   1.00
H1171  H     0.72578   0.58906   0.64396   0.00000  Uiso   1.00
H1172  H     0.73422   0.62997   0.68620   0.00000  Uiso   1.00
H1173  H     0.76170   0.58430   0.67801   0.00000  Uiso   1.00
H1174  H     0.78857   0.66312   0.78326   0.00000  Uiso   1.00
H1175  H     0.94034   0.45572   0.99218   0.00000  Uiso   1.00
H1176  H     0.73812   0.53084   0.92382   0.00000  Uiso   1.00
H1177  H     0.75711   0.49378   0.54228   0.00000  Uiso   1.00
H1178  H     0.89065   0.52311   0.89024   0.00000  Uiso   1.00
H1179  H     0.93185   0.64828   0.72842   0.00000  Uiso   1.00
H1180  H     0.91288   0.35944   0.76518   0.00000  Uiso   1.00
O1181  O     0.83333   0.50000   0.75000   0.00000  Uiso   1.00
O1182  O     0.82118   0.45970   0.65458   0.00000  Uiso   1.00
O1183  O     0.79607   0.53724   0.84968   0.00000  Uiso   1.00
O1184  O     0.87491   0.51092   0.64606   0.00000  Uiso   1.00
O1185  O     0.84118   0.49213   0.84968   0.00000  Uiso   1.00
O1186  O     0.88632   0.34327   0.71039   0.00000  Uiso   1.00
O1187  O     0.70066   0.51627   0.50658   0.00000  Uiso   1.00
O1188  O     0.68991   0.53079   0.70064   0.00000  Uiso   1.00
O1189  O     0.84597   0.41352   0.78213   0.00000  Uiso   1.00
O1190  O     0.81298   0.59418   0.77014   0.00000  Uiso   1.00
O1191  O     0.74078   0.46625   0.73413   0.00000  Uiso   1.00
O1192  O     0.93360   0.52605   0.71360   0.00000  Uiso   1.00
O1193  O     0.73738   0.52211   0.78213   0.00000  Uiso   1.00
O1194  O     0.92158   0.48559   0.77013   0.00000  Uiso   1.00
O1195  O     0.80426   0.40277   0.73413   0.00000  Uiso   1.00
O1196  O     0.87012   0.58953   0.71361   0.00000  Uiso   1.00
Zn1197 Zn    0.86005   0.47327   0.78734   0.00000  Uiso   1.00
Zn1198 Zn    0.80046   0.45791   0.71875   0.00000  Uiso   1.00
Zn1199 Zn    0.87723   0.53109   0.70657   0.00000  Uiso   1.00
Zn1200 Zn    0.79560   0.53773   0.78734   0.00000  Uiso   1.00
C1201  C     0.05269   0.82620   0.76025   0.00000  Uiso   1.00
C1202  C     0.16840   0.83228   0.56131   0.00000  Uiso   1.00
C1203  C     0.22874   0.79403   0.55550   0.00000  Uiso   1.00
C1204  C     0.28093   0.84075   0.73989   0.00000  Uiso   1.00
C1205  C     0.13705   0.85524   0.91995   0.00000  Uiso   1.00
C1206  C     0.32720   0.84401   0.73555   0.00000  Uiso   1.00
C1207  C     0.00745   0.82436   0.76373   0.00000  Uiso   1.00
C1208  C     0.18324   0.99000   0.73876   0.00000  Uiso   1.00
C1209  C     0.15185   0.67827   0.76287   0.00000  Uiso   1.00
C1210  C     0.15588   0.72260   0.76027   0.00000  Uiso   1.00
C1211  C     0.17717   0.94478   0.74052   0.00000  Uiso   1.00
C1212  C     0.07776   0.85095   0.98708   0.00000  Uiso   1.00
C1213  C     0.18559   0.81501   0.62940   0.00000  Uiso   1.00
C1214  C     0.14889   0.85171   0.87076   0.00000  Uiso   1.00
C1215  C     0.24333   0.79976   0.51018   0.00000  Uiso   1.00
C1216  C     0.19239   0.81129   0.58127   0.00000  Uiso   1.00
C1217  C     0.09379   0.85866   0.94215   0.00000  Uiso   1.00
C1218  C     0.25465   0.67950   0.72975   0.00000  Uiso   1.00
C1219  C     0.29228   0.70832   0.70362   0.00000  Uiso   1.00
C1220  C     0.28132   0.82342   0.91792   0.00000  Uiso   1.00
C1221  C     0.13902   0.86230   0.59081   0.00000  Uiso   1.00
C1222  C     0.02695   0.88245   0.54040   0.00000  Uiso   1.00
C1223  C     0.10507   0.83891   0.50980   0.00000  Uiso   1.00
C1224  C     0.31214   0.88142   0.56156   0.00000  Uiso   1.00
C1225  C     0.02711   0.90752   0.71221   0.00000  Uiso   1.00
C1226  C     0.06457   0.92904   0.67788   0.00000  Uiso   1.00
C1227  C     0.14983   0.84036   0.99021   0.00000  Uiso   1.00
C1228  C     0.16581   0.84780   0.94435   0.00000  Uiso   1.00
C1229  C     0.17840   0.83065   0.51386   0.00000  Uiso   1.00
C1230  C     0.21935   0.81937   0.98901   0.00000  Uiso   1.00
C1231  C     0.23584   0.82927   0.94409   0.00000  Uiso   1.00
C1232  C     0.20981   0.84611   0.92349   0.00000  Uiso   1.00
H1233  H     0.24804   0.77933   0.57127   0.00000  Uiso   1.00
H1234  H     0.28282   0.73994   0.70480   0.00000  Uiso   1.00
H1235  H     0.32004   0.71082   0.71851   0.00000  Uiso   1.00
H1236  H     0.30219   0.69576   0.66822   0.00000  Uiso   1.00
H1237  H     0.28931   0.83467   0.88386   0.00000  Uiso   1.00
H1238  H     0.30459   0.84116   0.93566   0.00000  Uiso   1.00
H1239  H     0.28531   0.78979   0.91407   0.00000  Uiso   1.00
H1240  H     0.15565   0.88185   0.61416   0.00000  Uiso   1.00
H1241  H     0.13076   0.88509   0.57155   0.00000  Uiso   1.00
H1242  H     0.10925   0.84469   0.61075   0.00000  Uiso   1.00
H1243  H     0.03941   0.91323   0.52604   0.00000  Uiso   1.00
H1244  H     0.31848   0.80766   0.79079   0.00000  Uiso   1.00
H1245  H     0.04259   0.87928   0.56733   0.00000  Uiso   1.00
H1246  H     0.29922   0.85178   0.57788   0.00000  Uiso   1.00
H1247  H     0.30615   0.90790   0.58726   0.00000  Uiso   1.00
H1248  H     0.29516   0.88391   0.53564   0.00000  Uiso   1.00
H1249  H     0.03374   0.91501   0.74571   0.00000  Uiso   1.00
H1250  H     0.33059   0.92029   0.71221   0.00000  Uiso   1.00
H1251  H     0.05911   0.92239   0.64396   0.00000  Uiso   1.00
H1252  H     0.06755   0.96330   0.68620   0.00000  Uiso   1.00
H1253  H     0.09503   0.91763   0.67801   0.00000  Uiso   1.00
H1254  H     0.12191   0.99646   0.78326   0.00000  Uiso   1.00
H1255  H     0.27367   0.78905   0.99218   0.00000  Uiso   1.00
H1256  H     0.07145   0.86418   0.92382   0.00000  Uiso   1.00
H1257  H     0.09044   0.82711   0.54228   0.00000  Uiso   1.00
H1258  H     0.22398   0.85645   0.89024   0.00000  Uiso   1.00
H1259  H     0.26518   0.98161   0.72842   0.00000  Uiso   1.00
H1260  H     0.24622   0.69278   0.76518   0.00000  Uiso   1.00
O1261  O     0.16667   0.83333   0.75000   0.00000  Uiso   1.00
O1262  O     0.15451   0.79304   0.65458   0.00000  Uiso   1.00
O1263  O     0.12940   0.87058   0.84968   0.00000  Uiso   1.00
O1264  O     0.20824   0.84425   0.64606   0.00000  Uiso   1.00
O1265  O     0.17451   0.82546   0.84968   0.00000  Uiso   1.00
O1266  O     0.21966   0.67660   0.71039   0.00000  Uiso   1.00
O1267  O     0.03399   0.84960   0.50658   0.00000  Uiso   1.00
O1268  O     0.02325   0.86413   0.70064   0.00000  Uiso   1.00
O1269  O     0.17930   0.74686   0.78213   0.00000  Uiso   1.00
O1270  O     0.14632   0.92751   0.77014   0.00000  Uiso   1.00
O1271  O     0.07412   0.79958   0.73413   0.00000  Uiso   1.00
O1272  O     0.26693   0.85939   0.71360   0.00000  Uiso   1.00
O1273  O     0.07071   0.85544   0.78213   0.00000  Uiso   1.00
O1274  O     0.25491   0.81892   0.77013   0.00000  Uiso   1.00
O1275  O     0.13760   0.73610   0.73413   0.00000  Uiso   1.00
O1276  O     0.20345   0.92286   0.71361   0.00000  Uiso   1.00
Zn1277 Zn    0.19338   0.80661   0.78734   0.00000  Uiso   1.00
Zn1278 Zn    0.13379   0.79124   0.71875   0.00000  Uiso   1.00
Zn1279 Zn    0.21056   0.86442   0.70657   0.00000  Uiso   1.00
Zn1280 Zn    0.12893   0.87106   0.78734   0.00000  Uiso   1.00
C1281  C     0.38603   0.82620   0.76025   0.00000  Uiso   1.00
C1282  C     0.50174   0.83228   0.56131   0.00000  Uiso   1.00
C1283  C     0.56207   0.79403   0.55550   0.00000  Uiso   1.00
C1284  C     0.61426   0.84075   0.73989   0.00000  Uiso   1.00
C1285  C     0.47038   0.85524   0.91995   0.00000  Uiso   1.00
C1286  C     0.66053   0.84401   0.73555   0.00000  Uiso   1.00
C1287  C     0.34078   0.82436   0.76373   0.00000  Uiso   1.00
C1288  C     0.51657   0.99000   0.73876   0.00000  Uiso   1.00
C1289  C     0.48518   0.67827   0.76287   0.00000  Uiso   1.00
C1290  C     0.48922   0.72260   0.76027   0.00000  Uiso   1.00
C1291  C     0.51050   0.94478   0.74052   0.00000  Uiso   1.00
C1292  C     0.41109   0.85095   0.98708   0.00000  Uiso   1.00
C1293  C     0.51892   0.81501   0.62940   0.00000  Uiso   1.00
C1294  C     0.48222   0.85171   0.87076   0.00000  Uiso   1.00
C1295  C     0.57667   0.79976   0.51018   0.00000  Uiso   1.00
C1296  C     0.52572   0.81129   0.58127   0.00000  Uiso   1.00
C1297  C     0.42713   0.85866   0.94215   0.00000  Uiso   1.00
C1298  C     0.58798   0.67950   0.72975   0.00000  Uiso   1.00
C1299  C     0.62562   0.70832   0.70362   0.00000  Uiso   1.00
C1300  C     0.61465   0.82342   0.91792   0.00000  Uiso   1.00
C1301  C     0.47235   0.86230   0.59081   0.00000  Uiso   1.00
C1302  C     0.36028   0.88245   0.54040   0.00000  Uiso   1.00
C1303  C     0.43840   0.83891   0.50980   0.00000  Uiso   1.00
C1304  C     0.64548   0.88142   0.56156   0.00000  Uiso   1.00
C1305  C     0.36044   0.90752   0.71221   0.00000  Uiso   1.00
C1306  C     0.39790   0.92904   0.67788   0.00000  Uiso   1.00
C1307  C     0.48316   0.84036   0.99021   0.00000  Uiso   1.00
C1308  C     0.49914   0.84780   0.94435   0.00000  Uiso   1.00
C1309  C     0.51174   0.83065   0.51386   0.00000  Uiso   1.00
C1310  C     0.55269   0.81937   0.98901   0.00000  Uiso   1.00
C1311  C     0.56918   0.82927   0.94409   0.00000  Uiso   1.00
C1312  C     0.54314   0.84611   0.92349   0.00000  Uiso   1.00
H1313  H     0.58137   0.77933   0.57127   0.00000  Uiso   1.00
H1314  H     0.61616   0.73994   0.70480   0.00000  Uiso   1.00
H1315  H     0.65337   0.71082   0.71851   0.00000  Uiso   1.00
H1316  H     0.63553   0.69576   0.66822   0.00000  Uiso   1.00
H1317  H     0.62264   0.83467   0.88386   0.00000  Uiso   1.00
H1318  H     0.63793   0.84116   0.93566   0.00000  Uiso   1.00
H1319  H     0.61865   0.78979   0.91407   0.00000  Uiso   1.00
H1320  H     0.48898   0.88185   0.61416   0.00000  Uiso   1.00
H1321  H     0.46410   0.88509   0.57155   0.00000  Uiso   1.00
H1322  H     0.44258   0.84469   0.61075   0.00000  Uiso   1.00
H1323  H     0.37275   0.91323   0.52604   0.00000  Uiso   1.00
H1324  H     0.65181   0.80766   0.79079   0.00000  Uiso   1.00
H1325  H     0.37592   0.87928   0.56733   0.00000  Uiso   1.00
H1326  H     0.63255   0.85178   0.57788   0.00000  Uiso   1.00
H1327  H     0.63949   0.90790   0.58726   0.00000  Uiso   1.00
H1328  H     0.62849   0.88391   0.53564   0.00000  Uiso   1.00
H1329  H     0.36707   0.91501   0.74571   0.00000  Uiso   1.00
H1330  H     0.66392   0.92029   0.71221   0.00000  Uiso   1.00
H1331  H     0.39245   0.92239   0.64396   0.00000  Uiso   1.00
H1332  H     0.40089   0.96330   0.68620   0.00000  Uiso   1.00
H1333  H     0.42836   0.91763   0.67801   0.00000  Uiso   1.00
H1334  H     0.45524   0.99646   0.78326   0.00000  Uiso   1.00
H1335  H     0.60701   0.78905   0.99218   0.00000  Uiso   1.00
H1336  H     0.40479   0.86418   0.92382   0.00000  Uiso   1.00
H1337  H     0.42378   0.82711   0.54228   0.00000  Uiso   1.00
H1338  H     0.55732   0.85645   0.89024   0.00000  Uiso   1.00
H1339  H     0.59851   0.98161   0.72842   0.00000  Uiso   1.00
H1340  H     0.57955   0.69278   0.76518   0.00000  Uiso   1.00
O1341  O     0.50000   0.83333   0.75000   0.00000  Uiso   1.00
O1342  O     0.48784   0.79304   0.65458   0.00000  Uiso   1.00
O1343  O     0.46274   0.87058   0.84968   0.00000  Uiso   1.00
O1344  O     0.54157   0.84425   0.64606   0.00000  Uiso   1.00
O1345  O     0.50785   0.82546   0.84968   0.00000  Uiso   1.00
O1346  O     0.55299   0.67660   0.71039   0.00000  Uiso   1.00
O1347  O     0.36733   0.84960   0.50658   0.00000  Uiso   1.00
O1348  O     0.35658   0.86413   0.70064   0.00000  Uiso   1.00
O1349  O     0.51264   0.74686   0.78213   0.00000  Uiso   1.00
O1350  O     0.47965   0.92751   0.77014   0.00000  Uiso   1.00
O1351  O     0.40745   0.79958   0.73413   0.00000  Uiso   1.00
O1352  O     0.60026   0.85939   0.71360   0.00000  Uiso   1.00
O1353  O     0.40405   0.85544   0.78213   0.00000  Uiso   1.00
O1354  O     0.58824   0.81892   0.77013   0.00000  Uiso   1.00
O1355  O     0.47093   0.73610   0.73413   0.00000  Uiso   1.00
O1356  O     0.53678   0.92286   0.71361   0.00000  Uiso   1.00
Zn1357 Zn    0.52672   0.80661   0.78734   0.00000  Uiso   1.00
Zn1358 Zn    0.46713   0.79124   0.71875   0.00000  Uiso   1.00
Zn1359 Zn    0.54389   0.86442   0.70657   0.00000  Uiso   1.00
Zn1360 Zn    0.46226   0.87106   0.78734   0.00000  Uiso   1.00
C1361  C     0.71936   0.82620   0.76025   0.00000  Uiso   1.00
C1362  C     0.83507   0.83228   0.56131   0.00000  Uiso   1.00
C1363  C     0.89540   0.79403   0.55550   0.00000  Uiso   1.00
C1364  C     0.94759   0.84075   0.73989   0.00000  Uiso   1.00
C1365  C     0.80372   0.85524   0.91995   0.00000  Uiso   1.00
C1366  C     0.99387   0.84401   0.73555   0.00000  Uiso   1.00
C1367  C     0.67411   0.82436   0.76373   0.00000  Uiso   1.00
C1368  C     0.84991   0.99000   0.73876   0.00000  Uiso   1.00
C1369  C     0.81851   0.67827   0.76287   0.00000  Uiso   1.00
C1370  C     0.82255   0.72260   0.76027   0.00000  Uiso   1.00
C1371  C     0.84383   0.94478   0.74052   0.00000  Uiso   1.00
C1372  C     0.74442   0.85095   0.98708   0.00000  Uiso   1.00
C1373  C     0.85225   0.81501   0.62940   0.00000  Uiso   1.00
C1374  C     0.81556   0.85171   0.87076   0.00000  Uiso   1.00
C1375  C     0.91000   0.79976   0.51018   0.00000  Uiso   1.00
C1376  C     0.85906   0.81129   0.58127   0.00000  Uiso   1.00
C1377  C     0.76046   0.85866   0.94215   0.00000  Uiso   1.00
C1378  C     0.92132   0.67950   0.72975   0.00000  Uiso   1.00
C1379  C     0.95895   0.70832   0.70362   0.00000  Uiso   1.00
C1380  C     0.94799   0.82342   0.91792   0.00000  Uiso   1.00
C1381  C     0.80568   0.86230   0.59081   0.00000  Uiso   1.00
C1382  C     0.69361   0.88245   0.54040   0.00000  Uiso   1.00
C1383  C     0.77173   0.83891   0.50980   0.00000  Uiso   1.00
C1384  C     0.97881   0.88142   0.56156   0.00000  Uiso   1.00
C1385  C     0.69377   0.90752   0.71221   0.00000  Uiso   1.00
C1386  C     0.73123   0.92904   0.67788   0.00000  Uiso   1.00
C1387  C     0.81650   0.84036   0.99021   0.00000  Uiso   1.00
C1388  C     0.83247   0.84780   0.94435   0.00000  Uiso   1.00
C1389  C     0.84507   0.83065   0.51386   0.00000  Uiso   1.00
C1390  C     0.88602   0.81937   0.98901   0.00000  Uiso   1.00
C1391  C     0.90251   0.82927   0.94409   0.00000  Uiso   1.00
C1392  C     0.87647   0.84611   0.92349   0.00000  Uiso   1.00
H1393  H     0.91470   0.77933   0.57127   0.00000  Uiso   1.00
H1394  H     0.94949   0.73994   0.70480   0.00000  Uiso   1.00
H1395  H     0.98671   0.71082   0.71851   0.00000  Uiso   1.00
H1396  H     0.96886   0.69576   0.66822   0.00000  Uiso   1.00
H1397  H     0.95598   0.83467   0.88386   0.00000  Uiso   1.00
H1398  H     0.97126   0.84116   0.93566   0.00000  Uiso   1.00
H1399  H     0.95198   0.78979   0.91407   0.00000  Uiso   1.00
H1400  H     0.82232   0.88185   0.61416   0.00000  Uiso   1.00
H1401  H     0.79743   0.88509   0.57155   0.00000  Uiso   1.00
H1402  H     0.77591   0.84469   0.61075   0.00000  Uiso   1.00
H1403  H     0.70608   0.91323   0.52604   0.00000  Uiso   1.00
H1404  H     0.98515   0.80766   0.79079   0.00000  Uiso   1.00
H1405  H     0.70925   0.87928   0.56733   0.00000  Uiso   1.00
H1406  H     0.96589   0.85178   0.57788   0.00000  Uiso   1.00
H1407  H     0.97282   0.90790   0.58726   0.00000  Uiso   1.00
H1408  H     0.96182   0.88391   0.53564   0.00000  Uiso   1.00
H1409  H     0.70040   0.91501   0.74571   0.00000  Uiso   1.00
H1410  H     0.99725   0.92029   0.71221   0.00000  Uiso   1.00
H1411  H     0.72578   0.92239   0.64396   0.00000  Uiso   1.00
H1412  H     0.73422   0.96330   0.68620   0.00000  Uiso   1.00
H1413  H     0.76170   0.91763   0.67801   0.00000  Uiso   1.00
H1414  H     0.78857   0.99646   0.78326   0.00000  Uiso   1.00
H1415  H     0.94034   0.78905   0.99218   0.00000  Uiso   1.00
H1416  H     0.73812   0.86418   0.92382   0.00000  Uiso   1.00
H1417  H     0.75711   0.82711   0.54228   0.00000  Uiso   1.00
H1418  H     0.89065   0.85645   0.89024   0.00000  Uiso   1.00
H1419  H     0.93185   0.98161   0.72842   0.00000  Uiso   1.00
H1420  H     0.91288   0.69278   0.76518   0.00000  Uiso   1.00
O1421  O     0.83333   0.83333   0.75000   0.00000  Uiso   1.00
O1422  O     0.82118   0.79304   0.65458   0.00000  Uiso   1.00
O1423  O     0.79607   0.87058   0.84968   0.00000  Uiso   1.00
O1424  O     0.87491   0.84425   0.64606   0.00000  Uiso   1.00
O1425  O     0.84118   0.82546   0.84968   0.00000  Uiso   1.00
O1426  O     0.88632   0.67660   0.71039   0.00000  Uiso   1.00
O1427  O     0.70066   0.84960   0.50658   0.00000  Uiso   1.00
O1428  O     0.68991   0.86413   0.70064   0.00000  Uiso   1.00
O1429  O     0.84597   0.74686   0.78213   0.00000  Uiso   1.00
O1430  O     0.81298   0.92751   0.77014   0.00000  Uiso   1.00
O1431  O     0.74078   0.79958   0.73413   0.00000  Uiso   1.00
O1432  O     0.93360   0.85939   0.71360   0.00000  Uiso   1.00
O1433  O     0.73738   0.85544   0.78213   0.00000  Uiso   1.00
O1434  O     0.92158   0.81892   0.77013   0.00000  Uiso   1.00
O1435  O     0.80426   0.73610   0.73413   0.00000  Uiso   1.00
O1436  O     0.87012   0.92286   0.71361   0.00000  Uiso   1.00
Zn1437 Zn    0.86005   0.80661   0.78734   0.00000  Uiso   1.00
Zn1438 Zn    0.80046   0.79124   0.71875   0.00000  Uiso   1.00
Zn1439 Zn    0.87723   0.86442   0.70657   0.00000  Uiso   1.00
Zn1440 Zn    0.79560   0.87106   0.78734   0.00000  Uiso   1.00
loop_
_geom_bond_atom_site_label_1
_geom_bond_atom_site_label_2
_geom_bond_distance
_geom_bond_site_symmetry_2
_ccdc_geom_bond_type
C1     O71     1.271   .     A
C1     C7      1.438   .     S
C1     O73     1.271   .     A
C2     C29     1.421   .     A
C2     C16     1.408   .     A
C2     C21     1.522   .     S
C3     H33     1.084   .     S
C3     C15     1.385   .     A
C3     C16     1.394   .     A
C4     O74     1.280   .     A
C4     C6      1.462   .     S
C4     O72     1.281   .     A
C5     C17     1.404   .     A
C5     C28     1.417   .     A
C5     C14     1.471   .     S
C6     C87     1.340   .     S
C6     O148    1.387   .     S
C7     C166    1.340   1_455 S
C7     H204    1.086   1_455 S
C8     C11     1.458   .     S
C8     C249    1.336   .     S
C8     O306    1.388   .     S
C9     C10     1.436   .     S
C9     C488    1.336   1_545 S
C9     H534    1.087   1_545 S
C10    O75     1.278   .     A
C10    O69     1.283   .     A
C11    O70     1.270   .     A
C11    O76     1.267   .     A
C12    C17     1.391   .     A
C12    C743    1.398   .     S
C12    O787    1.383   .     S
C13    O64     1.265   .     A
C13    O62     1.273   .     A
C13    C16     1.449   .     S
C14    O63     1.282   .     A
C14    O65     1.284   .     A
C15    C750    1.405   1_554 S
C15    H775    1.082   1_554 S
C17    H56     1.084   .     S
C18    C19     1.521   .     S
C18    H60     1.116   .     S
C18    O66     1.413   .     S
C18    H539    1.113   1_545 S
C19    H34     1.111   .     S
C19    H36     1.111   .     S
C19    H35     1.111   .     S
C20    H39     1.110   .     S
C20    H38     1.111   .     S
C20    H37     1.111   .     S
C20    C31     1.511   .     S
C21    H41     1.108   .     S
C21    H40     1.110   .     S
C21    H42     1.110   .     S
C22    H43     1.115   .     S
C22    O67     1.413   .     S
C22    H45     1.114   .     S
C22    C184    1.521   1_455 S
C23    H57     1.080   .     S
C23    C732    1.398   1_554 S
C23    C747    1.413   1_554 S
C24    H48     1.111   .     S
C24    H47     1.111   .     S
C24    H46     1.110   .     S
C24    C102    1.521   .     S
C25    O68     1.412   .     S
C25    C26     1.521   .     S
C25    H49     1.116   .     S
C25    H210    1.113   1_455 S
C26    H52     1.111   .     S
C26    H53     1.111   .     S
C26    H51     1.111   .     S
C27    C28     1.415   .     A
C27    C743    1.413   .     S
C27    C749    1.421   .     S
C28    C32     1.408   .     A
C29    C747    1.421   1_554 S
C29    C750    1.426   1_554 S
C30    C31     1.410   .     A
C30    C735    1.405   .     S
C30    C749    1.426   .     S
C31    C32     1.394   .     A
C32    H58     1.081   .     S
H44    C87     1.086   .     S
H50    C105    1.113   .     S
H54    C249    1.087   .     S
H55    C735    1.082   .     S
H59    C258    1.113   .     S
O61    Zn80    1.931   .     S
O61    Zn77    1.967   .     S
O61    Zn78    1.946   .     S
O61    Zn79    1.924   .     S
O62    Zn78    1.932   .     S
O63    Zn80    1.948   .     S
O64    Zn79    1.943   .     S
O65    Zn77    1.930   .     S
O66    C488    1.388   1_545 S
O67    C732    1.383   1_554 S
O68    C166    1.387   1_455 S
O69    Zn77    1.925   .     S
O70    Zn80    1.926   .     S
O71    Zn78    1.923   .     S
O72    Zn79    1.938   .     S
O73    Zn80    1.930   .     S
O74    Zn77    1.916   .     S
O75    Zn78    1.936   .     S
O76    Zn79    1.930   .     S
C81    O151    1.271   .     A
C81    C87     1.438   .     S
C81    O153    1.271   .     A
C82    C109    1.421   .     A
C82    C96     1.408   .     A
C82    C101    1.522   .     S
C83    H113    1.084   .     S
C83    C95     1.385   .     A
C83    C96     1.394   .     A
C84    O154    1.280   .     A
C84    C86     1.462   .     S
C84    O152    1.281   .     A
C85    C97     1.404   .     A
C85    C108    1.417   .     A
C85    C94     1.471   .     S
C86    C167    1.340   .     S
C86    O228    1.387   .     S
C88    C91     1.458   .     S
C88    C329    1.336   .     S
C88    O386    1.388   .     S
C89    C90     1.436   .     S
C89    C568    1.336   1_545 S
C89    H614    1.087   1_545 S
C90    O155    1.278   .     A
C90    O149    1.283   .     A
C91    O150    1.270   .     A
C91    O156    1.267   .     A
C92    C97     1.391   .     A
C92    C823    1.398   .     S
C92    O867    1.383   .     S
C93    O144    1.265   .     A
C93    O142    1.273   .     A
C93    C96     1.449   .     S
C94    O143    1.282   .     A
C94    O145    1.284   .     A
C95    C830    1.405   1_554 S
C95    H855    1.082   1_554 S
C97    H136    1.084   .     S
C98    C99     1.521   .     S
C98    H140    1.116   .     S
C98    O146    1.413   .     S
C98    H619    1.113   1_545 S
C99    H114    1.111   .     S
C99    H116    1.111   .     S
C99    H115    1.111   .     S
C100   H119    1.110   .     S
C100   H118    1.111   .     S
C100   H117    1.111   .     S
C100   C111    1.511   .     S
C101   H121    1.108   .     S
C101   H120    1.110   .     S
C101   H122    1.110   .     S
C102   H123    1.115   .     S
C102   O147    1.413   .     S
C102   H125    1.114   .     S
C103   H137    1.080   .     S
C103   C812    1.398   1_554 S
C103   C827    1.413   1_554 S
C104   H128    1.111   .     S
C104   H127    1.111   .     S
C104   H126    1.110   .     S
C104   C182    1.521   .     S
C105   O148    1.412   .     S
C105   C106    1.521   .     S
C105   H129    1.116   .     S
C106   H132    1.111   .     S
C106   H133    1.111   .     S
C106   H131    1.111   .     S
C107   C108    1.415   .     A
C107   C823    1.413   .     S
C107   C829    1.421   .     S
C108   C112    1.408   .     A
C109   C827    1.421   1_554 S
C109   C830    1.426   1_554 S
C110   C111    1.410   .     A
C110   C815    1.405   .     S
C110   C829    1.426   .     S
C111   C112    1.394   .     A
C112   H138    1.081   .     S
H124   C167    1.086   .     S
H130   C185    1.113   .     S
H134   C329    1.087   .     S
H135   C815    1.082   .     S
H139   C338    1.113   .     S
O141   Zn160   1.931   .     S
O141   Zn157   1.967   .     S
O141   Zn158   1.946   .     S
O141   Zn159   1.924   .     S
O142   Zn158   1.932   .     S
O143   Zn160   1.948   .     S
O144   Zn159   1.943   .     S
O145   Zn157   1.930   .     S
O146   C568    1.388   1_545 S
O147   C812    1.383   1_554 S
O149   Zn157   1.925   .     S
O150   Zn160   1.926   .     S
O151   Zn158   1.923   .     S
O152   Zn159   1.938   .     S
O153   Zn160   1.930   .     S
O154   Zn157   1.916   .     S
O155   Zn158   1.936   .     S
O156   Zn159   1.930   .     S
C161   O231    1.271   .     A
C161   C167    1.438   .     S
C161   O233    1.271   .     A
C162   C189    1.421   .     A
C162   C176    1.408   .     A
C162   C181    1.522   .     S
C163   H193    1.084   .     S
C163   C175    1.385   .     A
C163   C176    1.394   .     A
C164   O234    1.280   .     A
C164   C166    1.462   .     S
C164   O232    1.281   .     A
C165   C177    1.404   .     A
C165   C188    1.417   .     A
C165   C174    1.471   .     S
C166   C7      1.340   1_655 S
C166   O68     1.387   1_655 S
C168   C171    1.458   .     S
C168   C409    1.336   .     S
C168   O466    1.388   .     S
C169   C170    1.436   .     S
C169   C648    1.336   1_545 S
C169   H694    1.087   1_545 S
C170   O235    1.278   .     A
C170   O229    1.283   .     A
C171   O230    1.270   .     A
C171   O236    1.267   .     A
C172   C177    1.391   .     A
C172   C903    1.398   .     S
C172   O947    1.383   .     S
C173   O224    1.265   .     A
C173   O222    1.273   .     A
C173   C176    1.449   .     S
C174   O223    1.282   .     A
C174   O225    1.284   .     A
C175   C910    1.405   1_554 S
C175   H935    1.082   1_554 S
C177   H216    1.084   .     S
C178   C179    1.521   .     S
C178   H220    1.116   .     S
C178   O226    1.413   .     S
C178   H699    1.113   1_545 S
C179   H194    1.111   .     S
C179   H196    1.111   .     S
C179   H195    1.111   .     S
C180   H199    1.110   .     S
C180   H198    1.111   .     S
C180   H197    1.111   .     S
C180   C191    1.511   .     S
C181   H201    1.108   .     S
C181   H200    1.110   .     S
C181   H202    1.110   .     S
C182   H203    1.115   .     S
C182   O227    1.413   .     S
C182   H205    1.114   .     S
C183   H217    1.080   .     S
C183   C892    1.398   1_554 S
C183   C907    1.413   1_554 S
C184   H208    1.111   .     S
C184   H207    1.111   .     S
C184   H206    1.110   .     S
C184   C22     1.521   1_655 S
C185   O228    1.412   .     S
C185   C186    1.521   .     S
C185   H209    1.116   .     S
C186   H212    1.111   .     S
C186   H213    1.111   .     S
C186   H211    1.111   .     S
C187   C188    1.415   .     A
C187   C903    1.413   .     S
C187   C909    1.421   .     S
C188   C192    1.408   .     A
C189   C907    1.421   1_554 S
C189   C910    1.426   1_554 S
C190   C191    1.410   .     A
C190   C895    1.405   .     S
C190   C909    1.426   .     S
C191   C192    1.394   .     A
C192   H218    1.081   .     S
H204   C7      1.086   1_655 S
H210   C25     1.113   1_655 S
H214   C409    1.087   .     S
H215   C895    1.082   .     S
H219   C418    1.113   .     S
O221   Zn240   1.931   .     S
O221   Zn237   1.967   .     S
O221   Zn238   1.946   .     S
O221   Zn239   1.924   .     S
O222   Zn238   1.932   .     S
O223   Zn240   1.948   .     S
O224   Zn239   1.943   .     S
O225   Zn237   1.930   .     S
O226   C648    1.388   1_545 S
O227   C892    1.383   1_554 S
O229   Zn237   1.925   .     S
O230   Zn240   1.926   .     S
O231   Zn238   1.923   .     S
O232   Zn239   1.938   .     S
O233   Zn240   1.930   .     S
O234   Zn237   1.916   .     S
O235   Zn238   1.936   .     S
O236   Zn239   1.930   .     S
C241   O311    1.271   .     A
C241   C247    1.438   .     S
C241   O313    1.271   .     A
C242   C269    1.421   .     A
C242   C256    1.408   .     A
C242   C261    1.522   .     S
C243   H273    1.084   .     S
C243   C255    1.385   .     A
C243   C256    1.394   .     A
C244   O314    1.280   .     A
C244   C246    1.462   .     S
C244   O312    1.281   .     A
C245   C257    1.404   .     A
C245   C268    1.417   .     A
C245   C254    1.471   .     S
C246   C327    1.340   .     S
C246   O388    1.387   .     S
C247   C406    1.340   1_455 S
C247   H444    1.086   1_455 S
C248   C251    1.458   .     S
C248   C489    1.336   .     S
C248   O546    1.388   .     S
C249   C250    1.436   .     S
C250   O315    1.278   .     A
C250   O309    1.283   .     A
C251   O310    1.270   .     A
C251   O316    1.267   .     A
C252   C257    1.391   .     A
C252   C983    1.398   .     S
C252   O1027   1.383   .     S
C253   O304    1.265   .     A
C253   O302    1.273   .     A
C253   C256    1.449   .     S
C254   O303    1.282   .     A
C254   O305    1.284   .     A
C255   C990    1.405   1_554 S
C255   H1015   1.082   1_554 S
C257   H296    1.084   .     S
C258   C259    1.521   .     S
C258   H300    1.116   .     S
C258   O306    1.413   .     S
C259   H274    1.111   .     S
C259   H276    1.111   .     S
C259   H275    1.111   .     S
C260   H279    1.110   .     S
C260   H278    1.111   .     S
C260   H277    1.111   .     S
C260   C271    1.511   .     S
C261   H281    1.108   .     S
C261   H280    1.110   .     S
C261   H282    1.110   .     S
C262   H283    1.115   .     S
C262   O307    1.413   .     S
C262   H285    1.114   .     S
C262   C424    1.521   1_455 S
C263   H297    1.080   .     S
C263   C972    1.398   1_554 S
C263   C987    1.413   1_554 S
C264   H288    1.111   .     S
C264   H287    1.111   .     S
C264   H286    1.110   .     S
C264   C342    1.521   .     S
C265   O308    1.412   .     S
C265   C266    1.521   .     S
C265   H289    1.116   .     S
C265   H450    1.113   1_455 S
C266   H292    1.111   .     S
C266   H293    1.111   .     S
C266   H291    1.111   .     S
C267   C268    1.415   .     A
C267   C983    1.413   .     S
C267   C989    1.421   .     S
C268   C272    1.408   .     A
C269   C987    1.421   1_554 S
C269   C990    1.426   1_554 S
C270   C271    1.410   .     A
C270   C975    1.405   .     S
C270   C989    1.426   .     S
C271   C272    1.394   .     A
C272   H298    1.081   .     S
H284   C327    1.086   .     S
H290   C345    1.113   .     S
H294   C489    1.087   .     S
H295   C975    1.082   .     S
H299   C498    1.113   .     S
O301   Zn320   1.931   .     S
O301   Zn317   1.967   .     S
O301   Zn318   1.946   .     S
O301   Zn319   1.924   .     S
O302   Zn318   1.932   .     S
O303   Zn320   1.948   .     S
O304   Zn319   1.943   .     S
O305   Zn317   1.930   .     S
O307   C972    1.383   1_554 S
O308   C406    1.387   1_455 S
O309   Zn317   1.925   .     S
O310   Zn320   1.926   .     S
O311   Zn318   1.923   .     S
O312   Zn319   1.938   .     S
O313   Zn320   1.930   .     S
O314   Zn317   1.916   .     S
O315   Zn318   1.936   .     S
O316   Zn319   1.930   .     S
C321   O391    1.271   .     A
C321   C327    1.438   .     S
C321   O393    1.271   .     A
C322   C349    1.421   .     A
C322   C336    1.408   .     A
C322   C341    1.522   .     S
C323   H353    1.084   .     S
C323   C335    1.385   .     A
C323   C336    1.394   .     A
C324   O394    1.280   .     A
C324   C326    1.462   .     S
C324   O392    1.281   .     A
C325   C337    1.404   .     A
C325   C348    1.417   .     A
C325   C334    1.471   .     S
C326   C407    1.340   .     S
C326   O468    1.387   .     S
C328   C331    1.458   .     S
C328   C569    1.336   .     S
C328   O626    1.388   .     S
C329   C330    1.436   .     S
C330   O395    1.278   .     A
C330   O389    1.283   .     A
C331   O390    1.270   .     A
C331   O396    1.267   .     A
C332   C337    1.391   .     A
C332   C1063   1.398   .     S
C332   O1107   1.383   .     S
C333   O384    1.265   .     A
C333   O382    1.273   .     A
C333   C336    1.449   .     S
C334   O383    1.282   .     A
C334   O385    1.284   .     A
C335   C1070   1.405   1_554 S
C335   H1095   1.082   1_554 S
C337   H376    1.084   .     S
C338   C339    1.521   .     S
C338   H380    1.116   .     S
C338   O386    1.413   .     S
C339   H354    1.111   .     S
C339   H356    1.111   .     S
C339   H355    1.111   .     S
C340   H359    1.110   .     S
C340   H358    1.111   .     S
C340   H357    1.111   .     S
C340   C351    1.511   .     S
C341   H361    1.108   .     S
C341   H360    1.110   .     S
C341   H362    1.110   .     S
C342   H363    1.115   .     S
C342   O387    1.413   .     S
C342   H365    1.114   .     S
C343   H377    1.080   .     S
C343   C1052   1.398   1_554 S
C343   C1067   1.413   1_554 S
C344   H368    1.111   .     S
C344   H367    1.111   .     S
C344   H366    1.110   .     S
C344   C422    1.521   .     S
C345   O388    1.412   .     S
C345   C346    1.521   .     S
C345   H369    1.116   .     S
C346   H372    1.111   .     S
C346   H373    1.111   .     S
C346   H371    1.111   .     S
C347   C348    1.415   .     A
C347   C1063   1.413   .     S
C347   C1069   1.421   .     S
C348   C352    1.408   .     A
C349   C1067   1.421   1_554 S
C349   C1070   1.426   1_554 S
C350   C351    1.410   .     A
C350   C1055   1.405   .     S
C350   C1069   1.426   .     S
C351   C352    1.394   .     A
C352   H378    1.081   .     S
H364   C407    1.086   .     S
H370   C425    1.113   .     S
H374   C569    1.087   .     S
H375   C1055   1.082   .     S
H379   C578    1.113   .     S
O381   Zn400   1.931   .     S
O381   Zn397   1.967   .     S
O381   Zn398   1.946   .     S
O381   Zn399   1.924   .     S
O382   Zn398   1.932   .     S
O383   Zn400   1.948   .     S
O384   Zn399   1.943   .     S
O385   Zn397   1.930   .     S
O387   C1052   1.383   1_554 S
O389   Zn397   1.925   .     S
O390   Zn400   1.926   .     S
O391   Zn398   1.923   .     S
O392   Zn399   1.938   .     S
O393   Zn400   1.930   .     S
O394   Zn397   1.916   .     S
O395   Zn398   1.936   .     S
O396   Zn399   1.930   .     S
C401   O471    1.271   .     A
C401   C407    1.438   .     S
C401   O473    1.271   .     A
C402   C429    1.421   .     A
C402   C416    1.408   .     A
C402   C421    1.522   .     S
C403   H433    1.084   .     S
C403   C415    1.385   .     A
C403   C416    1.394   .     A
C404   O474    1.280   .     A
C404   C406    1.462   .     S
C404   O472    1.281   .     A
C405   C417    1.404   .     A
C405   C428    1.417   .     A
C405   C414    1.471   .     S
C406   C247    1.340   1_655 S
C406   O308    1.387   1_655 S
C408   C411    1.458   .     S
C408   C649    1.336   .     S
C408   O706    1.388   .     S
C409   C410    1.436   .     S
C410   O475    1.278   .     A
C410   O469    1.283   .     A
C411   O470    1.270   .     A
C411   O476    1.267   .     A
C412   C417    1.391   .     A
C412   C1143   1.398   .     S
C412   O1187   1.383   .     S
C413   O464    1.265   .     A
C413   O462    1.273   .     A
C413   C416    1.449   .     S
C414   O463    1.282   .     A
C414   O465    1.284   .     A
C415   C1150   1.405   1_554 S
C415   H1175   1.082   1_554 S
C417   H456    1.084   .     S
C418   C419    1.521   .     S
C418   H460    1.116   .     S
C418   O466    1.413   .     S
C419   H434    1.111   .     S
C419   H436    1.111   .     S
C419   H435    1.111   .     S
C420   H439    1.110   .     S
C420   H438    1.111   .     S
C420   H437    1.111   .     S
C420   C431    1.511   .     S
C421   H441    1.108   .     S
C421   H440    1.110   .     S
C421   H442    1.110   .     S
C422   H443    1.115   .     S
C422   O467    1.413   .     S
C422   H445    1.114   .     S
C423   H457    1.080   .     S
C423   C1132   1.398   1_554 S
C423   C1147   1.413   1_554 S
C424   H448    1.111   .     S
C424   H447    1.111   .     S
C424   H446    1.110   .     S
C424   C262    1.521   1_655 S
C425   O468    1.412   .     S
C425   C426    1.521   .     S
C425   H449    1.116   .     S
C426   H452    1.111   .     S
C426   H453    1.111   .     S
C426   H451    1.111   .     S
C427   C428    1.415   .     A
C427   C1143   1.413   .     S
C427   C1149   1.421   .     S
C428   C432    1.408   .     A
C429   C1147   1.421   1_554 S
C429   C1150   1.426   1_554 S
C430   C431    1.410   .     A
C430   C1135   1.405   .     S
C430   C1149   1.426   .     S
C431   C432    1.394   .     A
C432   H458    1.081   .     S
H444   C247    1.086   1_655 S
H450   C265    1.113   1_655 S
H454   C649    1.087   .     S
H455   C1135   1.082   .     S
H459   C658    1.113   .     S
O461   Zn480   1.931   .     S
O461   Zn477   1.967   .     S
O461   Zn478   1.946   .     S
O461   Zn479   1.924   .     S
O462   Zn478   1.932   .     S
O463   Zn480   1.948   .     S
O464   Zn479   1.943   .     S
O465   Zn477   1.930   .     S
O467   C1132   1.383   1_554 S
O469   Zn477   1.925   .     S
O470   Zn480   1.926   .     S
O471   Zn478   1.923   .     S
O472   Zn479   1.938   .     S
O473   Zn480   1.930   .     S
O474   Zn477   1.916   .     S
O475   Zn478   1.936   .     S
O476   Zn479   1.930   .     S
C481   O551    1.271   .     A
C481   C487    1.438   .     S
C481   O553    1.271   .     A
C482   C509    1.421   .     A
C482   C496    1.408   .     A
C482   C501    1.522   .     S
C483   H513    1.084   .     S
C483   C495    1.385   .     A
C483   C496    1.394   .     A
C484   O554    1.280   .     A
C484   C486    1.462   .     S
C484   O552    1.281   .     A
C485   C497    1.404   .     A
C485   C508    1.417   .     A
C485   C494    1.471   .     S
C486   C567    1.340   .     S
C486   O628    1.387   .     S
C487   C646    1.340   1_455 S
C487   H684    1.086   1_455 S
C488   C491    1.458   .     S
C488   C9      1.336   1_565 S
C488   O66     1.388   1_565 S
C489   C490    1.436   .     S
C490   O555    1.278   .     A
C490   O549    1.283   .     A
C491   O550    1.270   .     A
C491   O556    1.267   .     A
C492   C497    1.391   .     A
C492   C1223   1.398   .     S
C492   O1267   1.383   .     S
C493   O544    1.265   .     A
C493   O542    1.273   .     A
C493   C496    1.449   .     S
C494   O543    1.282   .     A
C494   O545    1.284   .     A
C495   C1230   1.405   1_554 S
C495   H1255   1.082   1_554 S
C497   H536    1.084   .     S
C498   C499    1.521   .     S
C498   H540    1.116   .     S
C498   O546    1.413   .     S
C499   H514    1.111   .     S
C499   H516    1.111   .     S
C499   H515    1.111   .     S
C500   H519    1.110   .     S
C500   H518    1.111   .     S
C500   H517    1.111   .     S
C500   C511    1.511   .     S
C501   H521    1.108   .     S
C501   H520    1.110   .     S
C501   H522    1.110   .     S
C502   H523    1.115   .     S
C502   O547    1.413   .     S
C502   H525    1.114   .     S
C502   C664    1.521   1_455 S
C503   H537    1.080   .     S
C503   C1212   1.398   1_554 S
C503   C1227   1.413   1_554 S
C504   H528    1.111   .     S
C504   H527    1.111   .     S
C504   H526    1.110   .     S
C504   C582    1.521   .     S
C505   O548    1.412   .     S
C505   C506    1.521   .     S
C505   H529    1.116   .     S
C505   H690    1.113   1_455 S
C506   H532    1.111   .     S
C506   H533    1.111   .     S
C506   H531    1.111   .     S
C507   C508    1.415   .     A
C507   C1223   1.413   .     S
C507   C1229   1.421   .     S
C508   C512    1.408   .     A
C509   C1227   1.421   1_554 S
C509   C1230   1.426   1_554 S
C510   C511    1.410   .     A
C510   C1215   1.405   .     S
C510   C1229   1.426   .     S
C511   C512    1.394   .     A
C512   H538    1.081   .     S
H524   C567    1.086   .     S
H530   C585    1.113   .     S
H534   C9      1.087   1_565 S
H535   C1215   1.082   .     S
H539   C18     1.113   1_565 S
O541   Zn560   1.931   .     S
O541   Zn557   1.967   .     S
O541   Zn558   1.946   .     S
O541   Zn559   1.924   .     S
O542   Zn558   1.932   .     S
O543   Zn560   1.948   .     S
O544   Zn559   1.943   .     S
O545   Zn557   1.930   .     S
O547   C1212   1.383   1_554 S
O548   C646    1.387   1_455 S
O549   Zn557   1.925   .     S
O550   Zn560   1.926   .     S
O551   Zn558   1.923   .     S
O552   Zn559   1.938   .     S
O553   Zn560   1.930   .     S
O554   Zn557   1.916   .     S
O555   Zn558   1.936   .     S
O556   Zn559   1.930   .     S
C561   O631    1.271   .     A
C561   C567    1.438   .     S
C561   O633    1.271   .     A
C562   C589    1.421   .     A
C562   C576    1.408   .     A
C562   C581    1.522   .     S
C563   H593    1.084   .     S
C563   C575    1.385   .     A
C563   C576    1.394   .     A
C564   O634    1.280   .     A
C564   C566    1.462   .     S
C564   O632    1.281   .     A
C565   C577    1.404   .     A
C565   C588    1.417   .     A
C565   C574    1.471   .     S
C566   C647    1.340   .     S
C566   O708    1.387   .     S
C568   C571    1.458   .     S
C568   C89     1.336   1_565 S
C568   O146    1.388   1_565 S
C569   C570    1.436   .     S
C570   O635    1.278   .     A
C570   O629    1.283   .     A
C571   O630    1.270   .     A
C571   O636    1.267   .     A
C572   C577    1.391   .     A
C572   C1303   1.398   .     S
C572   O1347   1.383   .     S
C573   O624    1.265   .     A
C573   O622    1.273   .     A
C573   C576    1.449   .     S
C574   O623    1.282   .     A
C574   O625    1.284   .     A
C575   C1310   1.405   1_554 S
C575   H1335   1.082   1_554 S
C577   H616    1.084   .     S
C578   C579    1.521   .     S
C578   H620    1.116   .     S
C578   O626    1.413   .     S
C579   H594    1.111   .     S
C579   H596    1.111   .     S
C579   H595    1.111   .     S
C580   H599    1.110   .     S
C580   H598    1.111   .     S
C580   H597    1.111   .     S
C580   C591    1.511   .     S
C581   H601    1.108   .     S
C581   H600    1.110   .     S
C581   H602    1.110   .     S
C582   H603    1.115   .     S
C582   O627    1.413   .     S
C582   H605    1.114   .     S
C583   H617    1.080   .     S
C583   C1292   1.398   1_554 S
C583   C1307   1.413   1_554 S
C584   H608    1.111   .     S
C584   H607    1.111   .     S
C584   H606    1.110   .     S
C584   C662    1.521   .     S
C585   O628    1.412   .     S
C585   C586    1.521   .     S
C585   H609    1.116   .     S
C586   H612    1.111   .     S
C586   H613    1.111   .     S
C586   H611    1.111   .     S
C587   C588    1.415   .     A
C587   C1303   1.413   .     S
C587   C1309   1.421   .     S
C588   C592    1.408   .     A
C589   C1307   1.421   1_554 S
C589   C1310   1.426   1_554 S
C590   C591    1.410   .     A
C590   C1295   1.405   .     S
C590   C1309   1.426   .     S
C591   C592    1.394   .     A
C592   H618    1.081   .     S
H604   C647    1.086   .     S
H610   C665    1.113   .     S
H614   C89     1.087   1_565 S
H615   C1295   1.082   .     S
H619   C98     1.113   1_565 S
O621   Zn640   1.931   .     S
O621   Zn637   1.967   .     S
O621   Zn638   1.946   .     S
O621   Zn639   1.924   .     S
O622   Zn638   1.932   .     S
O623   Zn640   1.948   .     S
O624   Zn639   1.943   .     S
O625   Zn637   1.930   .     S
O627   C1292   1.383   1_554 S
O629   Zn637   1.925   .     S
O630   Zn640   1.926   .     S
O631   Zn638   1.923   .     S
O632   Zn639   1.938   .     S
O633   Zn640   1.930   .     S
O634   Zn637   1.916   .     S
O635   Zn638   1.936   .     S
O636   Zn639   1.930   .     S
C641   O711    1.271   .     A
C641   C647    1.438   .     S
C641   O713    1.271   .     A
C642   C669    1.421   .     A
C642   C656    1.408   .     A
C642   C661    1.522   .     S
C643   H673    1.084   .     S
C643   C655    1.385   .     A
C643   C656    1.394   .     A
C644   O714    1.280   .     A
C644   C646    1.462   .     S
C644   O712    1.281   .     A
C645   C657    1.404   .     A
C645   C668    1.417   .     A
C645   C654    1.471   .     S
C646   C487    1.340   1_655 S
C646   O548    1.387   1_655 S
C648   C651    1.458   .     S
C648   C169    1.336   1_565 S
C648   O226    1.388   1_565 S
C649   C650    1.436   .     S
C650   O715    1.278   .     A
C650   O709    1.283   .     A
C651   O710    1.270   .     A
C651   O716    1.267   .     A
C652   C657    1.391   .     A
C652   C1383   1.398   .     S
C652   O1427   1.383   .     S
C653   O704    1.265   .     A
C653   O702    1.273   .     A
C653   C656    1.449   .     S
C654   O703    1.282   .     A
C654   O705    1.284   .     A
C655   C1390   1.405   1_554 S
C655   H1415   1.082   1_554 S
C657   H696    1.084   .     S
C658   C659    1.521   .     S
C658   H700    1.116   .     S
C658   O706    1.413   .     S
C659   H674    1.111   .     S
C659   H676    1.111   .     S
C659   H675    1.111   .     S
C660   H679    1.110   .     S
C660   H678    1.111   .     S
C660   H677    1.111   .     S
C660   C671    1.511   .     S
C661   H681    1.108   .     S
C661   H680    1.110   .     S
C661   H682    1.110   .     S
C662   H683    1.115   .     S
C662   O707    1.413   .     S
C662   H685    1.114   .     S
C663   H697    1.080   .     S
C663   C1372   1.398   1_554 S
C663   C1387   1.413   1_554 S
C664   H688    1.111   .     S
C664   H687    1.111   .     S
C664   H686    1.110   .     S
C664   C502    1.521   1_655 S
C665   O708    1.412   .     S
C665   C666    1.521   .     S
C665   H689    1.116   .     S
C666   H692    1.111   .     S
C666   H693    1.111   .     S
C666   H691    1.111   .     S
C667   C668    1.415   .     A
C667   C1383   1.413   .     S
C667   C1389   1.421   .     S
C668   C672    1.408   .     A
C669   C1387   1.421   1_554 S
C669   C1390   1.426   1_554 S
C670   C671    1.410   .     A
C670   C1375   1.405   .     S
C670   C1389   1.426   .     S
C671   C672    1.394   .     A
C672   H698    1.081   .     S
H684   C487    1.086   1_655 S
H690   C505    1.113   1_655 S
H694   C169    1.087   1_565 S
H695   C1375   1.082   .     S
H699   C178    1.113   1_565 S
O701   Zn720   1.931   .     S
O701   Zn717   1.967   .     S
O701   Zn718   1.946   .     S
O701   Zn719   1.924   .     S
O702   Zn718   1.932   .     S
O703   Zn720   1.948   .     S
O704   Zn719   1.943   .     S
O705   Zn717   1.930   .     S
O707   C1372   1.383   1_554 S
O709   Zn717   1.925   .     S
O710   Zn720   1.926   .     S
O711   Zn718   1.923   .     S
O712   Zn719   1.938   .     S
O713   Zn720   1.930   .     S
O714   Zn717   1.916   .     S
O715   Zn718   1.936   .     S
O716   Zn719   1.930   .     S
C721   O791    1.271   .     A
C721   C727    1.438   .     S
C721   O793    1.271   .     A
C722   C749    1.421   .     A
C722   C736    1.408   .     A
C722   C741    1.522   .     S
C723   H753    1.084   .     S
C723   C735    1.385   .     A
C723   C736    1.394   .     A
C724   O794    1.280   .     A
C724   C726    1.462   .     S
C724   O792    1.281   .     A
C725   C737    1.404   .     A
C725   C748    1.417   .     A
C725   C734    1.471   .     S
C726   C807    1.340   .     S
C726   O868    1.387   .     S
C727   C886    1.340   1_455 S
C727   H924    1.086   1_455 S
C728   C731    1.458   .     S
C728   C969    1.336   .     S
C728   O1026   1.388   .     S
C729   C730    1.436   .     S
C729   C1208   1.336   1_545 S
C729   H1254   1.087   1_545 S
C730   O795    1.278   .     A
C730   O789    1.283   .     A
C731   O790    1.270   .     A
C731   O796    1.267   .     A
C732   C737    1.391   .     A
C732   C23     1.398   1_556 S
C732   O67     1.383   1_556 S
C733   O784    1.265   .     A
C733   O782    1.273   .     A
C733   C736    1.449   .     S
C734   O783    1.282   .     A
C734   O785    1.284   .     A
C737   H776    1.084   .     S
C738   C739    1.521   .     S
C738   H780    1.116   .     S
C738   O786    1.413   .     S
C738   H1259   1.113   1_545 S
C739   H754    1.111   .     S
C739   H756    1.111   .     S
C739   H755    1.111   .     S
C740   H759    1.110   .     S
C740   H758    1.111   .     S
C740   H757    1.111   .     S
C740   C751    1.511   .     S
C741   H761    1.108   .     S
C741   H760    1.110   .     S
C741   H762    1.110   .     S
C742   H763    1.115   .     S
C742   O787    1.413   .     S
C742   H765    1.114   .     S
C742   C904    1.521   1_455 S
C743   H777    1.080   .     S
C744   H768    1.111   .     S
C744   H767    1.111   .     S
C744   H766    1.110   .     S
C744   C822    1.521   .     S
C745   O788    1.412   .     S
C745   C746    1.521   .     S
C745   H769    1.116   .     S
C745   H930    1.113   1_455 S
C746   H772    1.111   .     S
C746   H773    1.111   .     S
C746   H771    1.111   .     S
C747   C748    1.415   .     A
C747   C23     1.413   1_556 S
C747   C29     1.421   1_556 S
C748   C752    1.408   .     A
C750   C751    1.410   .     A
C750   C15     1.405   1_556 S
C750   C29     1.426   1_556 S
C751   C752    1.394   .     A
C752   H778    1.081   .     S
H764   C807    1.086   .     S
H770   C825    1.113   .     S
H774   C969    1.087   .     S
H775   C15     1.082   1_556 S
H779   C978    1.113   .     S
O781   Zn800   1.931   .     S
O781   Zn797   1.967   .     S
O781   Zn798   1.946   .     S
O781   Zn799   1.924   .     S
O782   Zn798   1.932   .     S
O783   Zn800   1.948   .     S
O784   Zn799   1.943   .     S
O785   Zn797   1.930   .     S
O786   C1208   1.388   1_545 S
O788   C886    1.387   1_455 S
O789   Zn797   1.925   .     S
O790   Zn800   1.926   .     S
O791   Zn798   1.923   .     S
O792   Zn799   1.938   .     S
O793   Zn800   1.930   .     S
O794   Zn797   1.916   .     S
O795   Zn798   1.936   .     S
O796   Zn799   1.930   .     S
C801   O871    1.271   .     A
C801   C807    1.438   .     S
C801   O873    1.271   .     A
C802   C829    1.421   .     A
C802   C816    1.408   .     A
C802   C821    1.522   .     S
C803   H833    1.084   .     S
C803   C815    1.385   .     A
C803   C816    1.394   .     A
C804   O874    1.280   .     A
C804   C806    1.462   .     S
C804   O872    1.281   .     A
C805   C817    1.404   .     A
C805   C828    1.417   .     A
C805   C814    1.471   .     S
C806   C887    1.340   .     S
C806   O948    1.387   .     S
C808   C811    1.458   .     S
C808   C1049   1.336   .     S
C808   O1106   1.388   .     S
C809   C810    1.436   .     S
C809   C1288   1.336   1_545 S
C809   H1334   1.087   1_545 S
C810   O875    1.278   .     A
C810   O869    1.283   .     A
C811   O870    1.270   .     A
C811   O876    1.267   .     A
C812   C817    1.391   .     A
C812   C103    1.398   1_556 S
C812   O147    1.383   1_556 S
C813   O864    1.265   .     A
C813   O862    1.273   .     A
C813   C816    1.449   .     S
C814   O863    1.282   .     A
C814   O865    1.284   .     A
C817   H856    1.084   .     S
C818   C819    1.521   .     S
C818   H860    1.116   .     S
C818   O866    1.413   .     S
C818   H1339   1.113   1_545 S
C819   H834    1.111   .     S
C819   H836    1.111   .     S
C819   H835    1.111   .     S
C820   H839    1.110   .     S
C820   H838    1.111   .     S
C820   H837    1.111   .     S
C820   C831    1.511   .     S
C821   H841    1.108   .     S
C821   H840    1.110   .     S
C821   H842    1.110   .     S
C822   H843    1.115   .     S
C822   O867    1.413   .     S
C822   H845    1.114   .     S
C823   H857    1.080   .     S
C824   H848    1.111   .     S
C824   H847    1.111   .     S
C824   H846    1.110   .     S
C824   C902    1.521   .     S
C825   O868    1.412   .     S
C825   C826    1.521   .     S
C825   H849    1.116   .     S
C826   H852    1.111   .     S
C826   H853    1.111   .     S
C826   H851    1.111   .     S
C827   C828    1.415   .     A
C827   C103    1.413   1_556 S
C827   C109    1.421   1_556 S
C828   C832    1.408   .     A
C830   C831    1.410   .     A
C830   C95     1.405   1_556 S
C830   C109    1.426   1_556 S
C831   C832    1.394   .     A
C832   H858    1.081   .     S
H844   C887    1.086   .     S
H850   C905    1.113   .     S
H854   C1049   1.087   .     S
H855   C95     1.082   1_556 S
H859   C1058   1.113   .     S
O861   Zn880   1.931   .     S
O861   Zn877   1.967   .     S
O861   Zn878   1.946   .     S
O861   Zn879   1.924   .     S
O862   Zn878   1.932   .     S
O863   Zn880   1.948   .     S
O864   Zn879   1.943   .     S
O865   Zn877   1.930   .     S
O866   C1288   1.388   1_545 S
O869   Zn877   1.925   .     S
O870   Zn880   1.926   .     S
O871   Zn878   1.923   .     S
O872   Zn879   1.938   .     S
O873   Zn880   1.930   .     S
O874   Zn877   1.916   .     S
O875   Zn878   1.936   .     S
O876   Zn879   1.930   .     S
C881   O951    1.271   .     A
C881   C887    1.438   .     S
C881   O953    1.271   .     A
C882   C909    1.421   .     A
C882   C896    1.408   .     A
C882   C901    1.522   .     S
C883   H913    1.084   .     S
C883   C895    1.385   .     A
C883   C896    1.394   .     A
C884   O954    1.280   .     A
C884   C886    1.462   .     S
C884   O952    1.281   .     A
C885   C897    1.404   .     A
C885   C908    1.417   .     A
C885   C894    1.471   .     S
C886   C727    1.340   1_655 S
C886   O788    1.387   1_655 S
C888   C891    1.458   .     S
C888   C1129   1.336   .     S
C888   O1186   1.388   .     S
C889   C890    1.436   .     S
C889   C1368   1.336   1_545 S
C889   H1414   1.087   1_545 S
C890   O955    1.278   .     A
C890   O949    1.283   .     A
C891   O950    1.270   .     A
C891   O956    1.267   .     A
C892   C897    1.391   .     A
C892   C183    1.398   1_556 S
C892   O227    1.383   1_556 S
C893   O944    1.265   .     A
C893   O942    1.273   .     A
C893   C896    1.449   .     S
C894   O943    1.282   .     A
C894   O945    1.284   .     A
C897   H936    1.084   .     S
C898   C899    1.521   .     S
C898   H940    1.116   .     S
C898   O946    1.413   .     S
C898   H1419   1.113   1_545 S
C899   H914    1.111   .     S
C899   H916    1.111   .     S
C899   H915    1.111   .     S
C900   H919    1.110   .     S
C900   H918    1.111   .     S
C900   H917    1.111   .     S
C900   C911    1.511   .     S
C901   H921    1.108   .     S
C901   H920    1.110   .     S
C901   H922    1.110   .     S
C902   H923    1.115   .     S
C902   O947    1.413   .     S
C902   H925    1.114   .     S
C903   H937    1.080   .     S
C904   H928    1.111   .     S
C904   H927    1.111   .     S
C904   H926    1.110   .     S
C904   C742    1.521   1_655 S
C905   O948    1.412   .     S
C905   C906    1.521   .     S
C905   H929    1.116   .     S
C906   H932    1.111   .     S
C906   H933    1.111   .     S
C906   H931    1.111   .     S
C907   C908    1.415   .     A
C907   C183    1.413   1_556 S
C907   C189    1.421   1_556 S
C908   C912    1.408   .     A
C910   C911    1.410   .     A
C910   C175    1.405   1_556 S
C910   C189    1.426   1_556 S
C911   C912    1.394   .     A
C912   H938    1.081   .     S
H924   C727    1.086   1_655 S
H930   C745    1.113   1_655 S
H934   C1129   1.087   .     S
H935   C175    1.082   1_556 S
H939   C1138   1.113   .     S
O941   Zn960   1.931   .     S
O941   Zn957   1.967   .     S
O941   Zn958   1.946   .     S
O941   Zn959   1.924   .     S
O942   Zn958   1.932   .     S
O943   Zn960   1.948   .     S
O944   Zn959   1.943   .     S
O945   Zn957   1.930   .     S
O946   C1368   1.388   1_545 S
O949   Zn957   1.925   .     S
O950   Zn960   1.926   .     S
O951   Zn958   1.923   .     S
O952   Zn959   1.938   .     S
O953   Zn960   1.930   .     S
O954   Zn957   1.916   .     S
O955   Zn958   1.936   .     S
O956   Zn959   1.930   .     S
C961   O1031   1.271   .     A
C961   C967    1.438   .     S
C961   O1033   1.271   .     A
C962   C989    1.421   .     A
C962   C976    1.408   .     A
C962   C981    1.522   .     S
C963   H993    1.084   .     S
C963   C975    1.385   .     A
C963   C976    1.394   .     A
C964   O1034   1.280   .     A
C964   C966    1.462   .     S
C964   O1032   1.281   .     A
C965   C977    1.404   .     A
C965   C988    1.417   .     A
C965   C974    1.471   .     S
C966   C1047   1.340   .     S
C966   O1108   1.387   .     S
C967   C1126   1.340   1_455 S
C967   H1164   1.086   1_455 S
C968   C971    1.458   .     S
C968   C1209   1.336   .     S
C968   O1266   1.388   .     S
C969   C970    1.436   .     S
C970   O1035   1.278   .     A
C970   O1029   1.283   .     A
C971   O1030   1.270   .     A
C971   O1036   1.267   .     A
C972   C977    1.391   .     A
C972   C263    1.398   1_556 S
C972   O307    1.383   1_556 S
C973   O1024   1.265   .     A
C973   O1022   1.273   .     A
C973   C976    1.449   .     S
C974   O1023   1.282   .     A
C974   O1025   1.284   .     A
C977   H1016   1.084   .     S
C978   C979    1.521   .     S
C978   H1020   1.116   .     S
C978   O1026   1.413   .     S
C979   H994    1.111   .     S
C979   H996    1.111   .     S
C979   H995    1.111   .     S
C980   H999    1.110   .     S
C980   H998    1.111   .     S
C980   H997    1.111   .     S
C980   C991    1.511   .     S
C981   H1001   1.108   .     S
C981   H1000   1.110   .     S
C981   H1002   1.110   .     S
C982   H1003   1.115   .     S
C982   O1027   1.413   .     S
C982   H1005   1.114   .     S
C982   C1144   1.521   1_455 S
C983   H1017   1.080   .     S
C984   H1008   1.111   .     S
C984   H1007   1.111   .     S
C984   H1006   1.110   .     S
C984   C1062   1.521   .     S
C985   O1028   1.412   .     S
C985   C986    1.521   .     S
C985   H1009   1.116   .     S
C985   H1170   1.113   1_455 S
C986   H1012   1.111   .     S
C986   H1013   1.111   .     S
C986   H1011   1.111   .     S
C987   C988    1.415   .     A
C987   C263    1.413   1_556 S
C987   C269    1.421   1_556 S
C988   C992    1.408   .     A
C990   C991    1.410   .     A
C990   C255    1.405   1_556 S
C990   C269    1.426   1_556 S
C991   C992    1.394   .     A
C992   H1018   1.081   .     S
H1004  C1047   1.086   .     S
H1010  C1065   1.113   .     S
H1014  C1209   1.087   .     S
H1015  C255    1.082   1_556 S
H1019  C1218   1.113   .     S
O1021  Zn1040  1.931   .     S
O1021  Zn1037  1.967   .     S
O1021  Zn1038  1.946   .     S
O1021  Zn1039  1.924   .     S
O1022  Zn1038  1.932   .     S
O1023  Zn1040  1.948   .     S
O1024  Zn1039  1.943   .     S
O1025  Zn1037  1.930   .     S
O1028  C1126   1.387   1_455 S
O1029  Zn1037  1.925   .     S
O1030  Zn1040  1.926   .     S
O1031  Zn1038  1.923   .     S
O1032  Zn1039  1.938   .     S
O1033  Zn1040  1.930   .     S
O1034  Zn1037  1.916   .     S
O1035  Zn1038  1.936   .     S
O1036  Zn1039  1.930   .     S
C1041  O1111   1.271   .     A
C1041  C1047   1.438   .     S
C1041  O1113   1.271   .     A
C1042  C1069   1.421   .     A
C1042  C1056   1.408   .     A
C1042  C1061   1.522   .     S
C1043  H1073   1.084   .     S
C1043  C1055   1.385   .     A
C1043  C1056   1.394   .     A
C1044  O1114   1.280   .     A
C1044  C1046   1.462   .     S
C1044  O1112   1.281   .     A
C1045  C1057   1.404   .     A
C1045  C1068   1.417   .     A
C1045  C1054   1.471   .     S
C1046  C1127   1.340   .     S
C1046  O1188   1.387   .     S
C1048  C1051   1.458   .     S
C1048  C1289   1.336   .     S
C1048  O1346   1.388   .     S
C1049  C1050   1.436   .     S
C1050  O1115   1.278   .     A
C1050  O1109   1.283   .     A
C1051  O1110   1.270   .     A
C1051  O1116   1.267   .     A
C1052  C1057   1.391   .     A
C1052  C343    1.398   1_556 S
C1052  O387    1.383   1_556 S
C1053  O1104   1.265   .     A
C1053  O1102   1.273   .     A
C1053  C1056   1.449   .     S
C1054  O1103   1.282   .     A
C1054  O1105   1.284   .     A
C1057  H1096   1.084   .     S
C1058  C1059   1.521   .     S
C1058  H1100   1.116   .     S
C1058  O1106   1.413   .     S
C1059  H1074   1.111   .     S
C1059  H1076   1.111   .     S
C1059  H1075   1.111   .     S
C1060  H1079   1.110   .     S
C1060  H1078   1.111   .     S
C1060  H1077   1.111   .     S
C1060  C1071   1.511   .     S
C1061  H1081   1.108   .     S
C1061  H1080   1.110   .     S
C1061  H1082   1.110   .     S
C1062  H1083   1.115   .     S
C1062  O1107   1.413   .     S
C1062  H1085   1.114   .     S
C1063  H1097   1.080   .     S
C1064  H1088   1.111   .     S
C1064  H1087   1.111   .     S
C1064  H1086   1.110   .     S
C1064  C1142   1.521   .     S
C1065  O1108   1.412   .     S
C1065  C1066   1.521   .     S
C1065  H1089   1.116   .     S
C1066  H1092   1.111   .     S
C1066  H1093   1.111   .     S
C1066  H1091   1.111   .     S
C1067  C1068   1.415   .     A
C1067  C343    1.413   1_556 S
C1067  C349    1.421   1_556 S
C1068  C1072   1.408   .     A
C1070  C1071   1.410   .     A
C1070  C335    1.405   1_556 S
C1070  C349    1.426   1_556 S
C1071  C1072   1.394   .     A
C1072  H1098   1.081   .     S
H1084  C1127   1.086   .     S
H1090  C1145   1.113   .     S
H1094  C1289   1.087   .     S
H1095  C335    1.082   1_556 S
H1099  C1298   1.113   .     S
O1101  Zn1120  1.931   .     S
O1101  Zn1117  1.967   .     S
O1101  Zn1118  1.946   .     S
O1101  Zn1119  1.924   .     S
O1102  Zn1118  1.932   .     S
O1103  Zn1120  1.948   .     S
O1104  Zn1119  1.943   .     S
O1105  Zn1117  1.930   .     S
O1109  Zn1117  1.925   .     S
O1110  Zn1120  1.926   .     S
O1111  Zn1118  1.923   .     S
O1112  Zn1119  1.938   .     S
O1113  Zn1120  1.930   .     S
O1114  Zn1117  1.916   .     S
O1115  Zn1118  1.936   .     S
O1116  Zn1119  1.930   .     S
C1121  O1191   1.271   .     A
C1121  C1127   1.438   .     S
C1121  O1193   1.271   .     A
C1122  C1149   1.421   .     A
C1122  C1136   1.408   .     A
C1122  C1141   1.522   .     S
C1123  H1153   1.084   .     S
C1123  C1135   1.385   .     A
C1123  C1136   1.394   .     A
C1124  O1194   1.280   .     A
C1124  C1126   1.462   .     S
C1124  O1192   1.281   .     A
C1125  C1137   1.404   .     A
C1125  C1148   1.417   .     A
C1125  C1134   1.471   .     S
C1126  C967    1.340   1_655 S
C1126  O1028   1.387   1_655 S
C1128  C1131   1.458   .     S
C1128  C1369   1.336   .     S
C1128  O1426   1.388   .     S
C1129  C1130   1.436   .     S
C1130  O1195   1.278   .     A
C1130  O1189   1.283   .     A
C1131  O1190   1.270   .     A
C1131  O1196   1.267   .     A
C1132  C1137   1.391   .     A
C1132  C423    1.398   1_556 S
C1132  O467    1.383   1_556 S
C1133  O1184   1.265   .     A
C1133  O1182   1.273   .     A
C1133  C1136   1.449   .     S
C1134  O1183   1.282   .     A
C1134  O1185   1.284   .     A
C1137  H1176   1.084   .     S
C1138  C1139   1.521   .     S
C1138  H1180   1.116   .     S
C1138  O1186   1.413   .     S
C1139  H1154   1.111   .     S
C1139  H1156   1.111   .     S
C1139  H1155   1.111   .     S
C1140  H1159   1.110   .     S
C1140  H1158   1.111   .     S
C1140  H1157   1.111   .     S
C1140  C1151   1.511   .     S
C1141  H1161   1.108   .     S
C1141  H1160   1.110   .     S
C1141  H1162   1.110   .     S
C1142  H1163   1.115   .     S
C1142  O1187   1.413   .     S
C1142  H1165   1.114   .     S
C1143  H1177   1.080   .     S
C1144  H1168   1.111   .     S
C1144  H1167   1.111   .     S
C1144  H1166   1.110   .     S
C1144  C982    1.521   1_655 S
C1145  O1188   1.412   .     S
C1145  C1146   1.521   .     S
C1145  H1169   1.116   .     S
C1146  H1172   1.111   .     S
C1146  H1173   1.111   .     S
C1146  H1171   1.111   .     S
C1147  C1148   1.415   .     A
C1147  C423    1.413   1_556 S
C1147  C429    1.421   1_556 S
C1148  C1152   1.408   .     A
C1150  C1151   1.410   .     A
C1150  C415    1.405   1_556 S
C1150  C429    1.426   1_556 S
C1151  C1152   1.394   .     A
C1152  H1178   1.081   .     S
H1164  C967    1.086   1_655 S
H1170  C985    1.113   1_655 S
H1174  C1369   1.087   .     S
H1175  C415    1.082   1_556 S
H1179  C1378   1.113   .     S
O1181  Zn1200  1.931   .     S
O1181  Zn1197  1.967   .     S
O1181  Zn1198  1.946   .     S
O1181  Zn1199  1.924   .     S
O1182  Zn1198  1.932   .     S
O1183  Zn1200  1.948   .     S
O1184  Zn1199  1.943   .     S
O1185  Zn1197  1.930   .     S
O1189  Zn1197  1.925   .     S
O1190  Zn1200  1.926   .     S
O1191  Zn1198  1.923   .     S
O1192  Zn1199  1.938   .     S
O1193  Zn1200  1.930   .     S
O1194  Zn1197  1.916   .     S
O1195  Zn1198  1.936   .     S
O1196  Zn1199  1.930   .     S
C1201  O1271   1.271   .     A
C1201  C1207   1.438   .     S
C1201  O1273   1.271   .     A
C1202  C1229   1.421   .     A
C1202  C1216   1.408   .     A
C1202  C1221   1.522   .     S
C1203  H1233   1.084   .     S
C1203  C1215   1.385   .     A
C1203  C1216   1.394   .     A
C1204  O1274   1.280   .     A
C1204  C1206   1.462   .     S
C1204  O1272   1.281   .     A
C1205  C1217   1.404   .     A
C1205  C1228   1.417   .     A
C1205  C1214   1.471   .     S
C1206  C1287   1.340   .     S
C1206  O1348   1.387   .     S
C1207  C1366   1.340   1_455 S
C1207  H1404   1.086   1_455 S
C1208  C1211   1.458   .     S
C1208  C729    1.336   1_565 S
C1208  O786    1.388   1_565 S
C1209  C1210   1.436   .     S
C1210  O1275   1.278   .     A
C1210  O1269   1.283   .     A
C1211  O1270   1.270   .     A
C1211  O1276   1.267   .     A
C1212  C1217   1.391   .     A
C1212  C503    1.398   1_556 S
C1212  O547    1.383   1_556 S
C1213  O1264   1.265   .     A
C1213  O1262   1.273   .     A
C1213  C1216   1.449   .     S
C1214  O1263   1.282   .     A
C1214  O1265   1.284   .     A
C1217  H1256   1.084   .     S
C1218  C1219   1.521   .     S
C1218  H1260   1.116   .     S
C1218  O1266   1.413   .     S
C1219  H1234   1.111   .     S
C1219  H1236   1.111   .     S
C1219  H1235   1.111   .     S
C1220  H1239   1.110   .     S
C1220  H1238   1.111   .     S
C1220  H1237   1.111   .     S
C1220  C1231   1.511   .     S
C1221  H1241   1.108   .     S
C1221  H1240   1.110   .     S
C1221  H1242   1.110   .     S
C1222  H1243   1.115   .     S
C1222  O1267   1.413   .     S
C1222  H1245   1.114   .     S
C1222  C1384   1.521   1_455 S
C1223  H1257   1.080   .     S
C1224  H1248   1.111   .     S
C1224  H1247   1.111   .     S
C1224  H1246   1.110   .     S
C1224  C1302   1.521   .     S
C1225  O1268   1.412   .     S
C1225  C1226   1.521   .     S
C1225  H1249   1.116   .     S
C1225  H1410   1.113   1_455 S
C1226  H1252   1.111   .     S
C1226  H1253   1.111   .     S
C1226  H1251   1.111   .     S
C1227  C1228   1.415   .     A
C1227  C503    1.413   1_556 S
C1227  C509    1.421   1_556 S
C1228  C1232   1.408   .     A
C1230  C1231   1.410   .     A
C1230  C495    1.405   1_556 S
C1230  C509    1.426   1_556 S
C1231  C1232   1.394   .     A
C1232  H1258   1.081   .     S
H1244  C1287   1.086   .     S
H1250  C1305   1.113   .     S
H1254  C729    1.087   1_565 S
H1255  C495    1.082   1_556 S
H1259  C738    1.113   1_565 S
O1261  Zn1280  1.931   .     S
O1261  Zn1277  1.967   .     S
O1261  Zn1278  1.946   .     S
O1261  Zn1279  1.924   .     S
O1262  Zn1278  1.932   .     S
O1263  Zn1280  1.948   .     S
O1264  Zn1279  1.943   .     S
O1265  Zn1277  1.930   .     S
O1268  C1366   1.387   1_455 S
O1269  Zn1277  1.925   .     S
O1270  Zn1280  1.926   .     S
O1271  Zn1278  1.923   .     S
O1272  Zn1279  1.938   .     S
O1273  Zn1280  1.930   .     S
O1274  Zn1277  1.916   .     S
O1275  Zn1278  1.936   .     S
O1276  Zn1279  1.930   .     S
C1281  O1351   1.271   .     A
C1281  C1287   1.438   .     S
C1281  O1353   1.271   .     A
C1282  C1309   1.421   .     A
C1282  C1296   1.408   .     A
C1282  C1301   1.522   .     S
C1283  H1313   1.084   .     S
C1283  C1295   1.385   .     A
C1283  C1296   1.394   .     A
C1284  O1354   1.280   .     A
C1284  C1286   1.462   .     S
C1284  O1352   1.281   .     A
C1285  C1297   1.404   .     A
C1285  C1308   1.417   .     A
C1285  C1294   1.471   .     S
C1286  C1367   1.340   .     S
C1286  O1428   1.387   .     S
C1288  C1291   1.458   .     S
C1288  C809    1.336   1_565 S
C1288  O866    1.388   1_565 S
C1289  C1290   1.436   .     S
C1290  O1355   1.278   .     A
C1290  O1349   1.283   .     A
C1291  O1350   1.270   .     A
C1291  O1356   1.267   .     A
C1292  C1297   1.391   .     A
C1292  C583    1.398   1_556 S
C1292  O627    1.383   1_556 S
C1293  O1344   1.265   .     A
C1293  O1342   1.273   .     A
C1293  C1296   1.449   .     S
C1294  O1343   1.282   .     A
C1294  O1345   1.284   .     A
C1297  H1336   1.084   .     S
C1298  C1299   1.521   .     S
C1298  H1340   1.116   .     S
C1298  O1346   1.413   .     S
C1299  H1314   1.111   .     S
C1299  H1316   1.111   .     S
C1299  H1315   1.111   .     S
C1300  H1319   1.110   .     S
C1300  H1318   1.111   .     S
C1300  H1317   1.111   .     S
C1300  C1311   1.511   .     S
C1301  H1321   1.108   .     S
C1301  H1320   1.110   .     S
C1301  H1322   1.110   .     S
C1302  H1323   1.115   .     S
C1302  O1347   1.413   .     S
C1302  H1325   1.114   .     S
C1303  H1337   1.080   .     S
C1304  H1328   1.111   .     S
C1304  H1327   1.111   .     S
C1304  H1326   1.110   .     S
C1304  C1382   1.521   .     S
C1305  O1348   1.412   .     S
C1305  C1306   1.521   .     S
C1305  H1329   1.116   .     S
C1306  H1332   1.111   .     S
C1306  H1333   1.111   .     S
C1306  H1331   1.111   .     S
C1307  C1308   1.415   .     A
C1307  C583    1.413   1_556 S
C1307  C589    1.421   1_556 S
C1308  C1312   1.408   .     A
C1310  C1311   1.410   .     A
C1310  C575    1.405   1_556 S
C1310  C589    1.426   1_556 S
C1311  C1312   1.394   .     A
C1312  H1338   1.081   .     S
H1324  C1367   1.086   .     S
H1330  C1385   1.113   .     S
H1334  C809    1.087   1_565 S
H1335  C575    1.082   1_556 S
H1339  C818    1.113   1_565 S
O1341  Zn1360  1.931   .     S
O1341  Zn1357  1.967   .     S
O1341  Zn1358  1.946   .     S
O1341  Zn1359  1.924   .     S
O1342  Zn1358  1.932   .     S
O1343  Zn1360  1.948   .     S
O1344  Zn1359  1.943   .     S
O1345  Zn1357  1.930   .     S
O1349  Zn1357  1.925   .     S
O1350  Zn1360  1.926   .     S
O1351  Zn1358  1.923   .     S
O1352  Zn1359  1.938   .     S
O1353  Zn1360  1.930   .     S
O1354  Zn1357  1.916   .     S
O1355  Zn1358  1.936   .     S
O1356  Zn1359  1.930   .     S
C1361  O1431   1.271   .     A
C1361  C1367   1.438   .     S
C1361  O1433   1.271   .     A
C1362  C1389   1.421   .     A
C1362  C1376   1.408   .     A
C1362  C1381   1.522   .     S
C1363  H1393   1.084   .     S
C1363  C1375   1.385   .     A
C1363  C1376   1.394   .     A
C1364  O1434   1.280   .     A
C1364  C1366   1.462   .     S
C1364  O1432   1.281   .     A
C1365  C1377   1.404   .     A
C1365  C1388   1.417   .     A
C1365  C1374   1.471   .     S
C1366  C1207   1.340   1_655 S
C1366  O1268   1.387   1_655 S
C1368  C1371   1.458   .     S
C1368  C889    1.336   1_565 S
C1368  O946    1.388   1_565 S
C1369  C1370   1.436   .     S
C1370  O1435   1.278   .     A
C1370  O1429   1.283   .     A
C1371  O1430   1.270   .     A
C1371  O1436   1.267   .     A
C1372  C1377   1.391   .     A
C1372  C663    1.398   1_556 S
C1372  O707    1.383   1_556 S
C1373  O1424   1.265   .     A
C1373  O1422   1.273   .     A
C1373  C1376   1.449   .     S
C1374  O1423   1.282   .     A
C1374  O1425   1.284   .     A
C1377  H1416   1.084   .     S
C1378  C1379   1.521   .     S
C1378  H1420   1.116   .     S
C1378  O1426   1.413   .     S
C1379  H1394   1.111   .     S
C1379  H1396   1.111   .     S
C1379  H1395   1.111   .     S
C1380  H1399   1.110   .     S
C1380  H1398   1.111   .     S
C1380  H1397   1.111   .     S
C1380  C1391   1.511   .     S
C1381  H1401   1.108   .     S
C1381  H1400   1.110   .     S
C1381  H1402   1.110   .     S
C1382  H1403   1.115   .     S
C1382  O1427   1.413   .     S
C1382  H1405   1.114   .     S
C1383  H1417   1.080   .     S
C1384  H1408   1.111   .     S
C1384  H1407   1.111   .     S
C1384  H1406   1.110   .     S
C1384  C1222   1.521   1_655 S
C1385  O1428   1.412   .     S
C1385  C1386   1.521   .     S
C1385  H1409   1.116   .     S
C1386  H1412   1.111   .     S
C1386  H1413   1.111   .     S
C1386  H1411   1.111   .     S
C1387  C1388   1.415   .     A
C1387  C663    1.413   1_556 S
C1387  C669    1.421   1_556 S
C1388  C1392   1.408   .     A
C1390  C1391   1.410   .     A
C1390  C655    1.405   1_556 S
C1390  C669    1.426   1_556 S
C1391  C1392   1.394   .     A
C1392  H1418   1.081   .     S
H1404  C1207   1.086   1_655 S
H1410  C1225   1.113   1_655 S
H1414  C889    1.087   1_565 S
H1415  C655    1.082   1_556 S
H1419  C898    1.113   1_565 S
O1421  Zn1440  1.931   .     S
O1421  Zn1437  1.967   .     S
O1421  Zn1438  1.946   .     S
O1421  Zn1439  1.924   .     S
O1422  Zn1438  1.932   .     S
O1423  Zn1440  1.948   .     S
O1424  Zn1439  1.943   .     S
O1425  Zn1437  1.930   .     S
O1429  Zn1437  1.925   .     S
O1430  Zn1440  1.926   .     S
O1431  Zn1438  1.923   .     S
O1432  Zn1439  1.938   .     S
O1433  Zn1440  1.930   .     S
O1434  Zn1437  1.916   .     S
O1435  Zn1438  1.936   .     S
O1436  Zn1439  1.930   .     S
