data_str_m1_o10_o16_pcu_sym.157
_audit_creation_date              2020-01-03
_audit_creation_method            'Materials Studio'
_symmetry_space_group_name_H-M    'P1'
_symmetry_Int_Tables_number       1
_symmetry_cell_setting            triclinic
loop_
_symmetry_equiv_pos_as_xyz
  x,y,z
_cell_length_a                    32.5438
_cell_length_b                    32.5072
_cell_length_c                    31.0467
_cell_angle_alpha                 96.7681
_cell_angle_beta                  74.8252
_cell_angle_gamma                 98.4545
loop_
_atom_site_label
_atom_site_type_symbol
_atom_site_fract_x
_atom_site_fract_y
_atom_site_fract_z
_atom_site_U_iso_or_equiv
_atom_site_adp_type
_atom_site_occupancy
C1     C     0.05270   0.15964   0.26003   0.00000  Uiso   1.00
C2     C     0.17820   0.16645   0.05785   0.00000  Uiso   1.00
C3     C     0.20235   0.10024   0.06129   0.00000  Uiso   1.00
C4     C     0.28074   0.17379   0.24004   0.00000  Uiso   1.00
C5     C     0.13950   0.19238   0.42064   0.00000  Uiso   1.00
C6     C     0.32658   0.17647   0.23602   0.00000  Uiso   1.00
C7     C     0.00743   0.15720   0.26396   0.00000  Uiso   1.00
C8     C     0.18032   0.32245   0.23668   0.00000  Uiso   1.00
C9     C     0.15164   0.01177   0.26392   0.00000  Uiso   1.00
C10    C     0.15599   0.05588   0.26028   0.00000  Uiso   1.00
C11    C     0.17652   0.27790   0.24023   0.00000  Uiso   1.00
C12    C     0.12757   0.24409   0.48478   0.00000  Uiso   1.00
C13    C     0.18530   0.14783   0.12940   0.00000  Uiso   1.00
C14    C     0.14759   0.18400   0.37124   0.00000  Uiso   1.00
C15    C     0.19828   0.08780   0.01811   0.00000  Uiso   1.00
C16    C     0.19154   0.13921   0.08136   0.00000  Uiso   1.00
C17    C     0.12515   0.23083   0.44097   0.00000  Uiso   1.00
C18    C     0.06717   0.25086   0.42535   0.00000  Uiso   1.00
C19    C     0.14810   0.31302   0.49852   0.00000  Uiso   1.00
C20    C     0.09195   0.09071   0.41469   0.00000  Uiso   1.00
C21    C     0.14300   0.21915   0.00897   0.00000  Uiso   1.00
C22    C     0.15512   0.17948   0.49079   0.00000  Uiso   1.00
C23    C     0.14956   0.16448   0.44743   0.00000  Uiso   1.00
C24    C     0.17180   0.15387   0.01475   0.00000  Uiso   1.00
C25    C     0.18148   0.11349   0.49546   0.00000  Uiso   1.00
C26    C     0.17145   0.09777   0.45535   0.00000  Uiso   1.00
C27    C     0.15298   0.12163   0.43294   0.00000  Uiso   1.00
H28    H     0.31912   0.13949   0.29015   0.00000  Uiso   1.00
H29    H     0.05567   0.21789   0.41588   0.00000  Uiso   1.00
H30    H     0.05692   0.27095   0.40455   0.00000  Uiso   1.00
H31    H     0.14408   0.23177   0.04232   0.00000  Uiso   1.00
H32    H     0.16286   0.31658   0.46231   0.00000  Uiso   1.00
H33    H     0.17264   0.30722   0.01550   0.00000  Uiso   1.00
H34    H     0.13615   0.00965   0.01375   0.00000  Uiso   1.00
H35    H     0.07891   0.07380   0.38703   0.00000  Uiso   1.00
H36    H     0.07510   0.11892   0.42639   0.00000  Uiso   1.00
H37    H     0.08500   0.06947   0.44204   0.00000  Uiso   1.00
H38    H     0.20676   0.00363   0.21166   0.00000  Uiso   1.00
H39    H     0.17567   0.06578   0.44240   0.00000  Uiso   1.00
H40    H     0.20621   0.05720   0.00332   0.00000  Uiso   1.00
H41    H     0.17057   0.19600   0.07548   0.00000  Uiso   1.00
H42    H     0.01558   0.19417   0.21019   0.00000  Uiso   1.00
H43    H     0.21226   0.07883   0.07976   0.00000  Uiso   1.00
H44    H     0.12481   0.33140   0.28905   0.00000  Uiso   1.00
H45    H     0.05167   0.25966   0.46101   0.00000  Uiso   1.00
O46    O     0.16667   0.16667   0.25000   0.00000  Uiso   1.00
O47    O     0.15451   0.12637   0.15459   0.00000  Uiso   1.00
O48    O     0.12940   0.20391   0.34968   0.00000  Uiso   1.00
O49    O     0.20824   0.17759   0.14606   0.00000  Uiso   1.00
O50    O     0.17451   0.15880   0.34968   0.00000  Uiso   1.00
O51    O     0.11228   0.25761   0.41695   0.00000  Uiso   1.00
O52    O     0.11311   0.28130   0.00486   0.00000  Uiso   1.00
O53    O     0.13645   0.10151   0.39823   0.00000  Uiso   1.00
O54    O     0.17930   0.08019   0.28214   0.00000  Uiso   1.00
O55    O     0.14632   0.26085   0.27013   0.00000  Uiso   1.00
O56    O     0.07412   0.13291   0.23413   0.00000  Uiso   1.00
O57    O     0.26693   0.19272   0.21361   0.00000  Uiso   1.00
O58    O     0.07071   0.18878   0.28213   0.00000  Uiso   1.00
O59    O     0.25491   0.15226   0.27014   0.00000  Uiso   1.00
O60    O     0.13760   0.06944   0.23413   0.00000  Uiso   1.00
O61    O     0.20345   0.25620   0.21361   0.00000  Uiso   1.00
Zn62   Zn    0.19338   0.13994   0.28734   0.00000  Uiso   1.00
Zn63   Zn    0.13379   0.12458   0.21876   0.00000  Uiso   1.00
Zn64   Zn    0.21056   0.19775   0.20657   0.00000  Uiso   1.00
Zn65   Zn    0.12893   0.20439   0.28734   0.00000  Uiso   1.00
C66    C     0.38603   0.15964   0.26003   0.00000  Uiso   1.00
C67    C     0.51153   0.16645   0.05785   0.00000  Uiso   1.00
C68    C     0.53569   0.10024   0.06129   0.00000  Uiso   1.00
C69    C     0.61407   0.17379   0.24004   0.00000  Uiso   1.00
C70    C     0.47283   0.19238   0.42064   0.00000  Uiso   1.00
C71    C     0.65992   0.17647   0.23602   0.00000  Uiso   1.00
C72    C     0.34076   0.15720   0.26396   0.00000  Uiso   1.00
C73    C     0.51365   0.32245   0.23668   0.00000  Uiso   1.00
C74    C     0.48497   0.01177   0.26392   0.00000  Uiso   1.00
C75    C     0.48933   0.05588   0.26028   0.00000  Uiso   1.00
C76    C     0.50985   0.27790   0.24023   0.00000  Uiso   1.00
C77    C     0.46091   0.24409   0.48478   0.00000  Uiso   1.00
C78    C     0.51863   0.14783   0.12940   0.00000  Uiso   1.00
C79    C     0.48092   0.18400   0.37124   0.00000  Uiso   1.00
C80    C     0.53161   0.08780   0.01811   0.00000  Uiso   1.00
C81    C     0.52487   0.13921   0.08136   0.00000  Uiso   1.00
C82    C     0.45848   0.23083   0.44097   0.00000  Uiso   1.00
C83    C     0.40050   0.25086   0.42535   0.00000  Uiso   1.00
C84    C     0.48143   0.31302   0.49852   0.00000  Uiso   1.00
C85    C     0.42528   0.09071   0.41469   0.00000  Uiso   1.00
C86    C     0.47634   0.21915   0.00897   0.00000  Uiso   1.00
C87    C     0.48846   0.17948   0.49079   0.00000  Uiso   1.00
C88    C     0.48290   0.16448   0.44743   0.00000  Uiso   1.00
C89    C     0.50514   0.15387   0.01475   0.00000  Uiso   1.00
C90    C     0.51482   0.11349   0.49546   0.00000  Uiso   1.00
C91    C     0.50478   0.09777   0.45535   0.00000  Uiso   1.00
C92    C     0.48631   0.12163   0.43294   0.00000  Uiso   1.00
H93    H     0.65246   0.13949   0.29015   0.00000  Uiso   1.00
H94    H     0.38900   0.21789   0.41588   0.00000  Uiso   1.00
H95    H     0.39025   0.27095   0.40455   0.00000  Uiso   1.00
H96    H     0.47741   0.23177   0.04232   0.00000  Uiso   1.00
H97    H     0.49619   0.31658   0.46231   0.00000  Uiso   1.00
H98    H     0.50597   0.30722   0.01550   0.00000  Uiso   1.00
H99    H     0.46948   0.00965   0.01375   0.00000  Uiso   1.00
H100   H     0.41224   0.07380   0.38703   0.00000  Uiso   1.00
H101   H     0.40844   0.11892   0.42639   0.00000  Uiso   1.00
H102   H     0.41833   0.06947   0.44204   0.00000  Uiso   1.00
H103   H     0.54010   0.00363   0.21166   0.00000  Uiso   1.00
H104   H     0.50900   0.06578   0.44240   0.00000  Uiso   1.00
H105   H     0.53954   0.05720   0.00332   0.00000  Uiso   1.00
H106   H     0.50390   0.19600   0.07548   0.00000  Uiso   1.00
H107   H     0.34891   0.19417   0.21019   0.00000  Uiso   1.00
H108   H     0.54559   0.07883   0.07976   0.00000  Uiso   1.00
H109   H     0.45814   0.33140   0.28905   0.00000  Uiso   1.00
H110   H     0.38501   0.25966   0.46101   0.00000  Uiso   1.00
O111   O     0.50000   0.16667   0.25000   0.00000  Uiso   1.00
O112   O     0.48784   0.12637   0.15459   0.00000  Uiso   1.00
O113   O     0.46274   0.20391   0.34968   0.00000  Uiso   1.00
O114   O     0.54157   0.17759   0.14606   0.00000  Uiso   1.00
O115   O     0.50785   0.15880   0.34968   0.00000  Uiso   1.00
O116   O     0.44562   0.25761   0.41695   0.00000  Uiso   1.00
O117   O     0.44644   0.28130   0.00486   0.00000  Uiso   1.00
O118   O     0.46979   0.10151   0.39823   0.00000  Uiso   1.00
O119   O     0.51264   0.08019   0.28214   0.00000  Uiso   1.00
O120   O     0.47965   0.26085   0.27013   0.00000  Uiso   1.00
O121   O     0.40745   0.13291   0.23413   0.00000  Uiso   1.00
O122   O     0.60026   0.19272   0.21361   0.00000  Uiso   1.00
O123   O     0.40405   0.18878   0.28213   0.00000  Uiso   1.00
O124   O     0.58824   0.15226   0.27014   0.00000  Uiso   1.00
O125   O     0.47093   0.06944   0.23413   0.00000  Uiso   1.00
O126   O     0.53678   0.25620   0.21361   0.00000  Uiso   1.00
Zn127  Zn    0.52672   0.13994   0.28734   0.00000  Uiso   1.00
Zn128  Zn    0.46713   0.12458   0.21876   0.00000  Uiso   1.00
Zn129  Zn    0.54389   0.19775   0.20657   0.00000  Uiso   1.00
Zn130  Zn    0.46226   0.20439   0.28734   0.00000  Uiso   1.00
C131   C     0.71937   0.15964   0.26003   0.00000  Uiso   1.00
C132   C     0.84486   0.16645   0.05785   0.00000  Uiso   1.00
C133   C     0.86902   0.10024   0.06129   0.00000  Uiso   1.00
C134   C     0.94741   0.17379   0.24004   0.00000  Uiso   1.00
C135   C     0.80616   0.19238   0.42064   0.00000  Uiso   1.00
C136   C     0.99325   0.17647   0.23602   0.00000  Uiso   1.00
C137   C     0.67410   0.15720   0.26396   0.00000  Uiso   1.00
C138   C     0.84699   0.32245   0.23668   0.00000  Uiso   1.00
C139   C     0.81831   0.01177   0.26392   0.00000  Uiso   1.00
C140   C     0.82266   0.05588   0.26028   0.00000  Uiso   1.00
C141   C     0.84319   0.27790   0.24023   0.00000  Uiso   1.00
C142   C     0.79424   0.24409   0.48478   0.00000  Uiso   1.00
C143   C     0.85196   0.14783   0.12940   0.00000  Uiso   1.00
C144   C     0.81425   0.18400   0.37124   0.00000  Uiso   1.00
C145   C     0.86495   0.08780   0.01811   0.00000  Uiso   1.00
C146   C     0.85820   0.13921   0.08136   0.00000  Uiso   1.00
C147   C     0.79182   0.23083   0.44097   0.00000  Uiso   1.00
C148   C     0.73383   0.25086   0.42535   0.00000  Uiso   1.00
C149   C     0.81477   0.31302   0.49852   0.00000  Uiso   1.00
C150   C     0.75861   0.09071   0.41469   0.00000  Uiso   1.00
C151   C     0.80967   0.21915   0.00897   0.00000  Uiso   1.00
C152   C     0.82179   0.17948   0.49079   0.00000  Uiso   1.00
C153   C     0.81623   0.16448   0.44743   0.00000  Uiso   1.00
C154   C     0.83847   0.15387   0.01475   0.00000  Uiso   1.00
C155   C     0.84815   0.11349   0.49546   0.00000  Uiso   1.00
C156   C     0.83812   0.09777   0.45535   0.00000  Uiso   1.00
C157   C     0.81965   0.12163   0.43294   0.00000  Uiso   1.00
H158   H     0.98579   0.13949   0.29015   0.00000  Uiso   1.00
H159   H     0.72233   0.21789   0.41588   0.00000  Uiso   1.00
H160   H     0.72358   0.27095   0.40455   0.00000  Uiso   1.00
H161   H     0.81075   0.23177   0.04232   0.00000  Uiso   1.00
H162   H     0.82952   0.31658   0.46231   0.00000  Uiso   1.00
H163   H     0.83931   0.30722   0.01550   0.00000  Uiso   1.00
H164   H     0.80282   0.00965   0.01375   0.00000  Uiso   1.00
H165   H     0.74558   0.07380   0.38703   0.00000  Uiso   1.00
H166   H     0.74177   0.11892   0.42639   0.00000  Uiso   1.00
H167   H     0.75166   0.06947   0.44204   0.00000  Uiso   1.00
H168   H     0.87343   0.00363   0.21166   0.00000  Uiso   1.00
H169   H     0.84233   0.06578   0.44240   0.00000  Uiso   1.00
H170   H     0.87287   0.05720   0.00332   0.00000  Uiso   1.00
H171   H     0.83723   0.19600   0.07548   0.00000  Uiso   1.00
H172   H     0.68224   0.19417   0.21019   0.00000  Uiso   1.00
H173   H     0.87892   0.07883   0.07976   0.00000  Uiso   1.00
H174   H     0.79147   0.33140   0.28905   0.00000  Uiso   1.00
H175   H     0.71834   0.25966   0.46101   0.00000  Uiso   1.00
O176   O     0.83333   0.16667   0.25000   0.00000  Uiso   1.00
O177   O     0.82118   0.12637   0.15459   0.00000  Uiso   1.00
O178   O     0.79607   0.20391   0.34968   0.00000  Uiso   1.00
O179   O     0.87491   0.17759   0.14606   0.00000  Uiso   1.00
O180   O     0.84118   0.15880   0.34968   0.00000  Uiso   1.00
O181   O     0.77895   0.25761   0.41695   0.00000  Uiso   1.00
O182   O     0.77978   0.28130   0.00486   0.00000  Uiso   1.00
O183   O     0.80312   0.10151   0.39823   0.00000  Uiso   1.00
O184   O     0.84597   0.08019   0.28214   0.00000  Uiso   1.00
O185   O     0.81298   0.26085   0.27013   0.00000  Uiso   1.00
O186   O     0.74078   0.13291   0.23413   0.00000  Uiso   1.00
O187   O     0.93360   0.19272   0.21361   0.00000  Uiso   1.00
O188   O     0.73738   0.18878   0.28213   0.00000  Uiso   1.00
O189   O     0.92158   0.15226   0.27014   0.00000  Uiso   1.00
O190   O     0.80426   0.06944   0.23413   0.00000  Uiso   1.00
O191   O     0.87012   0.25620   0.21361   0.00000  Uiso   1.00
Zn192  Zn    0.86005   0.13994   0.28734   0.00000  Uiso   1.00
Zn193  Zn    0.80046   0.12458   0.21876   0.00000  Uiso   1.00
Zn194  Zn    0.87723   0.19775   0.20657   0.00000  Uiso   1.00
Zn195  Zn    0.79560   0.20439   0.28734   0.00000  Uiso   1.00
C196   C     0.05270   0.49297   0.26003   0.00000  Uiso   1.00
C197   C     0.17820   0.49979   0.05785   0.00000  Uiso   1.00
C198   C     0.20235   0.43358   0.06129   0.00000  Uiso   1.00
C199   C     0.28074   0.50713   0.24004   0.00000  Uiso   1.00
C200   C     0.13950   0.52571   0.42064   0.00000  Uiso   1.00
C201   C     0.32658   0.50980   0.23602   0.00000  Uiso   1.00
C202   C     0.00743   0.49053   0.26396   0.00000  Uiso   1.00
C203   C     0.18032   0.65578   0.23668   0.00000  Uiso   1.00
C204   C     0.15164   0.34510   0.26392   0.00000  Uiso   1.00
C205   C     0.15599   0.38921   0.26028   0.00000  Uiso   1.00
C206   C     0.17652   0.61123   0.24023   0.00000  Uiso   1.00
C207   C     0.12757   0.57742   0.48478   0.00000  Uiso   1.00
C208   C     0.18530   0.48116   0.12940   0.00000  Uiso   1.00
C209   C     0.14759   0.51734   0.37124   0.00000  Uiso   1.00
C210   C     0.19828   0.42114   0.01811   0.00000  Uiso   1.00
C211   C     0.19154   0.47254   0.08136   0.00000  Uiso   1.00
C212   C     0.12515   0.56416   0.44097   0.00000  Uiso   1.00
C213   C     0.06717   0.58420   0.42535   0.00000  Uiso   1.00
C214   C     0.14810   0.64635   0.49852   0.00000  Uiso   1.00
C215   C     0.09195   0.42404   0.41469   0.00000  Uiso   1.00
C216   C     0.14300   0.55248   0.00897   0.00000  Uiso   1.00
C217   C     0.15512   0.51281   0.49079   0.00000  Uiso   1.00
C218   C     0.14956   0.49782   0.44743   0.00000  Uiso   1.00
C219   C     0.17180   0.48721   0.01475   0.00000  Uiso   1.00
C220   C     0.18148   0.44683   0.49546   0.00000  Uiso   1.00
C221   C     0.17145   0.43111   0.45535   0.00000  Uiso   1.00
C222   C     0.15298   0.45497   0.43294   0.00000  Uiso   1.00
H223   H     0.31912   0.47283   0.29015   0.00000  Uiso   1.00
H224   H     0.05567   0.55122   0.41588   0.00000  Uiso   1.00
H225   H     0.05692   0.60429   0.40455   0.00000  Uiso   1.00
H226   H     0.14408   0.56510   0.04232   0.00000  Uiso   1.00
H227   H     0.16286   0.64991   0.46231   0.00000  Uiso   1.00
H228   H     0.17264   0.64056   0.01550   0.00000  Uiso   1.00
H229   H     0.13615   0.34298   0.01375   0.00000  Uiso   1.00
H230   H     0.07891   0.40713   0.38703   0.00000  Uiso   1.00
H231   H     0.07510   0.45226   0.42639   0.00000  Uiso   1.00
H232   H     0.08500   0.40281   0.44204   0.00000  Uiso   1.00
H233   H     0.20676   0.33696   0.21166   0.00000  Uiso   1.00
H234   H     0.17567   0.39911   0.44240   0.00000  Uiso   1.00
H235   H     0.20621   0.39053   0.00332   0.00000  Uiso   1.00
H236   H     0.17057   0.52933   0.07548   0.00000  Uiso   1.00
H237   H     0.01558   0.52750   0.21019   0.00000  Uiso   1.00
H238   H     0.21226   0.41217   0.07976   0.00000  Uiso   1.00
H239   H     0.12481   0.66474   0.28905   0.00000  Uiso   1.00
H240   H     0.05167   0.59299   0.46101   0.00000  Uiso   1.00
O241   O     0.16667   0.50000   0.25000   0.00000  Uiso   1.00
O242   O     0.15451   0.45970   0.15459   0.00000  Uiso   1.00
O243   O     0.12940   0.53724   0.34968   0.00000  Uiso   1.00
O244   O     0.20824   0.51092   0.14606   0.00000  Uiso   1.00
O245   O     0.17451   0.49213   0.34968   0.00000  Uiso   1.00
O246   O     0.11228   0.59094   0.41695   0.00000  Uiso   1.00
O247   O     0.11311   0.61463   0.00486   0.00000  Uiso   1.00
O248   O     0.13645   0.43485   0.39823   0.00000  Uiso   1.00
O249   O     0.17930   0.41352   0.28214   0.00000  Uiso   1.00
O250   O     0.14632   0.59418   0.27013   0.00000  Uiso   1.00
O251   O     0.07412   0.46625   0.23413   0.00000  Uiso   1.00
O252   O     0.26693   0.52605   0.21361   0.00000  Uiso   1.00
O253   O     0.07071   0.52211   0.28213   0.00000  Uiso   1.00
O254   O     0.25491   0.48559   0.27014   0.00000  Uiso   1.00
O255   O     0.13760   0.40277   0.23413   0.00000  Uiso   1.00
O256   O     0.20345   0.58953   0.21361   0.00000  Uiso   1.00
Zn257  Zn    0.19338   0.47327   0.28734   0.00000  Uiso   1.00
Zn258  Zn    0.13379   0.45791   0.21876   0.00000  Uiso   1.00
Zn259  Zn    0.21056   0.53109   0.20657   0.00000  Uiso   1.00
Zn260  Zn    0.12893   0.53773   0.28734   0.00000  Uiso   1.00
C261   C     0.38603   0.49297   0.26003   0.00000  Uiso   1.00
C262   C     0.51153   0.49979   0.05785   0.00000  Uiso   1.00
C263   C     0.53569   0.43358   0.06129   0.00000  Uiso   1.00
C264   C     0.61407   0.50713   0.24004   0.00000  Uiso   1.00
C265   C     0.47283   0.52571   0.42064   0.00000  Uiso   1.00
C266   C     0.65992   0.50980   0.23602   0.00000  Uiso   1.00
C267   C     0.34076   0.49053   0.26396   0.00000  Uiso   1.00
C268   C     0.51365   0.65578   0.23668   0.00000  Uiso   1.00
C269   C     0.48497   0.34510   0.26392   0.00000  Uiso   1.00
C270   C     0.48933   0.38921   0.26028   0.00000  Uiso   1.00
C271   C     0.50985   0.61123   0.24023   0.00000  Uiso   1.00
C272   C     0.46091   0.57742   0.48478   0.00000  Uiso   1.00
C273   C     0.51863   0.48116   0.12940   0.00000  Uiso   1.00
C274   C     0.48092   0.51734   0.37124   0.00000  Uiso   1.00
C275   C     0.53161   0.42114   0.01811   0.00000  Uiso   1.00
C276   C     0.52487   0.47254   0.08136   0.00000  Uiso   1.00
C277   C     0.45848   0.56416   0.44097   0.00000  Uiso   1.00
C278   C     0.40050   0.58420   0.42535   0.00000  Uiso   1.00
C279   C     0.48143   0.64635   0.49852   0.00000  Uiso   1.00
C280   C     0.42528   0.42404   0.41469   0.00000  Uiso   1.00
C281   C     0.47634   0.55248   0.00897   0.00000  Uiso   1.00
C282   C     0.48846   0.51281   0.49079   0.00000  Uiso   1.00
C283   C     0.48290   0.49782   0.44743   0.00000  Uiso   1.00
C284   C     0.50514   0.48721   0.01475   0.00000  Uiso   1.00
C285   C     0.51482   0.44683   0.49546   0.00000  Uiso   1.00
C286   C     0.50478   0.43111   0.45535   0.00000  Uiso   1.00
C287   C     0.48631   0.45497   0.43294   0.00000  Uiso   1.00
H288   H     0.65246   0.47283   0.29015   0.00000  Uiso   1.00
H289   H     0.38900   0.55122   0.41588   0.00000  Uiso   1.00
H290   H     0.39025   0.60429   0.40455   0.00000  Uiso   1.00
H291   H     0.47741   0.56510   0.04232   0.00000  Uiso   1.00
H292   H     0.49619   0.64991   0.46231   0.00000  Uiso   1.00
H293   H     0.50597   0.64056   0.01550   0.00000  Uiso   1.00
H294   H     0.46948   0.34298   0.01375   0.00000  Uiso   1.00
H295   H     0.41224   0.40713   0.38703   0.00000  Uiso   1.00
H296   H     0.40844   0.45226   0.42639   0.00000  Uiso   1.00
H297   H     0.41833   0.40281   0.44204   0.00000  Uiso   1.00
H298   H     0.54010   0.33696   0.21166   0.00000  Uiso   1.00
H299   H     0.50900   0.39911   0.44240   0.00000  Uiso   1.00
H300   H     0.53954   0.39053   0.00332   0.00000  Uiso   1.00
H301   H     0.50390   0.52933   0.07548   0.00000  Uiso   1.00
H302   H     0.34891   0.52750   0.21019   0.00000  Uiso   1.00
H303   H     0.54559   0.41217   0.07976   0.00000  Uiso   1.00
H304   H     0.45814   0.66474   0.28905   0.00000  Uiso   1.00
H305   H     0.38501   0.59299   0.46101   0.00000  Uiso   1.00
O306   O     0.50000   0.50000   0.25000   0.00000  Uiso   1.00
O307   O     0.48784   0.45970   0.15459   0.00000  Uiso   1.00
O308   O     0.46274   0.53724   0.34968   0.00000  Uiso   1.00
O309   O     0.54157   0.51092   0.14606   0.00000  Uiso   1.00
O310   O     0.50785   0.49213   0.34968   0.00000  Uiso   1.00
O311   O     0.44562   0.59094   0.41695   0.00000  Uiso   1.00
O312   O     0.44644   0.61463   0.00486   0.00000  Uiso   1.00
O313   O     0.46979   0.43485   0.39823   0.00000  Uiso   1.00
O314   O     0.51264   0.41352   0.28214   0.00000  Uiso   1.00
O315   O     0.47965   0.59418   0.27013   0.00000  Uiso   1.00
O316   O     0.40745   0.46625   0.23413   0.00000  Uiso   1.00
O317   O     0.60026   0.52605   0.21361   0.00000  Uiso   1.00
O318   O     0.40405   0.52211   0.28213   0.00000  Uiso   1.00
O319   O     0.58824   0.48559   0.27014   0.00000  Uiso   1.00
O320   O     0.47093   0.40277   0.23413   0.00000  Uiso   1.00
O321   O     0.53678   0.58953   0.21361   0.00000  Uiso   1.00
Zn322  Zn    0.52672   0.47327   0.28734   0.00000  Uiso   1.00
Zn323  Zn    0.46713   0.45791   0.21876   0.00000  Uiso   1.00
Zn324  Zn    0.54389   0.53109   0.20657   0.00000  Uiso   1.00
Zn325  Zn    0.46226   0.53773   0.28734   0.00000  Uiso   1.00
C326   C     0.71937   0.49297   0.26003   0.00000  Uiso   1.00
C327   C     0.84486   0.49979   0.05785   0.00000  Uiso   1.00
C328   C     0.86902   0.43358   0.06129   0.00000  Uiso   1.00
C329   C     0.94741   0.50713   0.24004   0.00000  Uiso   1.00
C330   C     0.80616   0.52571   0.42064   0.00000  Uiso   1.00
C331   C     0.99325   0.50980   0.23602   0.00000  Uiso   1.00
C332   C     0.67410   0.49053   0.26396   0.00000  Uiso   1.00
C333   C     0.84699   0.65578   0.23668   0.00000  Uiso   1.00
C334   C     0.81831   0.34510   0.26392   0.00000  Uiso   1.00
C335   C     0.82266   0.38921   0.26028   0.00000  Uiso   1.00
C336   C     0.84319   0.61123   0.24023   0.00000  Uiso   1.00
C337   C     0.79424   0.57742   0.48478   0.00000  Uiso   1.00
C338   C     0.85196   0.48116   0.12940   0.00000  Uiso   1.00
C339   C     0.81425   0.51734   0.37124   0.00000  Uiso   1.00
C340   C     0.86495   0.42114   0.01811   0.00000  Uiso   1.00
C341   C     0.85820   0.47254   0.08136   0.00000  Uiso   1.00
C342   C     0.79182   0.56416   0.44097   0.00000  Uiso   1.00
C343   C     0.73383   0.58420   0.42535   0.00000  Uiso   1.00
C344   C     0.81477   0.64635   0.49852   0.00000  Uiso   1.00
C345   C     0.75861   0.42404   0.41469   0.00000  Uiso   1.00
C346   C     0.80967   0.55248   0.00897   0.00000  Uiso   1.00
C347   C     0.82179   0.51281   0.49079   0.00000  Uiso   1.00
C348   C     0.81623   0.49782   0.44743   0.00000  Uiso   1.00
C349   C     0.83847   0.48721   0.01475   0.00000  Uiso   1.00
C350   C     0.84815   0.44683   0.49546   0.00000  Uiso   1.00
C351   C     0.83812   0.43111   0.45535   0.00000  Uiso   1.00
C352   C     0.81965   0.45497   0.43294   0.00000  Uiso   1.00
H353   H     0.98579   0.47283   0.29015   0.00000  Uiso   1.00
H354   H     0.72233   0.55122   0.41588   0.00000  Uiso   1.00
H355   H     0.72358   0.60429   0.40455   0.00000  Uiso   1.00
H356   H     0.81075   0.56510   0.04232   0.00000  Uiso   1.00
H357   H     0.82952   0.64991   0.46231   0.00000  Uiso   1.00
H358   H     0.83931   0.64056   0.01550   0.00000  Uiso   1.00
H359   H     0.80282   0.34298   0.01375   0.00000  Uiso   1.00
H360   H     0.74558   0.40713   0.38703   0.00000  Uiso   1.00
H361   H     0.74177   0.45226   0.42639   0.00000  Uiso   1.00
H362   H     0.75166   0.40281   0.44204   0.00000  Uiso   1.00
H363   H     0.87343   0.33696   0.21166   0.00000  Uiso   1.00
H364   H     0.84233   0.39911   0.44240   0.00000  Uiso   1.00
H365   H     0.87287   0.39053   0.00332   0.00000  Uiso   1.00
H366   H     0.83723   0.52933   0.07548   0.00000  Uiso   1.00
H367   H     0.68224   0.52750   0.21019   0.00000  Uiso   1.00
H368   H     0.87892   0.41217   0.07976   0.00000  Uiso   1.00
H369   H     0.79147   0.66474   0.28905   0.00000  Uiso   1.00
H370   H     0.71834   0.59299   0.46101   0.00000  Uiso   1.00
O371   O     0.83333   0.50000   0.25000   0.00000  Uiso   1.00
O372   O     0.82118   0.45970   0.15459   0.00000  Uiso   1.00
O373   O     0.79607   0.53724   0.34968   0.00000  Uiso   1.00
O374   O     0.87491   0.51092   0.14606   0.00000  Uiso   1.00
O375   O     0.84118   0.49213   0.34968   0.00000  Uiso   1.00
O376   O     0.77895   0.59094   0.41695   0.00000  Uiso   1.00
O377   O     0.77978   0.61463   0.00486   0.00000  Uiso   1.00
O378   O     0.80312   0.43485   0.39823   0.00000  Uiso   1.00
O379   O     0.84597   0.41352   0.28214   0.00000  Uiso   1.00
O380   O     0.81298   0.59418   0.27013   0.00000  Uiso   1.00
O381   O     0.74078   0.46625   0.23413   0.00000  Uiso   1.00
O382   O     0.93360   0.52605   0.21361   0.00000  Uiso   1.00
O383   O     0.73738   0.52211   0.28213   0.00000  Uiso   1.00
O384   O     0.92158   0.48559   0.27014   0.00000  Uiso   1.00
O385   O     0.80426   0.40277   0.23413   0.00000  Uiso   1.00
O386   O     0.87012   0.58953   0.21361   0.00000  Uiso   1.00
Zn387  Zn    0.86005   0.47327   0.28734   0.00000  Uiso   1.00
Zn388  Zn    0.80046   0.45791   0.21876   0.00000  Uiso   1.00
Zn389  Zn    0.87723   0.53109   0.20657   0.00000  Uiso   1.00
Zn390  Zn    0.79560   0.53773   0.28734   0.00000  Uiso   1.00
C391   C     0.05270   0.82630   0.26003   0.00000  Uiso   1.00
C392   C     0.17820   0.83312   0.05785   0.00000  Uiso   1.00
C393   C     0.20235   0.76691   0.06129   0.00000  Uiso   1.00
C394   C     0.28074   0.84046   0.24004   0.00000  Uiso   1.00
C395   C     0.13950   0.85905   0.42064   0.00000  Uiso   1.00
C396   C     0.32658   0.84314   0.23602   0.00000  Uiso   1.00
C397   C     0.00743   0.82387   0.26396   0.00000  Uiso   1.00
C398   C     0.18032   0.98912   0.23668   0.00000  Uiso   1.00
C399   C     0.15164   0.67844   0.26392   0.00000  Uiso   1.00
C400   C     0.15599   0.72254   0.26028   0.00000  Uiso   1.00
C401   C     0.17652   0.94456   0.24023   0.00000  Uiso   1.00
C402   C     0.12757   0.91076   0.48478   0.00000  Uiso   1.00
C403   C     0.18530   0.81450   0.12940   0.00000  Uiso   1.00
C404   C     0.14759   0.85067   0.37124   0.00000  Uiso   1.00
C405   C     0.19828   0.75447   0.01811   0.00000  Uiso   1.00
C406   C     0.19154   0.80587   0.08136   0.00000  Uiso   1.00
C407   C     0.12515   0.89749   0.44097   0.00000  Uiso   1.00
C408   C     0.06717   0.91753   0.42535   0.00000  Uiso   1.00
C409   C     0.14810   0.97969   0.49852   0.00000  Uiso   1.00
C410   C     0.09195   0.75738   0.41469   0.00000  Uiso   1.00
C411   C     0.14300   0.88582   0.00897   0.00000  Uiso   1.00
C412   C     0.15512   0.84615   0.49079   0.00000  Uiso   1.00
C413   C     0.14956   0.83115   0.44743   0.00000  Uiso   1.00
C414   C     0.17180   0.82054   0.01475   0.00000  Uiso   1.00
C415   C     0.18148   0.78016   0.49546   0.00000  Uiso   1.00
C416   C     0.17145   0.76444   0.45535   0.00000  Uiso   1.00
C417   C     0.15298   0.78830   0.43294   0.00000  Uiso   1.00
H418   H     0.31912   0.80616   0.29015   0.00000  Uiso   1.00
H419   H     0.05567   0.88456   0.41588   0.00000  Uiso   1.00
H420   H     0.05692   0.93762   0.40455   0.00000  Uiso   1.00
H421   H     0.14408   0.89844   0.04232   0.00000  Uiso   1.00
H422   H     0.16286   0.98325   0.46231   0.00000  Uiso   1.00
H423   H     0.17264   0.97389   0.01550   0.00000  Uiso   1.00
H424   H     0.13615   0.67632   0.01375   0.00000  Uiso   1.00
H425   H     0.07891   0.74047   0.38703   0.00000  Uiso   1.00
H426   H     0.07510   0.78559   0.42639   0.00000  Uiso   1.00
H427   H     0.08500   0.73614   0.44204   0.00000  Uiso   1.00
H428   H     0.20676   0.67029   0.21166   0.00000  Uiso   1.00
H429   H     0.17567   0.73245   0.44240   0.00000  Uiso   1.00
H430   H     0.20621   0.72386   0.00332   0.00000  Uiso   1.00
H431   H     0.17057   0.86267   0.07548   0.00000  Uiso   1.00
H432   H     0.01558   0.86084   0.21019   0.00000  Uiso   1.00
H433   H     0.21226   0.74550   0.07976   0.00000  Uiso   1.00
H434   H     0.12481   0.99807   0.28905   0.00000  Uiso   1.00
H435   H     0.05167   0.92633   0.46101   0.00000  Uiso   1.00
O436   O     0.16667   0.83333   0.25000   0.00000  Uiso   1.00
O437   O     0.15451   0.79304   0.15459   0.00000  Uiso   1.00
O438   O     0.12940   0.87058   0.34968   0.00000  Uiso   1.00
O439   O     0.20824   0.84425   0.14606   0.00000  Uiso   1.00
O440   O     0.17451   0.82546   0.34968   0.00000  Uiso   1.00
O441   O     0.11228   0.92428   0.41695   0.00000  Uiso   1.00
O442   O     0.11311   0.94797   0.00486   0.00000  Uiso   1.00
O443   O     0.13645   0.76818   0.39823   0.00000  Uiso   1.00
O444   O     0.17930   0.74686   0.28214   0.00000  Uiso   1.00
O445   O     0.14632   0.92751   0.27013   0.00000  Uiso   1.00
O446   O     0.07412   0.79958   0.23413   0.00000  Uiso   1.00
O447   O     0.26693   0.85939   0.21361   0.00000  Uiso   1.00
O448   O     0.07071   0.85544   0.28213   0.00000  Uiso   1.00
O449   O     0.25491   0.81892   0.27014   0.00000  Uiso   1.00
O450   O     0.13760   0.73610   0.23413   0.00000  Uiso   1.00
O451   O     0.20345   0.92286   0.21361   0.00000  Uiso   1.00
Zn452  Zn    0.19338   0.80661   0.28734   0.00000  Uiso   1.00
Zn453  Zn    0.13379   0.79124   0.21876   0.00000  Uiso   1.00
Zn454  Zn    0.21056   0.86442   0.20657   0.00000  Uiso   1.00
Zn455  Zn    0.12893   0.87106   0.28734   0.00000  Uiso   1.00
C456   C     0.38603   0.82630   0.26003   0.00000  Uiso   1.00
C457   C     0.51153   0.83312   0.05785   0.00000  Uiso   1.00
C458   C     0.53569   0.76691   0.06129   0.00000  Uiso   1.00
C459   C     0.61407   0.84046   0.24004   0.00000  Uiso   1.00
C460   C     0.47283   0.85905   0.42064   0.00000  Uiso   1.00
C461   C     0.65992   0.84314   0.23602   0.00000  Uiso   1.00
C462   C     0.34076   0.82387   0.26396   0.00000  Uiso   1.00
C463   C     0.51365   0.98912   0.23668   0.00000  Uiso   1.00
C464   C     0.48497   0.67844   0.26392   0.00000  Uiso   1.00
C465   C     0.48933   0.72254   0.26028   0.00000  Uiso   1.00
C466   C     0.50985   0.94456   0.24023   0.00000  Uiso   1.00
C467   C     0.46091   0.91076   0.48478   0.00000  Uiso   1.00
C468   C     0.51863   0.81450   0.12940   0.00000  Uiso   1.00
C469   C     0.48092   0.85067   0.37124   0.00000  Uiso   1.00
C470   C     0.53161   0.75447   0.01811   0.00000  Uiso   1.00
C471   C     0.52487   0.80587   0.08136   0.00000  Uiso   1.00
C472   C     0.45848   0.89749   0.44097   0.00000  Uiso   1.00
C473   C     0.40050   0.91753   0.42535   0.00000  Uiso   1.00
C474   C     0.48143   0.97969   0.49852   0.00000  Uiso   1.00
C475   C     0.42528   0.75738   0.41469   0.00000  Uiso   1.00
C476   C     0.47634   0.88582   0.00897   0.00000  Uiso   1.00
C477   C     0.48846   0.84615   0.49079   0.00000  Uiso   1.00
C478   C     0.48290   0.83115   0.44743   0.00000  Uiso   1.00
C479   C     0.50514   0.82054   0.01475   0.00000  Uiso   1.00
C480   C     0.51482   0.78016   0.49546   0.00000  Uiso   1.00
C481   C     0.50478   0.76444   0.45535   0.00000  Uiso   1.00
C482   C     0.48631   0.78830   0.43294   0.00000  Uiso   1.00
H483   H     0.65246   0.80616   0.29015   0.00000  Uiso   1.00
H484   H     0.38900   0.88456   0.41588   0.00000  Uiso   1.00
H485   H     0.39025   0.93762   0.40455   0.00000  Uiso   1.00
H486   H     0.47741   0.89844   0.04232   0.00000  Uiso   1.00
H487   H     0.49619   0.98325   0.46231   0.00000  Uiso   1.00
H488   H     0.50597   0.97389   0.01550   0.00000  Uiso   1.00
H489   H     0.46948   0.67632   0.01375   0.00000  Uiso   1.00
H490   H     0.41224   0.74047   0.38703   0.00000  Uiso   1.00
H491   H     0.40844   0.78559   0.42639   0.00000  Uiso   1.00
H492   H     0.41833   0.73614   0.44204   0.00000  Uiso   1.00
H493   H     0.54010   0.67029   0.21166   0.00000  Uiso   1.00
H494   H     0.50900   0.73245   0.44240   0.00000  Uiso   1.00
H495   H     0.53954   0.72386   0.00332   0.00000  Uiso   1.00
H496   H     0.50390   0.86267   0.07548   0.00000  Uiso   1.00
H497   H     0.34891   0.86084   0.21019   0.00000  Uiso   1.00
H498   H     0.54559   0.74550   0.07976   0.00000  Uiso   1.00
H499   H     0.45814   0.99807   0.28905   0.00000  Uiso   1.00
H500   H     0.38501   0.92633   0.46101   0.00000  Uiso   1.00
O501   O     0.50000   0.83333   0.25000   0.00000  Uiso   1.00
O502   O     0.48784   0.79304   0.15459   0.00000  Uiso   1.00
O503   O     0.46274   0.87058   0.34968   0.00000  Uiso   1.00
O504   O     0.54157   0.84425   0.14606   0.00000  Uiso   1.00
O505   O     0.50785   0.82546   0.34968   0.00000  Uiso   1.00
O506   O     0.44562   0.92428   0.41695   0.00000  Uiso   1.00
O507   O     0.44644   0.94797   0.00486   0.00000  Uiso   1.00
O508   O     0.46979   0.76818   0.39823   0.00000  Uiso   1.00
O509   O     0.51264   0.74686   0.28214   0.00000  Uiso   1.00
O510   O     0.47965   0.92751   0.27013   0.00000  Uiso   1.00
O511   O     0.40745   0.79958   0.23413   0.00000  Uiso   1.00
O512   O     0.60026   0.85939   0.21361   0.00000  Uiso   1.00
O513   O     0.40405   0.85544   0.28213   0.00000  Uiso   1.00
O514   O     0.58824   0.81892   0.27014   0.00000  Uiso   1.00
O515   O     0.47093   0.73610   0.23413   0.00000  Uiso   1.00
O516   O     0.53678   0.92286   0.21361   0.00000  Uiso   1.00
Zn517  Zn    0.52672   0.80661   0.28734   0.00000  Uiso   1.00
Zn518  Zn    0.46713   0.79124   0.21876   0.00000  Uiso   1.00
Zn519  Zn    0.54389   0.86442   0.20657   0.00000  Uiso   1.00
Zn520  Zn    0.46226   0.87106   0.28734   0.00000  Uiso   1.00
C521   C     0.71937   0.82630   0.26003   0.00000  Uiso   1.00
C522   C     0.84486   0.83312   0.05785   0.00000  Uiso   1.00
C523   C     0.86902   0.76691   0.06129   0.00000  Uiso   1.00
C524   C     0.94741   0.84046   0.24004   0.00000  Uiso   1.00
C525   C     0.80616   0.85905   0.42064   0.00000  Uiso   1.00
C526   C     0.99325   0.84314   0.23602   0.00000  Uiso   1.00
C527   C     0.67410   0.82387   0.26396   0.00000  Uiso   1.00
C528   C     0.84699   0.98912   0.23668   0.00000  Uiso   1.00
C529   C     0.81831   0.67844   0.26392   0.00000  Uiso   1.00
C530   C     0.82266   0.72254   0.26028   0.00000  Uiso   1.00
C531   C     0.84319   0.94456   0.24023   0.00000  Uiso   1.00
C532   C     0.79424   0.91076   0.48478   0.00000  Uiso   1.00
C533   C     0.85196   0.81450   0.12940   0.00000  Uiso   1.00
C534   C     0.81425   0.85067   0.37124   0.00000  Uiso   1.00
C535   C     0.86495   0.75447   0.01811   0.00000  Uiso   1.00
C536   C     0.85820   0.80587   0.08136   0.00000  Uiso   1.00
C537   C     0.79182   0.89749   0.44097   0.00000  Uiso   1.00
C538   C     0.73383   0.91753   0.42535   0.00000  Uiso   1.00
C539   C     0.81477   0.97969   0.49852   0.00000  Uiso   1.00
C540   C     0.75861   0.75738   0.41469   0.00000  Uiso   1.00
C541   C     0.80967   0.88582   0.00897   0.00000  Uiso   1.00
C542   C     0.82179   0.84615   0.49079   0.00000  Uiso   1.00
C543   C     0.81623   0.83115   0.44743   0.00000  Uiso   1.00
C544   C     0.83847   0.82054   0.01475   0.00000  Uiso   1.00
C545   C     0.84815   0.78016   0.49546   0.00000  Uiso   1.00
C546   C     0.83812   0.76444   0.45535   0.00000  Uiso   1.00
C547   C     0.81965   0.78830   0.43294   0.00000  Uiso   1.00
H548   H     0.98579   0.80616   0.29015   0.00000  Uiso   1.00
H549   H     0.72233   0.88456   0.41588   0.00000  Uiso   1.00
H550   H     0.72358   0.93762   0.40455   0.00000  Uiso   1.00
H551   H     0.81075   0.89844   0.04232   0.00000  Uiso   1.00
H552   H     0.82952   0.98325   0.46231   0.00000  Uiso   1.00
H553   H     0.83931   0.97389   0.01550   0.00000  Uiso   1.00
H554   H     0.80282   0.67632   0.01375   0.00000  Uiso   1.00
H555   H     0.74558   0.74047   0.38703   0.00000  Uiso   1.00
H556   H     0.74177   0.78559   0.42639   0.00000  Uiso   1.00
H557   H     0.75166   0.73614   0.44204   0.00000  Uiso   1.00
H558   H     0.87343   0.67029   0.21166   0.00000  Uiso   1.00
H559   H     0.84233   0.73245   0.44240   0.00000  Uiso   1.00
H560   H     0.87287   0.72386   0.00332   0.00000  Uiso   1.00
H561   H     0.83723   0.86267   0.07548   0.00000  Uiso   1.00
H562   H     0.68224   0.86084   0.21019   0.00000  Uiso   1.00
H563   H     0.87892   0.74550   0.07976   0.00000  Uiso   1.00
H564   H     0.79147   0.99807   0.28905   0.00000  Uiso   1.00
H565   H     0.71834   0.92633   0.46101   0.00000  Uiso   1.00
O566   O     0.83333   0.83333   0.25000   0.00000  Uiso   1.00
O567   O     0.82118   0.79304   0.15459   0.00000  Uiso   1.00
O568   O     0.79607   0.87058   0.34968   0.00000  Uiso   1.00
O569   O     0.87491   0.84425   0.14606   0.00000  Uiso   1.00
O570   O     0.84118   0.82546   0.34968   0.00000  Uiso   1.00
O571   O     0.77895   0.92428   0.41695   0.00000  Uiso   1.00
O572   O     0.77978   0.94797   0.00486   0.00000  Uiso   1.00
O573   O     0.80312   0.76818   0.39823   0.00000  Uiso   1.00
O574   O     0.84597   0.74686   0.28214   0.00000  Uiso   1.00
O575   O     0.81298   0.92751   0.27013   0.00000  Uiso   1.00
O576   O     0.74078   0.79958   0.23413   0.00000  Uiso   1.00
O577   O     0.93360   0.85939   0.21361   0.00000  Uiso   1.00
O578   O     0.73738   0.85544   0.28213   0.00000  Uiso   1.00
O579   O     0.92158   0.81892   0.27014   0.00000  Uiso   1.00
O580   O     0.80426   0.73610   0.23413   0.00000  Uiso   1.00
O581   O     0.87012   0.92286   0.21361   0.00000  Uiso   1.00
Zn582  Zn    0.86005   0.80661   0.28734   0.00000  Uiso   1.00
Zn583  Zn    0.80046   0.79124   0.21876   0.00000  Uiso   1.00
Zn584  Zn    0.87723   0.86442   0.20657   0.00000  Uiso   1.00
Zn585  Zn    0.79560   0.87106   0.28734   0.00000  Uiso   1.00
C586   C     0.05270   0.15964   0.76003   0.00000  Uiso   1.00
C587   C     0.17820   0.16645   0.55785   0.00000  Uiso   1.00
C588   C     0.20235   0.10024   0.56129   0.00000  Uiso   1.00
C589   C     0.28074   0.17379   0.74004   0.00000  Uiso   1.00
C590   C     0.13950   0.19238   0.92064   0.00000  Uiso   1.00
C591   C     0.32658   0.17647   0.73602   0.00000  Uiso   1.00
C592   C     0.00743   0.15720   0.76396   0.00000  Uiso   1.00
C593   C     0.18032   0.32245   0.73668   0.00000  Uiso   1.00
C594   C     0.15164   0.01177   0.76392   0.00000  Uiso   1.00
C595   C     0.15599   0.05588   0.76028   0.00000  Uiso   1.00
C596   C     0.17652   0.27790   0.74023   0.00000  Uiso   1.00
C597   C     0.12757   0.24409   0.98478   0.00000  Uiso   1.00
C598   C     0.18530   0.14783   0.62940   0.00000  Uiso   1.00
C599   C     0.14759   0.18400   0.87124   0.00000  Uiso   1.00
C600   C     0.19828   0.08780   0.51811   0.00000  Uiso   1.00
C601   C     0.19154   0.13921   0.58136   0.00000  Uiso   1.00
C602   C     0.12515   0.23083   0.94097   0.00000  Uiso   1.00
C603   C     0.06717   0.25086   0.92535   0.00000  Uiso   1.00
C604   C     0.14810   0.31302   0.99852   0.00000  Uiso   1.00
C605   C     0.09195   0.09071   0.91469   0.00000  Uiso   1.00
C606   C     0.14300   0.21915   0.50897   0.00000  Uiso   1.00
C607   C     0.15512   0.17948   0.99079   0.00000  Uiso   1.00
C608   C     0.14956   0.16448   0.94743   0.00000  Uiso   1.00
C609   C     0.17180   0.15387   0.51475   0.00000  Uiso   1.00
C610   C     0.18148   0.11349   0.99546   0.00000  Uiso   1.00
C611   C     0.17145   0.09777   0.95535   0.00000  Uiso   1.00
C612   C     0.15298   0.12163   0.93294   0.00000  Uiso   1.00
H613   H     0.31912   0.13949   0.79015   0.00000  Uiso   1.00
H614   H     0.05567   0.21789   0.91588   0.00000  Uiso   1.00
H615   H     0.05692   0.27095   0.90455   0.00000  Uiso   1.00
H616   H     0.14408   0.23177   0.54232   0.00000  Uiso   1.00
H617   H     0.16286   0.31658   0.96231   0.00000  Uiso   1.00
H618   H     0.17264   0.30722   0.51550   0.00000  Uiso   1.00
H619   H     0.13615   0.00965   0.51375   0.00000  Uiso   1.00
H620   H     0.07891   0.07380   0.88703   0.00000  Uiso   1.00
H621   H     0.07510   0.11892   0.92639   0.00000  Uiso   1.00
H622   H     0.08500   0.06947   0.94204   0.00000  Uiso   1.00
H623   H     0.20676   0.00363   0.71166   0.00000  Uiso   1.00
H624   H     0.17567   0.06578   0.94240   0.00000  Uiso   1.00
H625   H     0.20621   0.05720   0.50332   0.00000  Uiso   1.00
H626   H     0.17057   0.19600   0.57548   0.00000  Uiso   1.00
H627   H     0.01558   0.19417   0.71019   0.00000  Uiso   1.00
H628   H     0.21226   0.07883   0.57976   0.00000  Uiso   1.00
H629   H     0.12481   0.33140   0.78905   0.00000  Uiso   1.00
H630   H     0.05167   0.25966   0.96101   0.00000  Uiso   1.00
O631   O     0.16667   0.16667   0.75000   0.00000  Uiso   1.00
O632   O     0.15451   0.12637   0.65459   0.00000  Uiso   1.00
O633   O     0.12940   0.20391   0.84968   0.00000  Uiso   1.00
O634   O     0.20824   0.17759   0.64606   0.00000  Uiso   1.00
O635   O     0.17451   0.15880   0.84968   0.00000  Uiso   1.00
O636   O     0.11228   0.25761   0.91695   0.00000  Uiso   1.00
O637   O     0.11311   0.28130   0.50486   0.00000  Uiso   1.00
O638   O     0.13645   0.10151   0.89823   0.00000  Uiso   1.00
O639   O     0.17930   0.08019   0.78214   0.00000  Uiso   1.00
O640   O     0.14632   0.26085   0.77013   0.00000  Uiso   1.00
O641   O     0.07412   0.13291   0.73413   0.00000  Uiso   1.00
O642   O     0.26693   0.19272   0.71361   0.00000  Uiso   1.00
O643   O     0.07071   0.18878   0.78213   0.00000  Uiso   1.00
O644   O     0.25491   0.15226   0.77014   0.00000  Uiso   1.00
O645   O     0.13760   0.06944   0.73413   0.00000  Uiso   1.00
O646   O     0.20345   0.25620   0.71361   0.00000  Uiso   1.00
Zn647  Zn    0.19338   0.13994   0.78734   0.00000  Uiso   1.00
Zn648  Zn    0.13379   0.12458   0.71876   0.00000  Uiso   1.00
Zn649  Zn    0.21056   0.19775   0.70657   0.00000  Uiso   1.00
Zn650  Zn    0.12893   0.20439   0.78734   0.00000  Uiso   1.00
C651   C     0.38603   0.15964   0.76003   0.00000  Uiso   1.00
C652   C     0.51153   0.16645   0.55785   0.00000  Uiso   1.00
C653   C     0.53569   0.10024   0.56129   0.00000  Uiso   1.00
C654   C     0.61407   0.17379   0.74004   0.00000  Uiso   1.00
C655   C     0.47283   0.19238   0.92064   0.00000  Uiso   1.00
C656   C     0.65992   0.17647   0.73602   0.00000  Uiso   1.00
C657   C     0.34076   0.15720   0.76396   0.00000  Uiso   1.00
C658   C     0.51365   0.32245   0.73668   0.00000  Uiso   1.00
C659   C     0.48497   0.01177   0.76392   0.00000  Uiso   1.00
C660   C     0.48933   0.05588   0.76028   0.00000  Uiso   1.00
C661   C     0.50985   0.27790   0.74023   0.00000  Uiso   1.00
C662   C     0.46091   0.24409   0.98478   0.00000  Uiso   1.00
C663   C     0.51863   0.14783   0.62940   0.00000  Uiso   1.00
C664   C     0.48092   0.18400   0.87124   0.00000  Uiso   1.00
C665   C     0.53161   0.08780   0.51811   0.00000  Uiso   1.00
C666   C     0.52487   0.13921   0.58136   0.00000  Uiso   1.00
C667   C     0.45848   0.23083   0.94097   0.00000  Uiso   1.00
C668   C     0.40050   0.25086   0.92535   0.00000  Uiso   1.00
C669   C     0.48143   0.31302   0.99852   0.00000  Uiso   1.00
C670   C     0.42528   0.09071   0.91469   0.00000  Uiso   1.00
C671   C     0.47634   0.21915   0.50897   0.00000  Uiso   1.00
C672   C     0.48846   0.17948   0.99079   0.00000  Uiso   1.00
C673   C     0.48290   0.16448   0.94743   0.00000  Uiso   1.00
C674   C     0.50514   0.15387   0.51475   0.00000  Uiso   1.00
C675   C     0.51482   0.11349   0.99546   0.00000  Uiso   1.00
C676   C     0.50478   0.09777   0.95535   0.00000  Uiso   1.00
C677   C     0.48631   0.12163   0.93294   0.00000  Uiso   1.00
H678   H     0.65246   0.13949   0.79015   0.00000  Uiso   1.00
H679   H     0.38900   0.21789   0.91588   0.00000  Uiso   1.00
H680   H     0.39025   0.27095   0.90455   0.00000  Uiso   1.00
H681   H     0.47741   0.23177   0.54232   0.00000  Uiso   1.00
H682   H     0.49619   0.31658   0.96231   0.00000  Uiso   1.00
H683   H     0.50597   0.30722   0.51550   0.00000  Uiso   1.00
H684   H     0.46948   0.00965   0.51375   0.00000  Uiso   1.00
H685   H     0.41224   0.07380   0.88703   0.00000  Uiso   1.00
H686   H     0.40844   0.11892   0.92639   0.00000  Uiso   1.00
H687   H     0.41833   0.06947   0.94204   0.00000  Uiso   1.00
H688   H     0.54010   0.00363   0.71166   0.00000  Uiso   1.00
H689   H     0.50900   0.06578   0.94240   0.00000  Uiso   1.00
H690   H     0.53954   0.05720   0.50332   0.00000  Uiso   1.00
H691   H     0.50390   0.19600   0.57548   0.00000  Uiso   1.00
H692   H     0.34891   0.19417   0.71019   0.00000  Uiso   1.00
H693   H     0.54559   0.07883   0.57976   0.00000  Uiso   1.00
H694   H     0.45814   0.33140   0.78905   0.00000  Uiso   1.00
H695   H     0.38501   0.25966   0.96101   0.00000  Uiso   1.00
O696   O     0.50000   0.16667   0.75000   0.00000  Uiso   1.00
O697   O     0.48784   0.12637   0.65459   0.00000  Uiso   1.00
O698   O     0.46274   0.20391   0.84968   0.00000  Uiso   1.00
O699   O     0.54157   0.17759   0.64606   0.00000  Uiso   1.00
O700   O     0.50785   0.15880   0.84968   0.00000  Uiso   1.00
O701   O     0.44562   0.25761   0.91695   0.00000  Uiso   1.00
O702   O     0.44644   0.28130   0.50486   0.00000  Uiso   1.00
O703   O     0.46979   0.10151   0.89823   0.00000  Uiso   1.00
O704   O     0.51264   0.08019   0.78214   0.00000  Uiso   1.00
O705   O     0.47965   0.26085   0.77013   0.00000  Uiso   1.00
O706   O     0.40745   0.13291   0.73413   0.00000  Uiso   1.00
O707   O     0.60026   0.19272   0.71361   0.00000  Uiso   1.00
O708   O     0.40405   0.18878   0.78213   0.00000  Uiso   1.00
O709   O     0.58824   0.15226   0.77014   0.00000  Uiso   1.00
O710   O     0.47093   0.06944   0.73413   0.00000  Uiso   1.00
O711   O     0.53678   0.25620   0.71361   0.00000  Uiso   1.00
Zn712  Zn    0.52672   0.13994   0.78734   0.00000  Uiso   1.00
Zn713  Zn    0.46713   0.12458   0.71876   0.00000  Uiso   1.00
Zn714  Zn    0.54389   0.19775   0.70657   0.00000  Uiso   1.00
Zn715  Zn    0.46226   0.20439   0.78734   0.00000  Uiso   1.00
C716   C     0.71937   0.15964   0.76003   0.00000  Uiso   1.00
C717   C     0.84486   0.16645   0.55785   0.00000  Uiso   1.00
C718   C     0.86902   0.10024   0.56129   0.00000  Uiso   1.00
C719   C     0.94741   0.17379   0.74004   0.00000  Uiso   1.00
C720   C     0.80616   0.19238   0.92064   0.00000  Uiso   1.00
C721   C     0.99325   0.17647   0.73602   0.00000  Uiso   1.00
C722   C     0.67410   0.15720   0.76396   0.00000  Uiso   1.00
C723   C     0.84699   0.32245   0.73668   0.00000  Uiso   1.00
C724   C     0.81831   0.01177   0.76392   0.00000  Uiso   1.00
C725   C     0.82266   0.05588   0.76028   0.00000  Uiso   1.00
C726   C     0.84319   0.27790   0.74023   0.00000  Uiso   1.00
C727   C     0.79424   0.24409   0.98478   0.00000  Uiso   1.00
C728   C     0.85196   0.14783   0.62940   0.00000  Uiso   1.00
C729   C     0.81425   0.18400   0.87124   0.00000  Uiso   1.00
C730   C     0.86495   0.08780   0.51811   0.00000  Uiso   1.00
C731   C     0.85820   0.13921   0.58136   0.00000  Uiso   1.00
C732   C     0.79182   0.23083   0.94097   0.00000  Uiso   1.00
C733   C     0.73383   0.25086   0.92535   0.00000  Uiso   1.00
C734   C     0.81477   0.31302   0.99852   0.00000  Uiso   1.00
C735   C     0.75861   0.09071   0.91469   0.00000  Uiso   1.00
C736   C     0.80967   0.21915   0.50897   0.00000  Uiso   1.00
C737   C     0.82179   0.17948   0.99079   0.00000  Uiso   1.00
C738   C     0.81623   0.16448   0.94743   0.00000  Uiso   1.00
C739   C     0.83847   0.15387   0.51475   0.00000  Uiso   1.00
C740   C     0.84815   0.11349   0.99546   0.00000  Uiso   1.00
C741   C     0.83812   0.09777   0.95535   0.00000  Uiso   1.00
C742   C     0.81965   0.12163   0.93294   0.00000  Uiso   1.00
H743   H     0.98579   0.13949   0.79015   0.00000  Uiso   1.00
H744   H     0.72233   0.21789   0.91588   0.00000  Uiso   1.00
H745   H     0.72358   0.27095   0.90455   0.00000  Uiso   1.00
H746   H     0.81075   0.23177   0.54232   0.00000  Uiso   1.00
H747   H     0.82952   0.31658   0.96231   0.00000  Uiso   1.00
H748   H     0.83931   0.30722   0.51550   0.00000  Uiso   1.00
H749   H     0.80282   0.00965   0.51375   0.00000  Uiso   1.00
H750   H     0.74558   0.07380   0.88703   0.00000  Uiso   1.00
H751   H     0.74177   0.11892   0.92639   0.00000  Uiso   1.00
H752   H     0.75166   0.06947   0.94204   0.00000  Uiso   1.00
H753   H     0.87343   0.00363   0.71166   0.00000  Uiso   1.00
H754   H     0.84233   0.06578   0.94240   0.00000  Uiso   1.00
H755   H     0.87287   0.05720   0.50332   0.00000  Uiso   1.00
H756   H     0.83723   0.19600   0.57548   0.00000  Uiso   1.00
H757   H     0.68224   0.19417   0.71019   0.00000  Uiso   1.00
H758   H     0.87892   0.07883   0.57976   0.00000  Uiso   1.00
H759   H     0.79147   0.33140   0.78905   0.00000  Uiso   1.00
H760   H     0.71834   0.25966   0.96101   0.00000  Uiso   1.00
O761   O     0.83333   0.16667   0.75000   0.00000  Uiso   1.00
O762   O     0.82118   0.12637   0.65459   0.00000  Uiso   1.00
O763   O     0.79607   0.20391   0.84968   0.00000  Uiso   1.00
O764   O     0.87491   0.17759   0.64606   0.00000  Uiso   1.00
O765   O     0.84118   0.15880   0.84968   0.00000  Uiso   1.00
O766   O     0.77895   0.25761   0.91695   0.00000  Uiso   1.00
O767   O     0.77978   0.28130   0.50486   0.00000  Uiso   1.00
O768   O     0.80312   0.10151   0.89823   0.00000  Uiso   1.00
O769   O     0.84597   0.08019   0.78214   0.00000  Uiso   1.00
O770   O     0.81298   0.26085   0.77013   0.00000  Uiso   1.00
O771   O     0.74078   0.13291   0.73413   0.00000  Uiso   1.00
O772   O     0.93360   0.19272   0.71361   0.00000  Uiso   1.00
O773   O     0.73738   0.18878   0.78213   0.00000  Uiso   1.00
O774   O     0.92158   0.15226   0.77014   0.00000  Uiso   1.00
O775   O     0.80426   0.06944   0.73413   0.00000  Uiso   1.00
O776   O     0.87012   0.25620   0.71361   0.00000  Uiso   1.00
Zn777  Zn    0.86005   0.13994   0.78734   0.00000  Uiso   1.00
Zn778  Zn    0.80046   0.12458   0.71876   0.00000  Uiso   1.00
Zn779  Zn    0.87723   0.19775   0.70657   0.00000  Uiso   1.00
Zn780  Zn    0.79560   0.20439   0.78734   0.00000  Uiso   1.00
C781   C     0.05270   0.49297   0.76003   0.00000  Uiso   1.00
C782   C     0.17820   0.49979   0.55785   0.00000  Uiso   1.00
C783   C     0.20235   0.43358   0.56129   0.00000  Uiso   1.00
C784   C     0.28074   0.50713   0.74004   0.00000  Uiso   1.00
C785   C     0.13950   0.52571   0.92064   0.00000  Uiso   1.00
C786   C     0.32658   0.50980   0.73602   0.00000  Uiso   1.00
C787   C     0.00743   0.49053   0.76396   0.00000  Uiso   1.00
C788   C     0.18032   0.65578   0.73668   0.00000  Uiso   1.00
C789   C     0.15164   0.34510   0.76392   0.00000  Uiso   1.00
C790   C     0.15599   0.38921   0.76028   0.00000  Uiso   1.00
C791   C     0.17652   0.61123   0.74023   0.00000  Uiso   1.00
C792   C     0.12757   0.57742   0.98478   0.00000  Uiso   1.00
C793   C     0.18530   0.48116   0.62940   0.00000  Uiso   1.00
C794   C     0.14759   0.51734   0.87124   0.00000  Uiso   1.00
C795   C     0.19828   0.42114   0.51811   0.00000  Uiso   1.00
C796   C     0.19154   0.47254   0.58136   0.00000  Uiso   1.00
C797   C     0.12515   0.56416   0.94097   0.00000  Uiso   1.00
C798   C     0.06717   0.58420   0.92535   0.00000  Uiso   1.00
C799   C     0.14810   0.64635   0.99852   0.00000  Uiso   1.00
C800   C     0.09195   0.42404   0.91469   0.00000  Uiso   1.00
C801   C     0.14300   0.55248   0.50897   0.00000  Uiso   1.00
C802   C     0.15512   0.51281   0.99079   0.00000  Uiso   1.00
C803   C     0.14956   0.49782   0.94743   0.00000  Uiso   1.00
C804   C     0.17180   0.48721   0.51475   0.00000  Uiso   1.00
C805   C     0.18148   0.44683   0.99546   0.00000  Uiso   1.00
C806   C     0.17145   0.43111   0.95535   0.00000  Uiso   1.00
C807   C     0.15298   0.45497   0.93294   0.00000  Uiso   1.00
H808   H     0.31912   0.47283   0.79015   0.00000  Uiso   1.00
H809   H     0.05567   0.55122   0.91588   0.00000  Uiso   1.00
H810   H     0.05692   0.60429   0.90455   0.00000  Uiso   1.00
H811   H     0.14408   0.56510   0.54232   0.00000  Uiso   1.00
H812   H     0.16286   0.64991   0.96231   0.00000  Uiso   1.00
H813   H     0.17264   0.64056   0.51550   0.00000  Uiso   1.00
H814   H     0.13615   0.34298   0.51375   0.00000  Uiso   1.00
H815   H     0.07891   0.40713   0.88703   0.00000  Uiso   1.00
H816   H     0.07510   0.45226   0.92639   0.00000  Uiso   1.00
H817   H     0.08500   0.40281   0.94204   0.00000  Uiso   1.00
H818   H     0.20676   0.33696   0.71166   0.00000  Uiso   1.00
H819   H     0.17567   0.39911   0.94240   0.00000  Uiso   1.00
H820   H     0.20621   0.39053   0.50332   0.00000  Uiso   1.00
H821   H     0.17057   0.52933   0.57548   0.00000  Uiso   1.00
H822   H     0.01558   0.52750   0.71019   0.00000  Uiso   1.00
H823   H     0.21226   0.41217   0.57976   0.00000  Uiso   1.00
H824   H     0.12481   0.66474   0.78905   0.00000  Uiso   1.00
H825   H     0.05167   0.59299   0.96101   0.00000  Uiso   1.00
O826   O     0.16667   0.50000   0.75000   0.00000  Uiso   1.00
O827   O     0.15451   0.45970   0.65459   0.00000  Uiso   1.00
O828   O     0.12940   0.53724   0.84968   0.00000  Uiso   1.00
O829   O     0.20824   0.51092   0.64606   0.00000  Uiso   1.00
O830   O     0.17451   0.49213   0.84968   0.00000  Uiso   1.00
O831   O     0.11228   0.59094   0.91695   0.00000  Uiso   1.00
O832   O     0.11311   0.61463   0.50486   0.00000  Uiso   1.00
O833   O     0.13645   0.43485   0.89823   0.00000  Uiso   1.00
O834   O     0.17930   0.41352   0.78214   0.00000  Uiso   1.00
O835   O     0.14632   0.59418   0.77013   0.00000  Uiso   1.00
O836   O     0.07412   0.46625   0.73413   0.00000  Uiso   1.00
O837   O     0.26693   0.52605   0.71361   0.00000  Uiso   1.00
O838   O     0.07071   0.52211   0.78213   0.00000  Uiso   1.00
O839   O     0.25491   0.48559   0.77014   0.00000  Uiso   1.00
O840   O     0.13760   0.40277   0.73413   0.00000  Uiso   1.00
O841   O     0.20345   0.58953   0.71361   0.00000  Uiso   1.00
Zn842  Zn    0.19338   0.47327   0.78734   0.00000  Uiso   1.00
Zn843  Zn    0.13379   0.45791   0.71876   0.00000  Uiso   1.00
Zn844  Zn    0.21056   0.53109   0.70657   0.00000  Uiso   1.00
Zn845  Zn    0.12893   0.53773   0.78734   0.00000  Uiso   1.00
C846   C     0.38603   0.49297   0.76003   0.00000  Uiso   1.00
C847   C     0.51153   0.49979   0.55785   0.00000  Uiso   1.00
C848   C     0.53569   0.43358   0.56129   0.00000  Uiso   1.00
C849   C     0.61407   0.50713   0.74004   0.00000  Uiso   1.00
C850   C     0.47283   0.52571   0.92064   0.00000  Uiso   1.00
C851   C     0.65992   0.50980   0.73602   0.00000  Uiso   1.00
C852   C     0.34076   0.49053   0.76396   0.00000  Uiso   1.00
C853   C     0.51365   0.65578   0.73668   0.00000  Uiso   1.00
C854   C     0.48497   0.34510   0.76392   0.00000  Uiso   1.00
C855   C     0.48933   0.38921   0.76028   0.00000  Uiso   1.00
C856   C     0.50985   0.61123   0.74023   0.00000  Uiso   1.00
C857   C     0.46091   0.57742   0.98478   0.00000  Uiso   1.00
C858   C     0.51863   0.48116   0.62940   0.00000  Uiso   1.00
C859   C     0.48092   0.51734   0.87124   0.00000  Uiso   1.00
C860   C     0.53161   0.42114   0.51811   0.00000  Uiso   1.00
C861   C     0.52487   0.47254   0.58136   0.00000  Uiso   1.00
C862   C     0.45848   0.56416   0.94097   0.00000  Uiso   1.00
C863   C     0.40050   0.58420   0.92535   0.00000  Uiso   1.00
C864   C     0.48143   0.64635   0.99852   0.00000  Uiso   1.00
C865   C     0.42528   0.42404   0.91469   0.00000  Uiso   1.00
C866   C     0.47634   0.55248   0.50897   0.00000  Uiso   1.00
C867   C     0.48846   0.51281   0.99079   0.00000  Uiso   1.00
C868   C     0.48290   0.49782   0.94743   0.00000  Uiso   1.00
C869   C     0.50514   0.48721   0.51475   0.00000  Uiso   1.00
C870   C     0.51482   0.44683   0.99546   0.00000  Uiso   1.00
C871   C     0.50478   0.43111   0.95535   0.00000  Uiso   1.00
C872   C     0.48631   0.45497   0.93294   0.00000  Uiso   1.00
H873   H     0.65246   0.47283   0.79015   0.00000  Uiso   1.00
H874   H     0.38900   0.55122   0.91588   0.00000  Uiso   1.00
H875   H     0.39025   0.60429   0.90455   0.00000  Uiso   1.00
H876   H     0.47741   0.56510   0.54232   0.00000  Uiso   1.00
H877   H     0.49619   0.64991   0.96231   0.00000  Uiso   1.00
H878   H     0.50597   0.64056   0.51550   0.00000  Uiso   1.00
H879   H     0.46948   0.34298   0.51375   0.00000  Uiso   1.00
H880   H     0.41224   0.40713   0.88703   0.00000  Uiso   1.00
H881   H     0.40844   0.45226   0.92639   0.00000  Uiso   1.00
H882   H     0.41833   0.40281   0.94204   0.00000  Uiso   1.00
H883   H     0.54010   0.33696   0.71166   0.00000  Uiso   1.00
H884   H     0.50900   0.39911   0.94240   0.00000  Uiso   1.00
H885   H     0.53954   0.39053   0.50332   0.00000  Uiso   1.00
H886   H     0.50390   0.52933   0.57548   0.00000  Uiso   1.00
H887   H     0.34891   0.52750   0.71019   0.00000  Uiso   1.00
H888   H     0.54559   0.41217   0.57976   0.00000  Uiso   1.00
H889   H     0.45814   0.66474   0.78905   0.00000  Uiso   1.00
H890   H     0.38501   0.59299   0.96101   0.00000  Uiso   1.00
O891   O     0.50000   0.50000   0.75000   0.00000  Uiso   1.00
O892   O     0.48784   0.45970   0.65459   0.00000  Uiso   1.00
O893   O     0.46274   0.53724   0.84968   0.00000  Uiso   1.00
O894   O     0.54157   0.51092   0.64606   0.00000  Uiso   1.00
O895   O     0.50785   0.49213   0.84968   0.00000  Uiso   1.00
O896   O     0.44562   0.59094   0.91695   0.00000  Uiso   1.00
O897   O     0.44644   0.61463   0.50486   0.00000  Uiso   1.00
O898   O     0.46979   0.43485   0.89823   0.00000  Uiso   1.00
O899   O     0.51264   0.41352   0.78214   0.00000  Uiso   1.00
O900   O     0.47965   0.59418   0.77013   0.00000  Uiso   1.00
O901   O     0.40745   0.46625   0.73413   0.00000  Uiso   1.00
O902   O     0.60026   0.52605   0.71361   0.00000  Uiso   1.00
O903   O     0.40405   0.52211   0.78213   0.00000  Uiso   1.00
O904   O     0.58824   0.48559   0.77014   0.00000  Uiso   1.00
O905   O     0.47093   0.40277   0.73413   0.00000  Uiso   1.00
O906   O     0.53678   0.58953   0.71361   0.00000  Uiso   1.00
Zn907  Zn    0.52672   0.47327   0.78734   0.00000  Uiso   1.00
Zn908  Zn    0.46713   0.45791   0.71876   0.00000  Uiso   1.00
Zn909  Zn    0.54389   0.53109   0.70657   0.00000  Uiso   1.00
Zn910  Zn    0.46226   0.53773   0.78734   0.00000  Uiso   1.00
C911   C     0.71937   0.49297   0.76003   0.00000  Uiso   1.00
C912   C     0.84486   0.49979   0.55785   0.00000  Uiso   1.00
C913   C     0.86902   0.43358   0.56129   0.00000  Uiso   1.00
C914   C     0.94741   0.50713   0.74004   0.00000  Uiso   1.00
C915   C     0.80616   0.52571   0.92064   0.00000  Uiso   1.00
C916   C     0.99325   0.50980   0.73602   0.00000  Uiso   1.00
C917   C     0.67410   0.49053   0.76396   0.00000  Uiso   1.00
C918   C     0.84699   0.65578   0.73668   0.00000  Uiso   1.00
C919   C     0.81831   0.34510   0.76392   0.00000  Uiso   1.00
C920   C     0.82266   0.38921   0.76028   0.00000  Uiso   1.00
C921   C     0.84319   0.61123   0.74023   0.00000  Uiso   1.00
C922   C     0.79424   0.57742   0.98478   0.00000  Uiso   1.00
C923   C     0.85196   0.48116   0.62940   0.00000  Uiso   1.00
C924   C     0.81425   0.51734   0.87124   0.00000  Uiso   1.00
C925   C     0.86495   0.42114   0.51811   0.00000  Uiso   1.00
C926   C     0.85820   0.47254   0.58136   0.00000  Uiso   1.00
C927   C     0.79182   0.56416   0.94097   0.00000  Uiso   1.00
C928   C     0.73383   0.58420   0.92535   0.00000  Uiso   1.00
C929   C     0.81477   0.64635   0.99852   0.00000  Uiso   1.00
C930   C     0.75861   0.42404   0.91469   0.00000  Uiso   1.00
C931   C     0.80967   0.55248   0.50897   0.00000  Uiso   1.00
C932   C     0.82179   0.51281   0.99079   0.00000  Uiso   1.00
C933   C     0.81623   0.49782   0.94743   0.00000  Uiso   1.00
C934   C     0.83847   0.48721   0.51475   0.00000  Uiso   1.00
C935   C     0.84815   0.44683   0.99546   0.00000  Uiso   1.00
C936   C     0.83812   0.43111   0.95535   0.00000  Uiso   1.00
C937   C     0.81965   0.45497   0.93294   0.00000  Uiso   1.00
H938   H     0.98579   0.47283   0.79015   0.00000  Uiso   1.00
H939   H     0.72233   0.55122   0.91588   0.00000  Uiso   1.00
H940   H     0.72358   0.60429   0.90455   0.00000  Uiso   1.00
H941   H     0.81075   0.56510   0.54232   0.00000  Uiso   1.00
H942   H     0.82952   0.64991   0.96231   0.00000  Uiso   1.00
H943   H     0.83931   0.64056   0.51550   0.00000  Uiso   1.00
H944   H     0.80282   0.34298   0.51375   0.00000  Uiso   1.00
H945   H     0.74558   0.40713   0.88703   0.00000  Uiso   1.00
H946   H     0.74177   0.45226   0.92639   0.00000  Uiso   1.00
H947   H     0.75166   0.40281   0.94204   0.00000  Uiso   1.00
H948   H     0.87343   0.33696   0.71166   0.00000  Uiso   1.00
H949   H     0.84233   0.39911   0.94240   0.00000  Uiso   1.00
H950   H     0.87287   0.39053   0.50332   0.00000  Uiso   1.00
H951   H     0.83723   0.52933   0.57548   0.00000  Uiso   1.00
H952   H     0.68224   0.52750   0.71019   0.00000  Uiso   1.00
H953   H     0.87892   0.41217   0.57976   0.00000  Uiso   1.00
H954   H     0.79147   0.66474   0.78905   0.00000  Uiso   1.00
H955   H     0.71834   0.59299   0.96101   0.00000  Uiso   1.00
O956   O     0.83333   0.50000   0.75000   0.00000  Uiso   1.00
O957   O     0.82118   0.45970   0.65459   0.00000  Uiso   1.00
O958   O     0.79607   0.53724   0.84968   0.00000  Uiso   1.00
O959   O     0.87491   0.51092   0.64606   0.00000  Uiso   1.00
O960   O     0.84118   0.49213   0.84968   0.00000  Uiso   1.00
O961   O     0.77895   0.59094   0.91695   0.00000  Uiso   1.00
O962   O     0.77978   0.61463   0.50486   0.00000  Uiso   1.00
O963   O     0.80312   0.43485   0.89823   0.00000  Uiso   1.00
O964   O     0.84597   0.41352   0.78214   0.00000  Uiso   1.00
O965   O     0.81298   0.59418   0.77013   0.00000  Uiso   1.00
O966   O     0.74078   0.46625   0.73413   0.00000  Uiso   1.00
O967   O     0.93360   0.52605   0.71361   0.00000  Uiso   1.00
O968   O     0.73738   0.52211   0.78213   0.00000  Uiso   1.00
O969   O     0.92158   0.48559   0.77014   0.00000  Uiso   1.00
O970   O     0.80426   0.40277   0.73413   0.00000  Uiso   1.00
O971   O     0.87012   0.58953   0.71361   0.00000  Uiso   1.00
Zn972  Zn    0.86005   0.47327   0.78734   0.00000  Uiso   1.00
Zn973  Zn    0.80046   0.45791   0.71876   0.00000  Uiso   1.00
Zn974  Zn    0.87723   0.53109   0.70657   0.00000  Uiso   1.00
Zn975  Zn    0.79560   0.53773   0.78734   0.00000  Uiso   1.00
C976   C     0.05270   0.82630   0.76003   0.00000  Uiso   1.00
C977   C     0.17820   0.83312   0.55785   0.00000  Uiso   1.00
C978   C     0.20235   0.76691   0.56129   0.00000  Uiso   1.00
C979   C     0.28074   0.84046   0.74004   0.00000  Uiso   1.00
C980   C     0.13950   0.85905   0.92064   0.00000  Uiso   1.00
C981   C     0.32658   0.84314   0.73602   0.00000  Uiso   1.00
C982   C     0.00743   0.82387   0.76396   0.00000  Uiso   1.00
C983   C     0.18032   0.98912   0.73668   0.00000  Uiso   1.00
C984   C     0.15164   0.67844   0.76392   0.00000  Uiso   1.00
C985   C     0.15599   0.72254   0.76028   0.00000  Uiso   1.00
C986   C     0.17652   0.94456   0.74023   0.00000  Uiso   1.00
C987   C     0.12757   0.91076   0.98478   0.00000  Uiso   1.00
C988   C     0.18530   0.81450   0.62940   0.00000  Uiso   1.00
C989   C     0.14759   0.85067   0.87124   0.00000  Uiso   1.00
C990   C     0.19828   0.75447   0.51811   0.00000  Uiso   1.00
C991   C     0.19154   0.80587   0.58136   0.00000  Uiso   1.00
C992   C     0.12515   0.89749   0.94097   0.00000  Uiso   1.00
C993   C     0.06717   0.91753   0.92535   0.00000  Uiso   1.00
C994   C     0.14810   0.97969   0.99852   0.00000  Uiso   1.00
C995   C     0.09195   0.75738   0.91469   0.00000  Uiso   1.00
C996   C     0.14300   0.88582   0.50897   0.00000  Uiso   1.00
C997   C     0.15512   0.84615   0.99079   0.00000  Uiso   1.00
C998   C     0.14956   0.83115   0.94743   0.00000  Uiso   1.00
C999   C     0.17180   0.82054   0.51475   0.00000  Uiso   1.00
C1000  C     0.18148   0.78016   0.99546   0.00000  Uiso   1.00
C1001  C     0.17145   0.76444   0.95535   0.00000  Uiso   1.00
C1002  C     0.15298   0.78830   0.93294   0.00000  Uiso   1.00
H1003  H     0.31912   0.80616   0.79015   0.00000  Uiso   1.00
H1004  H     0.05567   0.88456   0.91588   0.00000  Uiso   1.00
H1005  H     0.05692   0.93762   0.90455   0.00000  Uiso   1.00
H1006  H     0.14408   0.89844   0.54232   0.00000  Uiso   1.00
H1007  H     0.16286   0.98325   0.96231   0.00000  Uiso   1.00
H1008  H     0.17264   0.97389   0.51550   0.00000  Uiso   1.00
H1009  H     0.13615   0.67632   0.51375   0.00000  Uiso   1.00
H1010  H     0.07891   0.74047   0.88703   0.00000  Uiso   1.00
H1011  H     0.07510   0.78559   0.92639   0.00000  Uiso   1.00
H1012  H     0.08500   0.73614   0.94204   0.00000  Uiso   1.00
H1013  H     0.20676   0.67029   0.71166   0.00000  Uiso   1.00
H1014  H     0.17567   0.73245   0.94240   0.00000  Uiso   1.00
H1015  H     0.20621   0.72386   0.50332   0.00000  Uiso   1.00
H1016  H     0.17057   0.86267   0.57548   0.00000  Uiso   1.00
H1017  H     0.01558   0.86084   0.71019   0.00000  Uiso   1.00
H1018  H     0.21226   0.74550   0.57976   0.00000  Uiso   1.00
H1019  H     0.12481   0.99807   0.78905   0.00000  Uiso   1.00
H1020  H     0.05167   0.92633   0.96101   0.00000  Uiso   1.00
O1021  O     0.16667   0.83333   0.75000   0.00000  Uiso   1.00
O1022  O     0.15451   0.79304   0.65459   0.00000  Uiso   1.00
O1023  O     0.12940   0.87058   0.84968   0.00000  Uiso   1.00
O1024  O     0.20824   0.84425   0.64606   0.00000  Uiso   1.00
O1025  O     0.17451   0.82546   0.84968   0.00000  Uiso   1.00
O1026  O     0.11228   0.92428   0.91695   0.00000  Uiso   1.00
O1027  O     0.11311   0.94797   0.50486   0.00000  Uiso   1.00
O1028  O     0.13645   0.76818   0.89823   0.00000  Uiso   1.00
O1029  O     0.17930   0.74686   0.78214   0.00000  Uiso   1.00
O1030  O     0.14632   0.92751   0.77013   0.00000  Uiso   1.00
O1031  O     0.07412   0.79958   0.73413   0.00000  Uiso   1.00
O1032  O     0.26693   0.85939   0.71361   0.00000  Uiso   1.00
O1033  O     0.07071   0.85544   0.78213   0.00000  Uiso   1.00
O1034  O     0.25491   0.81892   0.77014   0.00000  Uiso   1.00
O1035  O     0.13760   0.73610   0.73413   0.00000  Uiso   1.00
O1036  O     0.20345   0.92286   0.71361   0.00000  Uiso   1.00
Zn1037 Zn    0.19338   0.80661   0.78734   0.00000  Uiso   1.00
Zn1038 Zn    0.13379   0.79124   0.71876   0.00000  Uiso   1.00
Zn1039 Zn    0.21056   0.86442   0.70657   0.00000  Uiso   1.00
Zn1040 Zn    0.12893   0.87106   0.78734   0.00000  Uiso   1.00
C1041  C     0.38603   0.82630   0.76003   0.00000  Uiso   1.00
C1042  C     0.51153   0.83312   0.55785   0.00000  Uiso   1.00
C1043  C     0.53569   0.76691   0.56129   0.00000  Uiso   1.00
C1044  C     0.61407   0.84046   0.74004   0.00000  Uiso   1.00
C1045  C     0.47283   0.85905   0.92064   0.00000  Uiso   1.00
C1046  C     0.65992   0.84314   0.73602   0.00000  Uiso   1.00
C1047  C     0.34076   0.82387   0.76396   0.00000  Uiso   1.00
C1048  C     0.51365   0.98912   0.73668   0.00000  Uiso   1.00
C1049  C     0.48497   0.67844   0.76392   0.00000  Uiso   1.00
C1050  C     0.48933   0.72254   0.76028   0.00000  Uiso   1.00
C1051  C     0.50985   0.94456   0.74023   0.00000  Uiso   1.00
C1052  C     0.46091   0.91076   0.98478   0.00000  Uiso   1.00
C1053  C     0.51863   0.81450   0.62940   0.00000  Uiso   1.00
C1054  C     0.48092   0.85067   0.87124   0.00000  Uiso   1.00
C1055  C     0.53161   0.75447   0.51811   0.00000  Uiso   1.00
C1056  C     0.52487   0.80587   0.58136   0.00000  Uiso   1.00
C1057  C     0.45848   0.89749   0.94097   0.00000  Uiso   1.00
C1058  C     0.40050   0.91753   0.92535   0.00000  Uiso   1.00
C1059  C     0.48143   0.97969   0.99852   0.00000  Uiso   1.00
C1060  C     0.42528   0.75738   0.91469   0.00000  Uiso   1.00
C1061  C     0.47634   0.88582   0.50897   0.00000  Uiso   1.00
C1062  C     0.48846   0.84615   0.99079   0.00000  Uiso   1.00
C1063  C     0.48290   0.83115   0.94743   0.00000  Uiso   1.00
C1064  C     0.50514   0.82054   0.51475   0.00000  Uiso   1.00
C1065  C     0.51482   0.78016   0.99546   0.00000  Uiso   1.00
C1066  C     0.50478   0.76444   0.95535   0.00000  Uiso   1.00
C1067  C     0.48631   0.78830   0.93294   0.00000  Uiso   1.00
H1068  H     0.65246   0.80616   0.79015   0.00000  Uiso   1.00
H1069  H     0.38900   0.88456   0.91588   0.00000  Uiso   1.00
H1070  H     0.39025   0.93762   0.90455   0.00000  Uiso   1.00
H1071  H     0.47741   0.89844   0.54232   0.00000  Uiso   1.00
H1072  H     0.49619   0.98325   0.96231   0.00000  Uiso   1.00
H1073  H     0.50597   0.97389   0.51550   0.00000  Uiso   1.00
H1074  H     0.46948   0.67632   0.51375   0.00000  Uiso   1.00
H1075  H     0.41224   0.74047   0.88703   0.00000  Uiso   1.00
H1076  H     0.40844   0.78559   0.92639   0.00000  Uiso   1.00
H1077  H     0.41833   0.73614   0.94204   0.00000  Uiso   1.00
H1078  H     0.54010   0.67029   0.71166   0.00000  Uiso   1.00
H1079  H     0.50900   0.73245   0.94240   0.00000  Uiso   1.00
H1080  H     0.53954   0.72386   0.50332   0.00000  Uiso   1.00
H1081  H     0.50390   0.86267   0.57548   0.00000  Uiso   1.00
H1082  H     0.34891   0.86084   0.71019   0.00000  Uiso   1.00
H1083  H     0.54559   0.74550   0.57976   0.00000  Uiso   1.00
H1084  H     0.45814   0.99807   0.78905   0.00000  Uiso   1.00
H1085  H     0.38501   0.92633   0.96101   0.00000  Uiso   1.00
O1086  O     0.50000   0.83333   0.75000   0.00000  Uiso   1.00
O1087  O     0.48784   0.79304   0.65459   0.00000  Uiso   1.00
O1088  O     0.46274   0.87058   0.84968   0.00000  Uiso   1.00
O1089  O     0.54157   0.84425   0.64606   0.00000  Uiso   1.00
O1090  O     0.50785   0.82546   0.84968   0.00000  Uiso   1.00
O1091  O     0.44562   0.92428   0.91695   0.00000  Uiso   1.00
O1092  O     0.44644   0.94797   0.50486   0.00000  Uiso   1.00
O1093  O     0.46979   0.76818   0.89823   0.00000  Uiso   1.00
O1094  O     0.51264   0.74686   0.78214   0.00000  Uiso   1.00
O1095  O     0.47965   0.92751   0.77013   0.00000  Uiso   1.00
O1096  O     0.40745   0.79958   0.73413   0.00000  Uiso   1.00
O1097  O     0.60026   0.85939   0.71361   0.00000  Uiso   1.00
O1098  O     0.40405   0.85544   0.78213   0.00000  Uiso   1.00
O1099  O     0.58824   0.81892   0.77014   0.00000  Uiso   1.00
O1100  O     0.47093   0.73610   0.73413   0.00000  Uiso   1.00
O1101  O     0.53678   0.92286   0.71361   0.00000  Uiso   1.00
Zn1102 Zn    0.52672   0.80661   0.78734   0.00000  Uiso   1.00
Zn1103 Zn    0.46713   0.79124   0.71876   0.00000  Uiso   1.00
Zn1104 Zn    0.54389   0.86442   0.70657   0.00000  Uiso   1.00
Zn1105 Zn    0.46226   0.87106   0.78734   0.00000  Uiso   1.00
C1106  C     0.71937   0.82630   0.76003   0.00000  Uiso   1.00
C1107  C     0.84486   0.83312   0.55785   0.00000  Uiso   1.00
C1108  C     0.86902   0.76691   0.56129   0.00000  Uiso   1.00
C1109  C     0.94741   0.84046   0.74004   0.00000  Uiso   1.00
C1110  C     0.80616   0.85905   0.92064   0.00000  Uiso   1.00
C1111  C     0.99325   0.84314   0.73602   0.00000  Uiso   1.00
C1112  C     0.67410   0.82387   0.76396   0.00000  Uiso   1.00
C1113  C     0.84699   0.98912   0.73668   0.00000  Uiso   1.00
C1114  C     0.81831   0.67844   0.76392   0.00000  Uiso   1.00
C1115  C     0.82266   0.72254   0.76028   0.00000  Uiso   1.00
C1116  C     0.84319   0.94456   0.74023   0.00000  Uiso   1.00
C1117  C     0.79424   0.91076   0.98478   0.00000  Uiso   1.00
C1118  C     0.85196   0.81450   0.62940   0.00000  Uiso   1.00
C1119  C     0.81425   0.85067   0.87124   0.00000  Uiso   1.00
C1120  C     0.86495   0.75447   0.51811   0.00000  Uiso   1.00
C1121  C     0.85820   0.80587   0.58136   0.00000  Uiso   1.00
C1122  C     0.79182   0.89749   0.94097   0.00000  Uiso   1.00
C1123  C     0.73383   0.91753   0.92535   0.00000  Uiso   1.00
C1124  C     0.81477   0.97969   0.99852   0.00000  Uiso   1.00
C1125  C     0.75861   0.75738   0.91469   0.00000  Uiso   1.00
C1126  C     0.80967   0.88582   0.50897   0.00000  Uiso   1.00
C1127  C     0.82179   0.84615   0.99079   0.00000  Uiso   1.00
C1128  C     0.81623   0.83115   0.94743   0.00000  Uiso   1.00
C1129  C     0.83847   0.82054   0.51475   0.00000  Uiso   1.00
C1130  C     0.84815   0.78016   0.99546   0.00000  Uiso   1.00
C1131  C     0.83812   0.76444   0.95535   0.00000  Uiso   1.00
C1132  C     0.81965   0.78830   0.93294   0.00000  Uiso   1.00
H1133  H     0.98579   0.80616   0.79015   0.00000  Uiso   1.00
H1134  H     0.72233   0.88456   0.91588   0.00000  Uiso   1.00
H1135  H     0.72358   0.93762   0.90455   0.00000  Uiso   1.00
H1136  H     0.81075   0.89844   0.54232   0.00000  Uiso   1.00
H1137  H     0.82952   0.98325   0.96231   0.00000  Uiso   1.00
H1138  H     0.83931   0.97389   0.51550   0.00000  Uiso   1.00
H1139  H     0.80282   0.67632   0.51375   0.00000  Uiso   1.00
H1140  H     0.74558   0.74047   0.88703   0.00000  Uiso   1.00
H1141  H     0.74177   0.78559   0.92639   0.00000  Uiso   1.00
H1142  H     0.75166   0.73614   0.94204   0.00000  Uiso   1.00
H1143  H     0.87343   0.67029   0.71166   0.00000  Uiso   1.00
H1144  H     0.84233   0.73245   0.94240   0.00000  Uiso   1.00
H1145  H     0.87287   0.72386   0.50332   0.00000  Uiso   1.00
H1146  H     0.83723   0.86267   0.57548   0.00000  Uiso   1.00
H1147  H     0.68224   0.86084   0.71019   0.00000  Uiso   1.00
H1148  H     0.87892   0.74550   0.57976   0.00000  Uiso   1.00
H1149  H     0.79147   0.99807   0.78905   0.00000  Uiso   1.00
H1150  H     0.71834   0.92633   0.96101   0.00000  Uiso   1.00
O1151  O     0.83333   0.83333   0.75000   0.00000  Uiso   1.00
O1152  O     0.82118   0.79304   0.65459   0.00000  Uiso   1.00
O1153  O     0.79607   0.87058   0.84968   0.00000  Uiso   1.00
O1154  O     0.87491   0.84425   0.64606   0.00000  Uiso   1.00
O1155  O     0.84118   0.82546   0.84968   0.00000  Uiso   1.00
O1156  O     0.77895   0.92428   0.91695   0.00000  Uiso   1.00
O1157  O     0.77978   0.94797   0.50486   0.00000  Uiso   1.00
O1158  O     0.80312   0.76818   0.89823   0.00000  Uiso   1.00
O1159  O     0.84597   0.74686   0.78214   0.00000  Uiso   1.00
O1160  O     0.81298   0.92751   0.77013   0.00000  Uiso   1.00
O1161  O     0.74078   0.79958   0.73413   0.00000  Uiso   1.00
O1162  O     0.93360   0.85939   0.71361   0.00000  Uiso   1.00
O1163  O     0.73738   0.85544   0.78213   0.00000  Uiso   1.00
O1164  O     0.92158   0.81892   0.77014   0.00000  Uiso   1.00
O1165  O     0.80426   0.73610   0.73413   0.00000  Uiso   1.00
O1166  O     0.87012   0.92286   0.71361   0.00000  Uiso   1.00
Zn1167 Zn    0.86005   0.80661   0.78734   0.00000  Uiso   1.00
Zn1168 Zn    0.80046   0.79124   0.71876   0.00000  Uiso   1.00
Zn1169 Zn    0.87723   0.86442   0.70657   0.00000  Uiso   1.00
Zn1170 Zn    0.79560   0.87106   0.78734   0.00000  Uiso   1.00
loop_
_geom_bond_atom_site_label_1
_geom_bond_atom_site_label_2
_geom_bond_distance
_geom_bond_site_symmetry_2
_ccdc_geom_bond_type
C1     O56     1.268   .     A
C1     O58     1.267   .     A
C1     C7      1.437   .     S
C2     C16     1.392   .     A
C2     C24     1.412   .     A
C2     H41     1.076   .     S
C3     C15     1.388   .     A
C3     H43     1.084   .     S
C3     C16     1.395   .     A
C4     O57     1.284   .     A
C4     O59     1.281   .     A
C4     C6      1.455   .     S
C5     C23     1.424   .     A
C5     C14     1.486   .     S
C5     C17     1.418   .     A
C6     C72     1.334   .     S
C6     H107    1.088   .     S
C7     C136    1.334   1_455 S
C7     H158    1.086   1_455 S
C8     C11     1.450   .     S
C8     C204    1.331   .     S
C8     H233    1.088   .     S
C9     C10     1.435   .     S
C9     C398    1.331   1_545 S
C9     H434    1.086   1_545 S
C10    O60     1.276   .     A
C10    O54     1.276   .     A
C11    O61     1.271   .     A
C11    O55     1.272   .     A
C12    C17     1.397   .     A
C12    C606    1.391   .     S
C12    O637    1.382   .     S
C13    O49     1.278   .     A
C13    C16     1.451   .     S
C13    O47     1.271   .     A
C14    O50     1.289   .     A
C14    O48     1.280   .     A
C15    H40     1.083   .     S
C15    C610    1.402   1_554 S
C17    O51     1.383   .     S
C18    H30     1.109   .     S
C18    O51     1.411   .     S
C18    H45     1.112   .     S
C18    H29     1.114   .     S
C19    H32     1.113   .     S
C19    H618    1.113   .     S
C19    H814    1.109   .     S
C19    O637    1.409   .     S
C20    H37     1.114   .     S
C20    H36     1.113   .     S
C20    H35     1.109   .     S
C20    O53     1.410   .     S
C21    H31     1.075   .     S
C21    C597    1.391   1_554 S
C21    C607    1.414   1_554 S
C22    C23     1.425   .     A
C22    C606    1.414   .     S
C22    C609    1.425   .     S
C23    C27     1.424   .     A
C24    C607    1.425   1_554 S
C24    C610    1.421   1_554 S
C25    C26     1.390   .     A
C25    C609    1.421   .     S
C25    C600    1.402   .     S
C26    C27     1.389   .     A
C26    H39     1.085   .     S
C27    O53     1.383   .     S
H28    C72     1.086   .     S
H33    C604    1.113   1_554 S
H34    C994    1.109   1_544 S
H38    C398    1.088   1_545 S
H42    C136    1.088   1_455 S
H44    C204    1.086   .     S
O46    Zn63    1.938   .     S
O46    Zn62    1.960   .     S
O46    Zn65    1.928   .     S
O46    Zn64    1.941   .     S
O47    Zn63    1.934   .     S
O48    Zn65    1.942   .     S
O49    Zn64    1.932   .     S
O50    Zn62    1.926   .     S
O52    C604    1.409   1_554 S
O52    C597    1.382   1_554 S
O54    Zn62    1.927   .     S
O55    Zn65    1.934   .     S
O56    Zn63    1.927   .     S
O57    Zn64    1.936   .     S
O58    Zn65    1.932   .     S
O59    Zn62    1.926   .     S
O60    Zn63    1.937   .     S
O61    Zn64    1.928   .     S
C66    O121    1.268   .     A
C66    O123    1.267   .     A
C66    C72     1.437   .     S
C67    C81     1.392   .     A
C67    C89     1.412   .     A
C67    H106    1.076   .     S
C68    C80     1.388   .     A
C68    H108    1.084   .     S
C68    C81     1.395   .     A
C69    O122    1.284   .     A
C69    O124    1.281   .     A
C69    C71     1.455   .     S
C70    C88     1.424   .     A
C70    C79     1.486   .     S
C70    C82     1.418   .     A
C71    C137    1.334   .     S
C71    H172    1.088   .     S
C73    C76     1.450   .     S
C73    C269    1.331   .     S
C73    H298    1.088   .     S
C74    C75     1.435   .     S
C74    C463    1.331   1_545 S
C74    H499    1.086   1_545 S
C75    O125    1.276   .     A
C75    O119    1.276   .     A
C76    O126    1.271   .     A
C76    O120    1.272   .     A
C77    C82     1.397   .     A
C77    C671    1.391   .     S
C77    O702    1.382   .     S
C78    O114    1.278   .     A
C78    C81     1.451   .     S
C78    O112    1.271   .     A
C79    O115    1.289   .     A
C79    O113    1.280   .     A
C80    H105    1.083   .     S
C80    C675    1.402   1_554 S
C82    O116    1.383   .     S
C83    H95     1.109   .     S
C83    O116    1.411   .     S
C83    H110    1.112   .     S
C83    H94     1.114   .     S
C84    H97     1.113   .     S
C84    H683    1.113   .     S
C84    H879    1.109   .     S
C84    O702    1.409   .     S
C85    H102    1.114   .     S
C85    H101    1.113   .     S
C85    H100    1.109   .     S
C85    O118    1.410   .     S
C86    H96     1.075   .     S
C86    C662    1.391   1_554 S
C86    C672    1.414   1_554 S
C87    C88     1.425   .     A
C87    C671    1.414   .     S
C87    C674    1.425   .     S
C88    C92     1.424   .     A
C89    C672    1.425   1_554 S
C89    C675    1.421   1_554 S
C90    C91     1.390   .     A
C90    C674    1.421   .     S
C90    C665    1.402   .     S
C91    C92     1.389   .     A
C91    H104    1.085   .     S
C92    O118    1.383   .     S
H93    C137    1.086   .     S
H98    C669    1.113   1_554 S
H99    C1059   1.109   1_544 S
H103   C463    1.088   1_545 S
H109   C269    1.086   .     S
O111   Zn128   1.938   .     S
O111   Zn127   1.960   .     S
O111   Zn130   1.928   .     S
O111   Zn129   1.941   .     S
O112   Zn128   1.934   .     S
O113   Zn130   1.942   .     S
O114   Zn129   1.932   .     S
O115   Zn127   1.926   .     S
O117   C669    1.409   1_554 S
O117   C662    1.382   1_554 S
O119   Zn127   1.927   .     S
O120   Zn130   1.934   .     S
O121   Zn128   1.927   .     S
O122   Zn129   1.936   .     S
O123   Zn130   1.932   .     S
O124   Zn127   1.926   .     S
O125   Zn128   1.937   .     S
O126   Zn129   1.928   .     S
C131   O186    1.268   .     A
C131   O188    1.267   .     A
C131   C137    1.437   .     S
C132   C146    1.392   .     A
C132   C154    1.412   .     A
C132   H171    1.076   .     S
C133   C145    1.388   .     A
C133   H173    1.084   .     S
C133   C146    1.395   .     A
C134   O187    1.284   .     A
C134   O189    1.281   .     A
C134   C136    1.455   .     S
C135   C153    1.424   .     A
C135   C144    1.486   .     S
C135   C147    1.418   .     A
C136   C7      1.334   1_655 S
C136   H42     1.088   1_655 S
C138   C141    1.450   .     S
C138   C334    1.331   .     S
C138   H363    1.088   .     S
C139   C140    1.435   .     S
C139   C528    1.331   1_545 S
C139   H564    1.086   1_545 S
C140   O190    1.276   .     A
C140   O184    1.276   .     A
C141   O191    1.271   .     A
C141   O185    1.272   .     A
C142   C147    1.397   .     A
C142   C736    1.391   .     S
C142   O767    1.382   .     S
C143   O179    1.278   .     A
C143   C146    1.451   .     S
C143   O177    1.271   .     A
C144   O180    1.289   .     A
C144   O178    1.280   .     A
C145   H170    1.083   .     S
C145   C740    1.402   1_554 S
C147   O181    1.383   .     S
C148   H160    1.109   .     S
C148   O181    1.411   .     S
C148   H175    1.112   .     S
C148   H159    1.114   .     S
C149   H162    1.113   .     S
C149   H748    1.113   .     S
C149   H944    1.109   .     S
C149   O767    1.409   .     S
C150   H167    1.114   .     S
C150   H166    1.113   .     S
C150   H165    1.109   .     S
C150   O183    1.410   .     S
C151   H161    1.075   .     S
C151   C727    1.391   1_554 S
C151   C737    1.414   1_554 S
C152   C153    1.425   .     A
C152   C736    1.414   .     S
C152   C739    1.425   .     S
C153   C157    1.424   .     A
C154   C737    1.425   1_554 S
C154   C740    1.421   1_554 S
C155   C156    1.390   .     A
C155   C739    1.421   .     S
C155   C730    1.402   .     S
C156   C157    1.389   .     A
C156   H169    1.085   .     S
C157   O183    1.383   .     S
H158   C7      1.086   1_655 S
H163   C734    1.113   1_554 S
H164   C1124   1.109   1_544 S
H168   C528    1.088   1_545 S
H174   C334    1.086   .     S
O176   Zn193   1.938   .     S
O176   Zn192   1.960   .     S
O176   Zn195   1.928   .     S
O176   Zn194   1.941   .     S
O177   Zn193   1.934   .     S
O178   Zn195   1.942   .     S
O179   Zn194   1.932   .     S
O180   Zn192   1.926   .     S
O182   C734    1.409   1_554 S
O182   C727    1.382   1_554 S
O184   Zn192   1.927   .     S
O185   Zn195   1.934   .     S
O186   Zn193   1.927   .     S
O187   Zn194   1.936   .     S
O188   Zn195   1.932   .     S
O189   Zn192   1.926   .     S
O190   Zn193   1.937   .     S
O191   Zn194   1.928   .     S
C196   O251    1.268   .     A
C196   O253    1.267   .     A
C196   C202    1.437   .     S
C197   C211    1.392   .     A
C197   C219    1.412   .     A
C197   H236    1.076   .     S
C198   C210    1.388   .     A
C198   H238    1.084   .     S
C198   C211    1.395   .     A
C199   O252    1.284   .     A
C199   O254    1.281   .     A
C199   C201    1.455   .     S
C200   C218    1.424   .     A
C200   C209    1.486   .     S
C200   C212    1.418   .     A
C201   C267    1.334   .     S
C201   H302    1.088   .     S
C202   C331    1.334   1_455 S
C202   H353    1.086   1_455 S
C203   C206    1.450   .     S
C203   C399    1.331   .     S
C203   H428    1.088   .     S
C204   C205    1.435   .     S
C205   O255    1.276   .     A
C205   O249    1.276   .     A
C206   O256    1.271   .     A
C206   O250    1.272   .     A
C207   C212    1.397   .     A
C207   C801    1.391   .     S
C207   O832    1.382   .     S
C208   O244    1.278   .     A
C208   C211    1.451   .     S
C208   O242    1.271   .     A
C209   O245    1.289   .     A
C209   O243    1.280   .     A
C210   H235    1.083   .     S
C210   C805    1.402   1_554 S
C212   O246    1.383   .     S
C213   H225    1.109   .     S
C213   O246    1.411   .     S
C213   H240    1.112   .     S
C213   H224    1.114   .     S
C214   H227    1.113   .     S
C214   H813    1.113   .     S
C214   H1009   1.109   .     S
C214   O832    1.409   .     S
C215   H232    1.114   .     S
C215   H231    1.113   .     S
C215   H230    1.109   .     S
C215   O248    1.410   .     S
C216   H226    1.075   .     S
C216   C792    1.391   1_554 S
C216   C802    1.414   1_554 S
C217   C218    1.425   .     A
C217   C801    1.414   .     S
C217   C804    1.425   .     S
C218   C222    1.424   .     A
C219   C802    1.425   1_554 S
C219   C805    1.421   1_554 S
C220   C221    1.390   .     A
C220   C804    1.421   .     S
C220   C795    1.402   .     S
C221   C222    1.389   .     A
C221   H234    1.085   .     S
C222   O248    1.383   .     S
H223   C267    1.086   .     S
H228   C799    1.113   1_554 S
H229   C604    1.109   1_554 S
H237   C331    1.088   1_455 S
H239   C399    1.086   .     S
O241   Zn258   1.938   .     S
O241   Zn257   1.960   .     S
O241   Zn260   1.928   .     S
O241   Zn259   1.941   .     S
O242   Zn258   1.934   .     S
O243   Zn260   1.942   .     S
O244   Zn259   1.932   .     S
O245   Zn257   1.926   .     S
O247   C799    1.409   1_554 S
O247   C792    1.382   1_554 S
O249   Zn257   1.927   .     S
O250   Zn260   1.934   .     S
O251   Zn258   1.927   .     S
O252   Zn259   1.936   .     S
O253   Zn260   1.932   .     S
O254   Zn257   1.926   .     S
O255   Zn258   1.937   .     S
O256   Zn259   1.928   .     S
C261   O316    1.268   .     A
C261   O318    1.267   .     A
C261   C267    1.437   .     S
C262   C276    1.392   .     A
C262   C284    1.412   .     A
C262   H301    1.076   .     S
C263   C275    1.388   .     A
C263   H303    1.084   .     S
C263   C276    1.395   .     A
C264   O317    1.284   .     A
C264   O319    1.281   .     A
C264   C266    1.455   .     S
C265   C283    1.424   .     A
C265   C274    1.486   .     S
C265   C277    1.418   .     A
C266   C332    1.334   .     S
C266   H367    1.088   .     S
C268   C271    1.450   .     S
C268   C464    1.331   .     S
C268   H493    1.088   .     S
C269   C270    1.435   .     S
C270   O320    1.276   .     A
C270   O314    1.276   .     A
C271   O321    1.271   .     A
C271   O315    1.272   .     A
C272   C277    1.397   .     A
C272   C866    1.391   .     S
C272   O897    1.382   .     S
C273   O309    1.278   .     A
C273   C276    1.451   .     S
C273   O307    1.271   .     A
C274   O310    1.289   .     A
C274   O308    1.280   .     A
C275   H300    1.083   .     S
C275   C870    1.402   1_554 S
C277   O311    1.383   .     S
C278   H290    1.109   .     S
C278   O311    1.411   .     S
C278   H305    1.112   .     S
C278   H289    1.114   .     S
C279   H292    1.113   .     S
C279   H878    1.113   .     S
C279   H1074   1.109   .     S
C279   O897    1.409   .     S
C280   H297    1.114   .     S
C280   H296    1.113   .     S
C280   H295    1.109   .     S
C280   O313    1.410   .     S
C281   H291    1.075   .     S
C281   C857    1.391   1_554 S
C281   C867    1.414   1_554 S
C282   C283    1.425   .     A
C282   C866    1.414   .     S
C282   C869    1.425   .     S
C283   C287    1.424   .     A
C284   C867    1.425   1_554 S
C284   C870    1.421   1_554 S
C285   C286    1.390   .     A
C285   C869    1.421   .     S
C285   C860    1.402   .     S
C286   C287    1.389   .     A
C286   H299    1.085   .     S
C287   O313    1.383   .     S
H288   C332    1.086   .     S
H293   C864    1.113   1_554 S
H294   C669    1.109   1_554 S
H304   C464    1.086   .     S
O306   Zn323   1.938   .     S
O306   Zn322   1.960   .     S
O306   Zn325   1.928   .     S
O306   Zn324   1.941   .     S
O307   Zn323   1.934   .     S
O308   Zn325   1.942   .     S
O309   Zn324   1.932   .     S
O310   Zn322   1.926   .     S
O312   C864    1.409   1_554 S
O312   C857    1.382   1_554 S
O314   Zn322   1.927   .     S
O315   Zn325   1.934   .     S
O316   Zn323   1.927   .     S
O317   Zn324   1.936   .     S
O318   Zn325   1.932   .     S
O319   Zn322   1.926   .     S
O320   Zn323   1.937   .     S
O321   Zn324   1.928   .     S
C326   O381    1.268   .     A
C326   O383    1.267   .     A
C326   C332    1.437   .     S
C327   C341    1.392   .     A
C327   C349    1.412   .     A
C327   H366    1.076   .     S
C328   C340    1.388   .     A
C328   H368    1.084   .     S
C328   C341    1.395   .     A
C329   O382    1.284   .     A
C329   O384    1.281   .     A
C329   C331    1.455   .     S
C330   C348    1.424   .     A
C330   C339    1.486   .     S
C330   C342    1.418   .     A
C331   C202    1.334   1_655 S
C331   H237    1.088   1_655 S
C333   C336    1.450   .     S
C333   C529    1.331   .     S
C333   H558    1.088   .     S
C334   C335    1.435   .     S
C335   O385    1.276   .     A
C335   O379    1.276   .     A
C336   O386    1.271   .     A
C336   O380    1.272   .     A
C337   C342    1.397   .     A
C337   C931    1.391   .     S
C337   O962    1.382   .     S
C338   O374    1.278   .     A
C338   C341    1.451   .     S
C338   O372    1.271   .     A
C339   O375    1.289   .     A
C339   O373    1.280   .     A
C340   H365    1.083   .     S
C340   C935    1.402   1_554 S
C342   O376    1.383   .     S
C343   H355    1.109   .     S
C343   O376    1.411   .     S
C343   H370    1.112   .     S
C343   H354    1.114   .     S
C344   H357    1.113   .     S
C344   H943    1.113   .     S
C344   H1139   1.109   .     S
C344   O962    1.409   .     S
C345   H362    1.114   .     S
C345   H361    1.113   .     S
C345   H360    1.109   .     S
C345   O378    1.410   .     S
C346   H356    1.075   .     S
C346   C922    1.391   1_554 S
C346   C932    1.414   1_554 S
C347   C348    1.425   .     A
C347   C931    1.414   .     S
C347   C934    1.425   .     S
C348   C352    1.424   .     A
C349   C932    1.425   1_554 S
C349   C935    1.421   1_554 S
C350   C351    1.390   .     A
C350   C934    1.421   .     S
C350   C925    1.402   .     S
C351   C352    1.389   .     A
C351   H364    1.085   .     S
C352   O378    1.383   .     S
H353   C202    1.086   1_655 S
H358   C929    1.113   1_554 S
H359   C734    1.109   1_554 S
H369   C529    1.086   .     S
O371   Zn388   1.938   .     S
O371   Zn387   1.960   .     S
O371   Zn390   1.928   .     S
O371   Zn389   1.941   .     S
O372   Zn388   1.934   .     S
O373   Zn390   1.942   .     S
O374   Zn389   1.932   .     S
O375   Zn387   1.926   .     S
O377   C929    1.409   1_554 S
O377   C922    1.382   1_554 S
O379   Zn387   1.927   .     S
O380   Zn390   1.934   .     S
O381   Zn388   1.927   .     S
O382   Zn389   1.936   .     S
O383   Zn390   1.932   .     S
O384   Zn387   1.926   .     S
O385   Zn388   1.937   .     S
O386   Zn389   1.928   .     S
C391   O446    1.268   .     A
C391   O448    1.267   .     A
C391   C397    1.437   .     S
C392   C406    1.392   .     A
C392   C414    1.412   .     A
C392   H431    1.076   .     S
C393   C405    1.388   .     A
C393   H433    1.084   .     S
C393   C406    1.395   .     A
C394   O447    1.284   .     A
C394   O449    1.281   .     A
C394   C396    1.455   .     S
C395   C413    1.424   .     A
C395   C404    1.486   .     S
C395   C407    1.418   .     A
C396   C462    1.334   .     S
C396   H497    1.088   .     S
C397   C526    1.334   1_455 S
C397   H548    1.086   1_455 S
C398   C401    1.450   .     S
C398   C9      1.331   1_565 S
C398   H38     1.088   1_565 S
C399   C400    1.435   .     S
C400   O450    1.276   .     A
C400   O444    1.276   .     A
C401   O451    1.271   .     A
C401   O445    1.272   .     A
C402   C407    1.397   .     A
C402   C996    1.391   .     S
C402   O1027   1.382   .     S
C403   O439    1.278   .     A
C403   C406    1.451   .     S
C403   O437    1.271   .     A
C404   O440    1.289   .     A
C404   O438    1.280   .     A
C405   H430    1.083   .     S
C405   C1000   1.402   1_554 S
C407   O441    1.383   .     S
C408   H420    1.109   .     S
C408   O441    1.411   .     S
C408   H435    1.112   .     S
C408   H419    1.114   .     S
C409   H422    1.113   .     S
C409   H1008   1.113   .     S
C409   H619    1.109   1_565 S
C409   O1027   1.409   .     S
C410   H427    1.114   .     S
C410   H426    1.113   .     S
C410   H425    1.109   .     S
C410   O443    1.410   .     S
C411   H421    1.075   .     S
C411   C987    1.391   1_554 S
C411   C997    1.414   1_554 S
C412   C413    1.425   .     A
C412   C996    1.414   .     S
C412   C999    1.425   .     S
C413   C417    1.424   .     A
C414   C997    1.425   1_554 S
C414   C1000   1.421   1_554 S
C415   C416    1.390   .     A
C415   C999    1.421   .     S
C415   C990    1.402   .     S
C416   C417    1.389   .     A
C416   H429    1.085   .     S
C417   O443    1.383   .     S
H418   C462    1.086   .     S
H423   C994    1.113   1_554 S
H424   C799    1.109   1_554 S
H432   C526    1.088   1_455 S
H434   C9      1.086   1_565 S
O436   Zn453   1.938   .     S
O436   Zn452   1.960   .     S
O436   Zn455   1.928   .     S
O436   Zn454   1.941   .     S
O437   Zn453   1.934   .     S
O438   Zn455   1.942   .     S
O439   Zn454   1.932   .     S
O440   Zn452   1.926   .     S
O442   C994    1.409   1_554 S
O442   C987    1.382   1_554 S
O444   Zn452   1.927   .     S
O445   Zn455   1.934   .     S
O446   Zn453   1.927   .     S
O447   Zn454   1.936   .     S
O448   Zn455   1.932   .     S
O449   Zn452   1.926   .     S
O450   Zn453   1.937   .     S
O451   Zn454   1.928   .     S
C456   O511    1.268   .     A
C456   O513    1.267   .     A
C456   C462    1.437   .     S
C457   C471    1.392   .     A
C457   C479    1.412   .     A
C457   H496    1.076   .     S
C458   C470    1.388   .     A
C458   H498    1.084   .     S
C458   C471    1.395   .     A
C459   O512    1.284   .     A
C459   O514    1.281   .     A
C459   C461    1.455   .     S
C460   C478    1.424   .     A
C460   C469    1.486   .     S
C460   C472    1.418   .     A
C461   C527    1.334   .     S
C461   H562    1.088   .     S
C463   C466    1.450   .     S
C463   C74     1.331   1_565 S
C463   H103    1.088   1_565 S
C464   C465    1.435   .     S
C465   O515    1.276   .     A
C465   O509    1.276   .     A
C466   O516    1.271   .     A
C466   O510    1.272   .     A
C467   C472    1.397   .     A
C467   C1061   1.391   .     S
C467   O1092   1.382   .     S
C468   O504    1.278   .     A
C468   C471    1.451   .     S
C468   O502    1.271   .     A
C469   O505    1.289   .     A
C469   O503    1.280   .     A
C470   H495    1.083   .     S
C470   C1065   1.402   1_554 S
C472   O506    1.383   .     S
C473   H485    1.109   .     S
C473   O506    1.411   .     S
C473   H500    1.112   .     S
C473   H484    1.114   .     S
C474   H487    1.113   .     S
C474   H1073   1.113   .     S
C474   H684    1.109   1_565 S
C474   O1092   1.409   .     S
C475   H492    1.114   .     S
C475   H491    1.113   .     S
C475   H490    1.109   .     S
C475   O508    1.410   .     S
C476   H486    1.075   .     S
C476   C1052   1.391   1_554 S
C476   C1062   1.414   1_554 S
C477   C478    1.425   .     A
C477   C1061   1.414   .     S
C477   C1064   1.425   .     S
C478   C482    1.424   .     A
C479   C1062   1.425   1_554 S
C479   C1065   1.421   1_554 S
C480   C481    1.390   .     A
C480   C1064   1.421   .     S
C480   C1055   1.402   .     S
C481   C482    1.389   .     A
C481   H494    1.085   .     S
C482   O508    1.383   .     S
H483   C527    1.086   .     S
H488   C1059   1.113   1_554 S
H489   C864    1.109   1_554 S
H499   C74     1.086   1_565 S
O501   Zn518   1.938   .     S
O501   Zn517   1.960   .     S
O501   Zn520   1.928   .     S
O501   Zn519   1.941   .     S
O502   Zn518   1.934   .     S
O503   Zn520   1.942   .     S
O504   Zn519   1.932   .     S
O505   Zn517   1.926   .     S
O507   C1059   1.409   1_554 S
O507   C1052   1.382   1_554 S
O509   Zn517   1.927   .     S
O510   Zn520   1.934   .     S
O511   Zn518   1.927   .     S
O512   Zn519   1.936   .     S
O513   Zn520   1.932   .     S
O514   Zn517   1.926   .     S
O515   Zn518   1.937   .     S
O516   Zn519   1.928   .     S
C521   O576    1.268   .     A
C521   O578    1.267   .     A
C521   C527    1.437   .     S
C522   C536    1.392   .     A
C522   C544    1.412   .     A
C522   H561    1.076   .     S
C523   C535    1.388   .     A
C523   H563    1.084   .     S
C523   C536    1.395   .     A
C524   O577    1.284   .     A
C524   O579    1.281   .     A
C524   C526    1.455   .     S
C525   C543    1.424   .     A
C525   C534    1.486   .     S
C525   C537    1.418   .     A
C526   C397    1.334   1_655 S
C526   H432    1.088   1_655 S
C528   C531    1.450   .     S
C528   C139    1.331   1_565 S
C528   H168    1.088   1_565 S
C529   C530    1.435   .     S
C530   O580    1.276   .     A
C530   O574    1.276   .     A
C531   O581    1.271   .     A
C531   O575    1.272   .     A
C532   C537    1.397   .     A
C532   C1126   1.391   .     S
C532   O1157   1.382   .     S
C533   O569    1.278   .     A
C533   C536    1.451   .     S
C533   O567    1.271   .     A
C534   O570    1.289   .     A
C534   O568    1.280   .     A
C535   H560    1.083   .     S
C535   C1130   1.402   1_554 S
C537   O571    1.383   .     S
C538   H550    1.109   .     S
C538   O571    1.411   .     S
C538   H565    1.112   .     S
C538   H549    1.114   .     S
C539   H552    1.113   .     S
C539   H1138   1.113   .     S
C539   H749    1.109   1_565 S
C539   O1157   1.409   .     S
C540   H557    1.114   .     S
C540   H556    1.113   .     S
C540   H555    1.109   .     S
C540   O573    1.410   .     S
C541   H551    1.075   .     S
C541   C1117   1.391   1_554 S
C541   C1127   1.414   1_554 S
C542   C543    1.425   .     A
C542   C1126   1.414   .     S
C542   C1129   1.425   .     S
C543   C547    1.424   .     A
C544   C1127   1.425   1_554 S
C544   C1130   1.421   1_554 S
C545   C546    1.390   .     A
C545   C1129   1.421   .     S
C545   C1120   1.402   .     S
C546   C547    1.389   .     A
C546   H559    1.085   .     S
C547   O573    1.383   .     S
H548   C397    1.086   1_655 S
H553   C1124   1.113   1_554 S
H554   C929    1.109   1_554 S
H564   C139    1.086   1_565 S
O566   Zn583   1.938   .     S
O566   Zn582   1.960   .     S
O566   Zn585   1.928   .     S
O566   Zn584   1.941   .     S
O567   Zn583   1.934   .     S
O568   Zn585   1.942   .     S
O569   Zn584   1.932   .     S
O570   Zn582   1.926   .     S
O572   C1124   1.409   1_554 S
O572   C1117   1.382   1_554 S
O574   Zn582   1.927   .     S
O575   Zn585   1.934   .     S
O576   Zn583   1.927   .     S
O577   Zn584   1.936   .     S
O578   Zn585   1.932   .     S
O579   Zn582   1.926   .     S
O580   Zn583   1.937   .     S
O581   Zn584   1.928   .     S
C586   O641    1.268   .     A
C586   O643    1.267   .     A
C586   C592    1.437   .     S
C587   C601    1.392   .     A
C587   C609    1.412   .     A
C587   H626    1.076   .     S
C588   C600    1.388   .     A
C588   H628    1.084   .     S
C588   C601    1.395   .     A
C589   O642    1.284   .     A
C589   O644    1.281   .     A
C589   C591    1.455   .     S
C590   C608    1.424   .     A
C590   C599    1.486   .     S
C590   C602    1.418   .     A
C591   C657    1.334   .     S
C591   H692    1.088   .     S
C592   C721    1.334   1_455 S
C592   H743    1.086   1_455 S
C593   C596    1.450   .     S
C593   C789    1.331   .     S
C593   H818    1.088   .     S
C594   C595    1.435   .     S
C594   C983    1.331   1_545 S
C594   H1019   1.086   1_545 S
C595   O645    1.276   .     A
C595   O639    1.276   .     A
C596   O646    1.271   .     A
C596   O640    1.272   .     A
C597   C602    1.397   .     A
C597   C21     1.391   1_556 S
C597   O52     1.382   1_556 S
C598   O634    1.278   .     A
C598   C601    1.451   .     S
C598   O632    1.271   .     A
C599   O635    1.289   .     A
C599   O633    1.280   .     A
C600   H625    1.083   .     S
C602   O636    1.383   .     S
C603   H615    1.109   .     S
C603   O636    1.411   .     S
C603   H630    1.112   .     S
C603   H614    1.114   .     S
C604   H617    1.113   .     S
C604   H33     1.113   1_556 S
C604   H229    1.109   1_556 S
C604   O52     1.409   1_556 S
C605   H622    1.114   .     S
C605   H621    1.113   .     S
C605   H620    1.109   .     S
C605   O638    1.410   .     S
C606   H616    1.075   .     S
C607   C608    1.425   .     A
C607   C21     1.414   1_556 S
C607   C24     1.425   1_556 S
C608   C612    1.424   .     A
C610   C611    1.390   .     A
C610   C24     1.421   1_556 S
C610   C15     1.402   1_556 S
C611   C612    1.389   .     A
C611   H624    1.085   .     S
C612   O638    1.383   .     S
H613   C657    1.086   .     S
H619   C409    1.109   1_545 S
H623   C983    1.088   1_545 S
H627   C721    1.088   1_455 S
H629   C789    1.086   .     S
O631   Zn648   1.938   .     S
O631   Zn647   1.960   .     S
O631   Zn650   1.928   .     S
O631   Zn649   1.941   .     S
O632   Zn648   1.934   .     S
O633   Zn650   1.942   .     S
O634   Zn649   1.932   .     S
O635   Zn647   1.926   .     S
O639   Zn647   1.927   .     S
O640   Zn650   1.934   .     S
O641   Zn648   1.927   .     S
O642   Zn649   1.936   .     S
O643   Zn650   1.932   .     S
O644   Zn647   1.926   .     S
O645   Zn648   1.937   .     S
O646   Zn649   1.928   .     S
C651   O706    1.268   .     A
C651   O708    1.267   .     A
C651   C657    1.437   .     S
C652   C666    1.392   .     A
C652   C674    1.412   .     A
C652   H691    1.076   .     S
C653   C665    1.388   .     A
C653   H693    1.084   .     S
C653   C666    1.395   .     A
C654   O707    1.284   .     A
C654   O709    1.281   .     A
C654   C656    1.455   .     S
C655   C673    1.424   .     A
C655   C664    1.486   .     S
C655   C667    1.418   .     A
C656   C722    1.334   .     S
C656   H757    1.088   .     S
C658   C661    1.450   .     S
C658   C854    1.331   .     S
C658   H883    1.088   .     S
C659   C660    1.435   .     S
C659   C1048   1.331   1_545 S
C659   H1084   1.086   1_545 S
C660   O710    1.276   .     A
C660   O704    1.276   .     A
C661   O711    1.271   .     A
C661   O705    1.272   .     A
C662   C667    1.397   .     A
C662   C86     1.391   1_556 S
C662   O117    1.382   1_556 S
C663   O699    1.278   .     A
C663   C666    1.451   .     S
C663   O697    1.271   .     A
C664   O700    1.289   .     A
C664   O698    1.280   .     A
C665   H690    1.083   .     S
C667   O701    1.383   .     S
C668   H680    1.109   .     S
C668   O701    1.411   .     S
C668   H695    1.112   .     S
C668   H679    1.114   .     S
C669   H682    1.113   .     S
C669   H98     1.113   1_556 S
C669   H294    1.109   1_556 S
C669   O117    1.409   1_556 S
C670   H687    1.114   .     S
C670   H686    1.113   .     S
C670   H685    1.109   .     S
C670   O703    1.410   .     S
C671   H681    1.075   .     S
C672   C673    1.425   .     A
C672   C86     1.414   1_556 S
C672   C89     1.425   1_556 S
C673   C677    1.424   .     A
C675   C676    1.390   .     A
C675   C89     1.421   1_556 S
C675   C80     1.402   1_556 S
C676   C677    1.389   .     A
C676   H689    1.085   .     S
C677   O703    1.383   .     S
H678   C722    1.086   .     S
H684   C474    1.109   1_545 S
H688   C1048   1.088   1_545 S
H694   C854    1.086   .     S
O696   Zn713   1.938   .     S
O696   Zn712   1.960   .     S
O696   Zn715   1.928   .     S
O696   Zn714   1.941   .     S
O697   Zn713   1.934   .     S
O698   Zn715   1.942   .     S
O699   Zn714   1.932   .     S
O700   Zn712   1.926   .     S
O704   Zn712   1.927   .     S
O705   Zn715   1.934   .     S
O706   Zn713   1.927   .     S
O707   Zn714   1.936   .     S
O708   Zn715   1.932   .     S
O709   Zn712   1.926   .     S
O710   Zn713   1.937   .     S
O711   Zn714   1.928   .     S
C716   O771    1.268   .     A
C716   O773    1.267   .     A
C716   C722    1.437   .     S
C717   C731    1.392   .     A
C717   C739    1.412   .     A
C717   H756    1.076   .     S
C718   C730    1.388   .     A
C718   H758    1.084   .     S
C718   C731    1.395   .     A
C719   O772    1.284   .     A
C719   O774    1.281   .     A
C719   C721    1.455   .     S
C720   C738    1.424   .     A
C720   C729    1.486   .     S
C720   C732    1.418   .     A
C721   C592    1.334   1_655 S
C721   H627    1.088   1_655 S
C723   C726    1.450   .     S
C723   C919    1.331   .     S
C723   H948    1.088   .     S
C724   C725    1.435   .     S
C724   C1113   1.331   1_545 S
C724   H1149   1.086   1_545 S
C725   O775    1.276   .     A
C725   O769    1.276   .     A
C726   O776    1.271   .     A
C726   O770    1.272   .     A
C727   C732    1.397   .     A
C727   C151    1.391   1_556 S
C727   O182    1.382   1_556 S
C728   O764    1.278   .     A
C728   C731    1.451   .     S
C728   O762    1.271   .     A
C729   O765    1.289   .     A
C729   O763    1.280   .     A
C730   H755    1.083   .     S
C732   O766    1.383   .     S
C733   H745    1.109   .     S
C733   O766    1.411   .     S
C733   H760    1.112   .     S
C733   H744    1.114   .     S
C734   H747    1.113   .     S
C734   H163    1.113   1_556 S
C734   H359    1.109   1_556 S
C734   O182    1.409   1_556 S
C735   H752    1.114   .     S
C735   H751    1.113   .     S
C735   H750    1.109   .     S
C735   O768    1.410   .     S
C736   H746    1.075   .     S
C737   C738    1.425   .     A
C737   C151    1.414   1_556 S
C737   C154    1.425   1_556 S
C738   C742    1.424   .     A
C740   C741    1.390   .     A
C740   C154    1.421   1_556 S
C740   C145    1.402   1_556 S
C741   C742    1.389   .     A
C741   H754    1.085   .     S
C742   O768    1.383   .     S
H743   C592    1.086   1_655 S
H749   C539    1.109   1_545 S
H753   C1113   1.088   1_545 S
H759   C919    1.086   .     S
O761   Zn778   1.938   .     S
O761   Zn777   1.960   .     S
O761   Zn780   1.928   .     S
O761   Zn779   1.941   .     S
O762   Zn778   1.934   .     S
O763   Zn780   1.942   .     S
O764   Zn779   1.932   .     S
O765   Zn777   1.926   .     S
O769   Zn777   1.927   .     S
O770   Zn780   1.934   .     S
O771   Zn778   1.927   .     S
O772   Zn779   1.936   .     S
O773   Zn780   1.932   .     S
O774   Zn777   1.926   .     S
O775   Zn778   1.937   .     S
O776   Zn779   1.928   .     S
C781   O836    1.268   .     A
C781   O838    1.267   .     A
C781   C787    1.437   .     S
C782   C796    1.392   .     A
C782   C804    1.412   .     A
C782   H821    1.076   .     S
C783   C795    1.388   .     A
C783   H823    1.084   .     S
C783   C796    1.395   .     A
C784   O837    1.284   .     A
C784   O839    1.281   .     A
C784   C786    1.455   .     S
C785   C803    1.424   .     A
C785   C794    1.486   .     S
C785   C797    1.418   .     A
C786   C852    1.334   .     S
C786   H887    1.088   .     S
C787   C916    1.334   1_455 S
C787   H938    1.086   1_455 S
C788   C791    1.450   .     S
C788   C984    1.331   .     S
C788   H1013   1.088   .     S
C789   C790    1.435   .     S
C790   O840    1.276   .     A
C790   O834    1.276   .     A
C791   O841    1.271   .     A
C791   O835    1.272   .     A
C792   C797    1.397   .     A
C792   C216    1.391   1_556 S
C792   O247    1.382   1_556 S
C793   O829    1.278   .     A
C793   C796    1.451   .     S
C793   O827    1.271   .     A
C794   O830    1.289   .     A
C794   O828    1.280   .     A
C795   H820    1.083   .     S
C797   O831    1.383   .     S
C798   H810    1.109   .     S
C798   O831    1.411   .     S
C798   H825    1.112   .     S
C798   H809    1.114   .     S
C799   H812    1.113   .     S
C799   H228    1.113   1_556 S
C799   H424    1.109   1_556 S
C799   O247    1.409   1_556 S
C800   H817    1.114   .     S
C800   H816    1.113   .     S
C800   H815    1.109   .     S
C800   O833    1.410   .     S
C801   H811    1.075   .     S
C802   C803    1.425   .     A
C802   C216    1.414   1_556 S
C802   C219    1.425   1_556 S
C803   C807    1.424   .     A
C805   C806    1.390   .     A
C805   C219    1.421   1_556 S
C805   C210    1.402   1_556 S
C806   C807    1.389   .     A
C806   H819    1.085   .     S
C807   O833    1.383   .     S
H808   C852    1.086   .     S
H822   C916    1.088   1_455 S
H824   C984    1.086   .     S
O826   Zn843   1.938   .     S
O826   Zn842   1.960   .     S
O826   Zn845   1.928   .     S
O826   Zn844   1.941   .     S
O827   Zn843   1.934   .     S
O828   Zn845   1.942   .     S
O829   Zn844   1.932   .     S
O830   Zn842   1.926   .     S
O834   Zn842   1.927   .     S
O835   Zn845   1.934   .     S
O836   Zn843   1.927   .     S
O837   Zn844   1.936   .     S
O838   Zn845   1.932   .     S
O839   Zn842   1.926   .     S
O840   Zn843   1.937   .     S
O841   Zn844   1.928   .     S
C846   O901    1.268   .     A
C846   O903    1.267   .     A
C846   C852    1.437   .     S
C847   C861    1.392   .     A
C847   C869    1.412   .     A
C847   H886    1.076   .     S
C848   C860    1.388   .     A
C848   H888    1.084   .     S
C848   C861    1.395   .     A
C849   O902    1.284   .     A
C849   O904    1.281   .     A
C849   C851    1.455   .     S
C850   C868    1.424   .     A
C850   C859    1.486   .     S
C850   C862    1.418   .     A
C851   C917    1.334   .     S
C851   H952    1.088   .     S
C853   C856    1.450   .     S
C853   C1049   1.331   .     S
C853   H1078   1.088   .     S
C854   C855    1.435   .     S
C855   O905    1.276   .     A
C855   O899    1.276   .     A
C856   O906    1.271   .     A
C856   O900    1.272   .     A
C857   C862    1.397   .     A
C857   C281    1.391   1_556 S
C857   O312    1.382   1_556 S
C858   O894    1.278   .     A
C858   C861    1.451   .     S
C858   O892    1.271   .     A
C859   O895    1.289   .     A
C859   O893    1.280   .     A
C860   H885    1.083   .     S
C862   O896    1.383   .     S
C863   H875    1.109   .     S
C863   O896    1.411   .     S
C863   H890    1.112   .     S
C863   H874    1.114   .     S
C864   H877    1.113   .     S
C864   H293    1.113   1_556 S
C864   H489    1.109   1_556 S
C864   O312    1.409   1_556 S
C865   H882    1.114   .     S
C865   H881    1.113   .     S
C865   H880    1.109   .     S
C865   O898    1.410   .     S
C866   H876    1.075   .     S
C867   C868    1.425   .     A
C867   C281    1.414   1_556 S
C867   C284    1.425   1_556 S
C868   C872    1.424   .     A
C870   C871    1.390   .     A
C870   C284    1.421   1_556 S
C870   C275    1.402   1_556 S
C871   C872    1.389   .     A
C871   H884    1.085   .     S
C872   O898    1.383   .     S
H873   C917    1.086   .     S
H889   C1049   1.086   .     S
O891   Zn908   1.938   .     S
O891   Zn907   1.960   .     S
O891   Zn910   1.928   .     S
O891   Zn909   1.941   .     S
O892   Zn908   1.934   .     S
O893   Zn910   1.942   .     S
O894   Zn909   1.932   .     S
O895   Zn907   1.926   .     S
O899   Zn907   1.927   .     S
O900   Zn910   1.934   .     S
O901   Zn908   1.927   .     S
O902   Zn909   1.936   .     S
O903   Zn910   1.932   .     S
O904   Zn907   1.926   .     S
O905   Zn908   1.937   .     S
O906   Zn909   1.928   .     S
C911   O966    1.268   .     A
C911   O968    1.267   .     A
C911   C917    1.437   .     S
C912   C926    1.392   .     A
C912   C934    1.412   .     A
C912   H951    1.076   .     S
C913   C925    1.388   .     A
C913   H953    1.084   .     S
C913   C926    1.395   .     A
C914   O967    1.284   .     A
C914   O969    1.281   .     A
C914   C916    1.455   .     S
C915   C933    1.424   .     A
C915   C924    1.486   .     S
C915   C927    1.418   .     A
C916   C787    1.334   1_655 S
C916   H822    1.088   1_655 S
C918   C921    1.450   .     S
C918   C1114   1.331   .     S
C918   H1143   1.088   .     S
C919   C920    1.435   .     S
C920   O970    1.276   .     A
C920   O964    1.276   .     A
C921   O971    1.271   .     A
C921   O965    1.272   .     A
C922   C927    1.397   .     A
C922   C346    1.391   1_556 S
C922   O377    1.382   1_556 S
C923   O959    1.278   .     A
C923   C926    1.451   .     S
C923   O957    1.271   .     A
C924   O960    1.289   .     A
C924   O958    1.280   .     A
C925   H950    1.083   .     S
C927   O961    1.383   .     S
C928   H940    1.109   .     S
C928   O961    1.411   .     S
C928   H955    1.112   .     S
C928   H939    1.114   .     S
C929   H942    1.113   .     S
C929   H358    1.113   1_556 S
C929   H554    1.109   1_556 S
C929   O377    1.409   1_556 S
C930   H947    1.114   .     S
C930   H946    1.113   .     S
C930   H945    1.109   .     S
C930   O963    1.410   .     S
C931   H941    1.075   .     S
C932   C933    1.425   .     A
C932   C346    1.414   1_556 S
C932   C349    1.425   1_556 S
C933   C937    1.424   .     A
C935   C936    1.390   .     A
C935   C349    1.421   1_556 S
C935   C340    1.402   1_556 S
C936   C937    1.389   .     A
C936   H949    1.085   .     S
C937   O963    1.383   .     S
H938   C787    1.086   1_655 S
H954   C1114   1.086   .     S
O956   Zn973   1.938   .     S
O956   Zn972   1.960   .     S
O956   Zn975   1.928   .     S
O956   Zn974   1.941   .     S
O957   Zn973   1.934   .     S
O958   Zn975   1.942   .     S
O959   Zn974   1.932   .     S
O960   Zn972   1.926   .     S
O964   Zn972   1.927   .     S
O965   Zn975   1.934   .     S
O966   Zn973   1.927   .     S
O967   Zn974   1.936   .     S
O968   Zn975   1.932   .     S
O969   Zn972   1.926   .     S
O970   Zn973   1.937   .     S
O971   Zn974   1.928   .     S
C976   O1031   1.268   .     A
C976   O1033   1.267   .     A
C976   C982    1.437   .     S
C977   C991    1.392   .     A
C977   C999    1.412   .     A
C977   H1016   1.076   .     S
C978   C990    1.388   .     A
C978   H1018   1.084   .     S
C978   C991    1.395   .     A
C979   O1032   1.284   .     A
C979   O1034   1.281   .     A
C979   C981    1.455   .     S
C980   C998    1.424   .     A
C980   C989    1.486   .     S
C980   C992    1.418   .     A
C981   C1047   1.334   .     S
C981   H1082   1.088   .     S
C982   C1111   1.334   1_455 S
C982   H1133   1.086   1_455 S
C983   C986    1.450   .     S
C983   C594    1.331   1_565 S
C983   H623    1.088   1_565 S
C984   C985    1.435   .     S
C985   O1035   1.276   .     A
C985   O1029   1.276   .     A
C986   O1036   1.271   .     A
C986   O1030   1.272   .     A
C987   C992    1.397   .     A
C987   C411    1.391   1_556 S
C987   O442    1.382   1_556 S
C988   O1024   1.278   .     A
C988   C991    1.451   .     S
C988   O1022   1.271   .     A
C989   O1025   1.289   .     A
C989   O1023   1.280   .     A
C990   H1015   1.083   .     S
C992   O1026   1.383   .     S
C993   H1005   1.109   .     S
C993   O1026   1.411   .     S
C993   H1020   1.112   .     S
C993   H1004   1.114   .     S
C994   H1007   1.113   .     S
C994   H423    1.113   1_556 S
C994   H34     1.109   1_566 S
C994   O442    1.409   1_556 S
C995   H1012   1.114   .     S
C995   H1011   1.113   .     S
C995   H1010   1.109   .     S
C995   O1028   1.410   .     S
C996   H1006   1.075   .     S
C997   C998    1.425   .     A
C997   C411    1.414   1_556 S
C997   C414    1.425   1_556 S
C998   C1002   1.424   .     A
C1000  C1001   1.390   .     A
C1000  C414    1.421   1_556 S
C1000  C405    1.402   1_556 S
C1001  C1002   1.389   .     A
C1001  H1014   1.085   .     S
C1002  O1028   1.383   .     S
H1003  C1047   1.086   .     S
H1017  C1111   1.088   1_455 S
H1019  C594    1.086   1_565 S
O1021  Zn1038  1.938   .     S
O1021  Zn1037  1.960   .     S
O1021  Zn1040  1.928   .     S
O1021  Zn1039  1.941   .     S
O1022  Zn1038  1.934   .     S
O1023  Zn1040  1.942   .     S
O1024  Zn1039  1.932   .     S
O1025  Zn1037  1.926   .     S
O1029  Zn1037  1.927   .     S
O1030  Zn1040  1.934   .     S
O1031  Zn1038  1.927   .     S
O1032  Zn1039  1.936   .     S
O1033  Zn1040  1.932   .     S
O1034  Zn1037  1.926   .     S
O1035  Zn1038  1.937   .     S
O1036  Zn1039  1.928   .     S
C1041  O1096   1.268   .     A
C1041  O1098   1.267   .     A
C1041  C1047   1.437   .     S
C1042  C1056   1.392   .     A
C1042  C1064   1.412   .     A
C1042  H1081   1.076   .     S
C1043  C1055   1.388   .     A
C1043  H1083   1.084   .     S
C1043  C1056   1.395   .     A
C1044  O1097   1.284   .     A
C1044  O1099   1.281   .     A
C1044  C1046   1.455   .     S
C1045  C1063   1.424   .     A
C1045  C1054   1.486   .     S
C1045  C1057   1.418   .     A
C1046  C1112   1.334   .     S
C1046  H1147   1.088   .     S
C1048  C1051   1.450   .     S
C1048  C659    1.331   1_565 S
C1048  H688    1.088   1_565 S
C1049  C1050   1.435   .     S
C1050  O1100   1.276   .     A
C1050  O1094   1.276   .     A
C1051  O1101   1.271   .     A
C1051  O1095   1.272   .     A
C1052  C1057   1.397   .     A
C1052  C476    1.391   1_556 S
C1052  O507    1.382   1_556 S
C1053  O1089   1.278   .     A
C1053  C1056   1.451   .     S
C1053  O1087   1.271   .     A
C1054  O1090   1.289   .     A
C1054  O1088   1.280   .     A
C1055  H1080   1.083   .     S
C1057  O1091   1.383   .     S
C1058  H1070   1.109   .     S
C1058  O1091   1.411   .     S
C1058  H1085   1.112   .     S
C1058  H1069   1.114   .     S
C1059  H1072   1.113   .     S
C1059  H488    1.113   1_556 S
C1059  H99     1.109   1_566 S
C1059  O507    1.409   1_556 S
C1060  H1077   1.114   .     S
C1060  H1076   1.113   .     S
C1060  H1075   1.109   .     S
C1060  O1093   1.410   .     S
C1061  H1071   1.075   .     S
C1062  C1063   1.425   .     A
C1062  C476    1.414   1_556 S
C1062  C479    1.425   1_556 S
C1063  C1067   1.424   .     A
C1065  C1066   1.390   .     A
C1065  C479    1.421   1_556 S
C1065  C470    1.402   1_556 S
C1066  C1067   1.389   .     A
C1066  H1079   1.085   .     S
C1067  O1093   1.383   .     S
H1068  C1112   1.086   .     S
H1084  C659    1.086   1_565 S
O1086  Zn1103  1.938   .     S
O1086  Zn1102  1.960   .     S
O1086  Zn1105  1.928   .     S
O1086  Zn1104  1.941   .     S
O1087  Zn1103  1.934   .     S
O1088  Zn1105  1.942   .     S
O1089  Zn1104  1.932   .     S
O1090  Zn1102  1.926   .     S
O1094  Zn1102  1.927   .     S
O1095  Zn1105  1.934   .     S
O1096  Zn1103  1.927   .     S
O1097  Zn1104  1.936   .     S
O1098  Zn1105  1.932   .     S
O1099  Zn1102  1.926   .     S
O1100  Zn1103  1.937   .     S
O1101  Zn1104  1.928   .     S
C1106  O1161   1.268   .     A
C1106  O1163   1.267   .     A
C1106  C1112   1.437   .     S
C1107  C1121   1.392   .     A
C1107  C1129   1.412   .     A
C1107  H1146   1.076   .     S
C1108  C1120   1.388   .     A
C1108  H1148   1.084   .     S
C1108  C1121   1.395   .     A
C1109  O1162   1.284   .     A
C1109  O1164   1.281   .     A
C1109  C1111   1.455   .     S
C1110  C1128   1.424   .     A
C1110  C1119   1.486   .     S
C1110  C1122   1.418   .     A
C1111  C982    1.334   1_655 S
C1111  H1017   1.088   1_655 S
C1113  C1116   1.450   .     S
C1113  C724    1.331   1_565 S
C1113  H753    1.088   1_565 S
C1114  C1115   1.435   .     S
C1115  O1165   1.276   .     A
C1115  O1159   1.276   .     A
C1116  O1166   1.271   .     A
C1116  O1160   1.272   .     A
C1117  C1122   1.397   .     A
C1117  C541    1.391   1_556 S
C1117  O572    1.382   1_556 S
C1118  O1154   1.278   .     A
C1118  C1121   1.451   .     S
C1118  O1152   1.271   .     A
C1119  O1155   1.289   .     A
C1119  O1153   1.280   .     A
C1120  H1145   1.083   .     S
C1122  O1156   1.383   .     S
C1123  H1135   1.109   .     S
C1123  O1156   1.411   .     S
C1123  H1150   1.112   .     S
C1123  H1134   1.114   .     S
C1124  H1137   1.113   .     S
C1124  H553    1.113   1_556 S
C1124  H164    1.109   1_566 S
C1124  O572    1.409   1_556 S
C1125  H1142   1.114   .     S
C1125  H1141   1.113   .     S
C1125  H1140   1.109   .     S
C1125  O1158   1.410   .     S
C1126  H1136   1.075   .     S
C1127  C1128   1.425   .     A
C1127  C541    1.414   1_556 S
C1127  C544    1.425   1_556 S
C1128  C1132   1.424   .     A
C1130  C1131   1.390   .     A
C1130  C544    1.421   1_556 S
C1130  C535    1.402   1_556 S
C1131  C1132   1.389   .     A
C1131  H1144   1.085   .     S
C1132  O1158   1.383   .     S
H1133  C982    1.086   1_655 S
H1149  C724    1.086   1_565 S
O1151  Zn1168  1.938   .     S
O1151  Zn1167  1.960   .     S
O1151  Zn1170  1.928   .     S
O1151  Zn1169  1.941   .     S
O1152  Zn1168  1.934   .     S
O1153  Zn1170  1.942   .     S
O1154  Zn1169  1.932   .     S
O1155  Zn1167  1.926   .     S
O1159  Zn1167  1.927   .     S
O1160  Zn1170  1.934   .     S
O1161  Zn1168  1.927   .     S
O1162  Zn1169  1.936   .     S
O1163  Zn1170  1.932   .     S
O1164  Zn1167  1.926   .     S
O1165  Zn1168  1.937   .     S
O1166  Zn1169  1.928   .     S
