data_str_m2_o10_o17_pcu_sym.58
_audit_creation_date              2020-01-03
_audit_creation_method            'Materials Studio'
_symmetry_space_group_name_H-M    'P1'
_symmetry_Int_Tables_number       1
_symmetry_cell_setting            triclinic
loop_
_symmetry_equiv_pos_as_xyz
  x,y,z
_cell_length_a                    29.9970
_cell_length_b                    26.2602
_cell_length_c                    22.5841
_cell_angle_alpha                 103.3620
_cell_angle_beta                  94.3344
_cell_angle_gamma                 94.2028
loop_
_atom_site_label
_atom_site_type_symbol
_atom_site_fract_x
_atom_site_fract_y
_atom_site_fract_z
_atom_site_U_iso_or_equiv
_atom_site_adp_type
_atom_site_occupancy
C1     C     0.24804   0.06672   0.15116   0.00000  Uiso   1.00
C2     C     0.08888   0.11803   0.13959   0.00000  Uiso   1.00
C3     C     0.38357   0.16915   0.16500   0.00000  Uiso   1.00
C4     C     0.11643   0.16419   0.16833   0.00000  Uiso   1.00
C5     C     0.40170   0.12346   0.13744   0.00000  Uiso   1.00
C6     C     0.09830   0.20987   0.19589   0.00000  Uiso   1.00
C7     C     0.44789   0.12204   0.13922   0.00000  Uiso   1.00
C8     C     0.05211   0.21129   0.19411   0.00000  Uiso   1.00
C9     C     0.47658   0.16781   0.16648   0.00000  Uiso   1.00
C10    C     0.02342   0.16552   0.16685   0.00000  Uiso   1.00
C11    C     0.45844   0.21568   0.19309   0.00000  Uiso   1.00
C12    C     0.25196   0.26661   0.18217   0.00000  Uiso   1.00
C13    C     0.04156   0.11766   0.14024   0.00000  Uiso   1.00
C14    C     0.46542   0.07477   0.11497   0.00000  Uiso   1.00
C15    C     0.03458   0.25856   0.21837   0.00000  Uiso   1.00
C16    C     0.38938   0.26167   0.22458   0.00000  Uiso   1.00
C17    C     0.11062   0.07166   0.10875   0.00000  Uiso   1.00
C18    C     0.20786   0.31519   0.09254   0.00000  Uiso   1.00
C19    C     0.29214   0.01814   0.24080   0.00000  Uiso   1.00
C20    C     0.19559   0.12890   0.31515   0.00000  Uiso   1.00
C21    C     0.30441   0.20443   0.01818   0.00000  Uiso   1.00
C22    C     0.01165   0.07163   0.11619   0.00000  Uiso   1.00
C23    C     0.48835   0.26170   0.21714   0.00000  Uiso   1.00
C24    C     0.24111   0.01083   0.14428   0.00000  Uiso   1.00
C25    C     0.25889   0.32250   0.18905   0.00000  Uiso   1.00
C26    C     0.16471   0.16631   0.16727   0.00000  Uiso   1.00
C27    C     0.33529   0.16703   0.16607   0.00000  Uiso   1.00
C28    C     0.41112   0.21530   0.19374   0.00000  Uiso   1.00
Cu29   Cu    0.25501   0.17246   0.22813   0.00000  Uiso   1.00
Cu30   Cu    0.24500   0.16087   0.10521   0.00000  Uiso   1.00
H31    H     0.37955   0.08829   0.11643   0.00000  Uiso   1.00
H32    H     0.48525   0.00448   0.21345   0.00000  Uiso   1.00
H33    H     0.18824   0.29925   0.00218   0.00000  Uiso   1.00
H34    H     0.31176   0.03408   0.33116   0.00000  Uiso   1.00
H35    H     0.15952   0.06362   0.26420   0.00000  Uiso   1.00
H36    H     0.34048   0.26971   0.06913   0.00000  Uiso   1.00
H37    H     0.12045   0.24505   0.21690   0.00000  Uiso   1.00
H38    H     0.44304   0.03947   0.09569   0.00000  Uiso   1.00
H39    H     0.05696   0.29386   0.23764   0.00000  Uiso   1.00
H40    H     0.37787   0.31014   0.30409   0.00000  Uiso   1.00
H41    H     0.12213   0.02319   0.02924   0.00000  Uiso   1.00
H42    H     0.01475   0.32885   0.11988   0.00000  Uiso   1.00
H43    H     0.01465   0.00624   0.04916   0.00000  Uiso   1.00
H44    H     0.48535   0.32709   0.28418   0.00000  Uiso   1.00
N45    N     0.23745   0.15214   0.01284   0.00000  Uiso   1.00
N46    N     0.26256   0.18119   0.32049   0.00000  Uiso   1.00
N47    N     0.02745   0.02103   0.09465   0.00000  Uiso   1.00
N48    N     0.47255   0.31231   0.23868   0.00000  Uiso   1.00
O49    O     0.25326   0.09538   0.20659   0.00000  Uiso   1.00
O50    O     0.39417   0.27797   0.28837   0.00000  Uiso   1.00
O51    O     0.13305   0.04832   0.13932   0.00000  Uiso   1.00
O52    O     0.10583   0.05536   0.04496   0.00000  Uiso   1.00
O53    O     0.17604   0.28726   0.10211   0.00000  Uiso   1.00
O54    O     0.21253   0.32105   0.03330   0.00000  Uiso   1.00
O55    O     0.32396   0.04608   0.23122   0.00000  Uiso   1.00
O56    O     0.28747   0.01228   0.30004   0.00000  Uiso   1.00
O57    O     0.16234   0.15315   0.32215   0.00000  Uiso   1.00
O58    O     0.19147   0.07654   0.28211   0.00000  Uiso   1.00
O59    O     0.33766   0.18019   0.01119   0.00000  Uiso   1.00
O60    O     0.24675   0.23796   0.12674   0.00000  Uiso   1.00
O61    O     0.30853   0.25680   0.05122   0.00000  Uiso   1.00
O62    O     0.24480   0.08559   0.10279   0.00000  Uiso   1.00
O63    O     0.25520   0.24774   0.23055   0.00000  Uiso   1.00
O64    O     0.18936   0.17155   0.21857   0.00000  Uiso   1.00
O65    O     0.31065   0.16179   0.11476   0.00000  Uiso   1.00
O66    O     0.18090   0.16176   0.11477   0.00000  Uiso   1.00
O67    O     0.31910   0.17157   0.21857   0.00000  Uiso   1.00
O68    O     0.36695   0.28501   0.19401   0.00000  Uiso   1.00
C69    C     0.74804   0.06672   0.15116   0.00000  Uiso   1.00
C70    C     0.58888   0.11803   0.13959   0.00000  Uiso   1.00
C71    C     0.88357   0.16915   0.16500   0.00000  Uiso   1.00
C72    C     0.61643   0.16419   0.16833   0.00000  Uiso   1.00
C73    C     0.90170   0.12346   0.13744   0.00000  Uiso   1.00
C74    C     0.59830   0.20987   0.19589   0.00000  Uiso   1.00
C75    C     0.94789   0.12204   0.13922   0.00000  Uiso   1.00
C76    C     0.55211   0.21129   0.19411   0.00000  Uiso   1.00
C77    C     0.97658   0.16781   0.16648   0.00000  Uiso   1.00
C78    C     0.52342   0.16552   0.16685   0.00000  Uiso   1.00
C79    C     0.95844   0.21568   0.19309   0.00000  Uiso   1.00
C80    C     0.75196   0.26661   0.18217   0.00000  Uiso   1.00
C81    C     0.54156   0.11766   0.14024   0.00000  Uiso   1.00
C82    C     0.96542   0.07477   0.11497   0.00000  Uiso   1.00
C83    C     0.53458   0.25856   0.21837   0.00000  Uiso   1.00
C84    C     0.88938   0.26167   0.22458   0.00000  Uiso   1.00
C85    C     0.61062   0.07166   0.10875   0.00000  Uiso   1.00
C86    C     0.70786   0.31519   0.09254   0.00000  Uiso   1.00
C87    C     0.79214   0.01814   0.24080   0.00000  Uiso   1.00
C88    C     0.69559   0.12890   0.31515   0.00000  Uiso   1.00
C89    C     0.80441   0.20443   0.01818   0.00000  Uiso   1.00
C90    C     0.51165   0.07163   0.11619   0.00000  Uiso   1.00
C91    C     0.98835   0.26170   0.21714   0.00000  Uiso   1.00
C92    C     0.74111   0.01083   0.14428   0.00000  Uiso   1.00
C93    C     0.75889   0.32250   0.18905   0.00000  Uiso   1.00
C94    C     0.66471   0.16631   0.16727   0.00000  Uiso   1.00
C95    C     0.83529   0.16703   0.16607   0.00000  Uiso   1.00
C96    C     0.91112   0.21530   0.19374   0.00000  Uiso   1.00
Cu97   Cu    0.75501   0.17246   0.22813   0.00000  Uiso   1.00
Cu98   Cu    0.74500   0.16087   0.10521   0.00000  Uiso   1.00
H99    H     0.87955   0.08829   0.11643   0.00000  Uiso   1.00
H100   H     0.98525   0.00448   0.21345   0.00000  Uiso   1.00
H101   H     0.68824   0.29925   0.00218   0.00000  Uiso   1.00
H102   H     0.81176   0.03408   0.33116   0.00000  Uiso   1.00
H103   H     0.65952   0.06362   0.26420   0.00000  Uiso   1.00
H104   H     0.84048   0.26971   0.06913   0.00000  Uiso   1.00
H105   H     0.62045   0.24505   0.21690   0.00000  Uiso   1.00
H106   H     0.94304   0.03947   0.09569   0.00000  Uiso   1.00
H107   H     0.55696   0.29386   0.23764   0.00000  Uiso   1.00
H108   H     0.87787   0.31014   0.30409   0.00000  Uiso   1.00
H109   H     0.62213   0.02319   0.02924   0.00000  Uiso   1.00
H110   H     0.51475   0.32885   0.11988   0.00000  Uiso   1.00
H111   H     0.51465   0.00624   0.04916   0.00000  Uiso   1.00
H112   H     0.98535   0.32709   0.28418   0.00000  Uiso   1.00
N113   N     0.73745   0.15214   0.01284   0.00000  Uiso   1.00
N114   N     0.76256   0.18119   0.32049   0.00000  Uiso   1.00
N115   N     0.52745   0.02103   0.09465   0.00000  Uiso   1.00
N116   N     0.97255   0.31231   0.23868   0.00000  Uiso   1.00
O117   O     0.75326   0.09538   0.20659   0.00000  Uiso   1.00
O118   O     0.89417   0.27797   0.28837   0.00000  Uiso   1.00
O119   O     0.63305   0.04832   0.13932   0.00000  Uiso   1.00
O120   O     0.60583   0.05536   0.04496   0.00000  Uiso   1.00
O121   O     0.67604   0.28726   0.10211   0.00000  Uiso   1.00
O122   O     0.71253   0.32105   0.03330   0.00000  Uiso   1.00
O123   O     0.82396   0.04608   0.23122   0.00000  Uiso   1.00
O124   O     0.78747   0.01228   0.30004   0.00000  Uiso   1.00
O125   O     0.66234   0.15315   0.32215   0.00000  Uiso   1.00
O126   O     0.69147   0.07654   0.28211   0.00000  Uiso   1.00
O127   O     0.83766   0.18019   0.01119   0.00000  Uiso   1.00
O128   O     0.74675   0.23796   0.12674   0.00000  Uiso   1.00
O129   O     0.80853   0.25680   0.05122   0.00000  Uiso   1.00
O130   O     0.74480   0.08559   0.10279   0.00000  Uiso   1.00
O131   O     0.75520   0.24774   0.23055   0.00000  Uiso   1.00
O132   O     0.68936   0.17155   0.21857   0.00000  Uiso   1.00
O133   O     0.81065   0.16179   0.11476   0.00000  Uiso   1.00
O134   O     0.68090   0.16176   0.11477   0.00000  Uiso   1.00
O135   O     0.81910   0.17157   0.21857   0.00000  Uiso   1.00
O136   O     0.86695   0.28501   0.19401   0.00000  Uiso   1.00
C137   C     0.24804   0.40006   0.15116   0.00000  Uiso   1.00
C138   C     0.08888   0.45136   0.13959   0.00000  Uiso   1.00
C139   C     0.38357   0.50248   0.16500   0.00000  Uiso   1.00
C140   C     0.11643   0.49752   0.16833   0.00000  Uiso   1.00
C141   C     0.40170   0.45679   0.13744   0.00000  Uiso   1.00
C142   C     0.09830   0.54321   0.19589   0.00000  Uiso   1.00
C143   C     0.44789   0.45537   0.13922   0.00000  Uiso   1.00
C144   C     0.05211   0.54463   0.19411   0.00000  Uiso   1.00
C145   C     0.47658   0.50114   0.16648   0.00000  Uiso   1.00
C146   C     0.02342   0.49886   0.16685   0.00000  Uiso   1.00
C147   C     0.45844   0.54901   0.19309   0.00000  Uiso   1.00
C148   C     0.25196   0.59994   0.18217   0.00000  Uiso   1.00
C149   C     0.04156   0.45099   0.14024   0.00000  Uiso   1.00
C150   C     0.46542   0.40811   0.11497   0.00000  Uiso   1.00
C151   C     0.03458   0.59189   0.21837   0.00000  Uiso   1.00
C152   C     0.38938   0.59501   0.22458   0.00000  Uiso   1.00
C153   C     0.11062   0.40499   0.10875   0.00000  Uiso   1.00
C154   C     0.20786   0.64853   0.09254   0.00000  Uiso   1.00
C155   C     0.29214   0.35147   0.24080   0.00000  Uiso   1.00
C156   C     0.19559   0.46223   0.31515   0.00000  Uiso   1.00
C157   C     0.30441   0.53777   0.01818   0.00000  Uiso   1.00
C158   C     0.01165   0.40497   0.11619   0.00000  Uiso   1.00
C159   C     0.48835   0.59503   0.21714   0.00000  Uiso   1.00
C160   C     0.24111   0.34416   0.14428   0.00000  Uiso   1.00
C161   C     0.25889   0.65584   0.18905   0.00000  Uiso   1.00
C162   C     0.16471   0.49964   0.16727   0.00000  Uiso   1.00
C163   C     0.33529   0.50036   0.16607   0.00000  Uiso   1.00
C164   C     0.41112   0.54864   0.19374   0.00000  Uiso   1.00
Cu165  Cu    0.25501   0.50579   0.22813   0.00000  Uiso   1.00
Cu166  Cu    0.24500   0.49421   0.10521   0.00000  Uiso   1.00
H167   H     0.37955   0.42162   0.11643   0.00000  Uiso   1.00
H168   H     0.48525   0.33781   0.21345   0.00000  Uiso   1.00
H169   H     0.18824   0.63258   0.00218   0.00000  Uiso   1.00
H170   H     0.31176   0.36742   0.33116   0.00000  Uiso   1.00
H171   H     0.15952   0.39695   0.26420   0.00000  Uiso   1.00
H172   H     0.34048   0.60305   0.06913   0.00000  Uiso   1.00
H173   H     0.12045   0.57838   0.21690   0.00000  Uiso   1.00
H174   H     0.44304   0.37280   0.09569   0.00000  Uiso   1.00
H175   H     0.05696   0.62720   0.23764   0.00000  Uiso   1.00
H176   H     0.37787   0.64347   0.30409   0.00000  Uiso   1.00
H177   H     0.12213   0.35653   0.02924   0.00000  Uiso   1.00
H178   H     0.01475   0.66219   0.11988   0.00000  Uiso   1.00
H179   H     0.01465   0.33957   0.04916   0.00000  Uiso   1.00
H180   H     0.48535   0.66042   0.28418   0.00000  Uiso   1.00
N181   N     0.23745   0.48547   0.01284   0.00000  Uiso   1.00
N182   N     0.26256   0.51453   0.32049   0.00000  Uiso   1.00
N183   N     0.02745   0.35436   0.09465   0.00000  Uiso   1.00
N184   N     0.47255   0.64564   0.23868   0.00000  Uiso   1.00
O185   O     0.25326   0.42871   0.20659   0.00000  Uiso   1.00
O186   O     0.39417   0.61131   0.28837   0.00000  Uiso   1.00
O187   O     0.13305   0.38165   0.13932   0.00000  Uiso   1.00
O188   O     0.10583   0.38869   0.04496   0.00000  Uiso   1.00
O189   O     0.17604   0.62059   0.10211   0.00000  Uiso   1.00
O190   O     0.21253   0.65438   0.03330   0.00000  Uiso   1.00
O191   O     0.32396   0.37941   0.23122   0.00000  Uiso   1.00
O192   O     0.28747   0.34562   0.30004   0.00000  Uiso   1.00
O193   O     0.16234   0.48648   0.32215   0.00000  Uiso   1.00
O194   O     0.19147   0.40987   0.28211   0.00000  Uiso   1.00
O195   O     0.33766   0.51352   0.01119   0.00000  Uiso   1.00
O196   O     0.24675   0.57129   0.12674   0.00000  Uiso   1.00
O197   O     0.30853   0.59013   0.05122   0.00000  Uiso   1.00
O198   O     0.24480   0.41892   0.10279   0.00000  Uiso   1.00
O199   O     0.25520   0.58108   0.23055   0.00000  Uiso   1.00
O200   O     0.18936   0.50488   0.21857   0.00000  Uiso   1.00
O201   O     0.31065   0.49512   0.11476   0.00000  Uiso   1.00
O202   O     0.18090   0.49510   0.11477   0.00000  Uiso   1.00
O203   O     0.31910   0.50490   0.21857   0.00000  Uiso   1.00
O204   O     0.36695   0.61835   0.19401   0.00000  Uiso   1.00
C205   C     0.74804   0.40006   0.15116   0.00000  Uiso   1.00
C206   C     0.58888   0.45136   0.13959   0.00000  Uiso   1.00
C207   C     0.88357   0.50248   0.16500   0.00000  Uiso   1.00
C208   C     0.61643   0.49752   0.16833   0.00000  Uiso   1.00
C209   C     0.90170   0.45679   0.13744   0.00000  Uiso   1.00
C210   C     0.59830   0.54321   0.19589   0.00000  Uiso   1.00
C211   C     0.94789   0.45537   0.13922   0.00000  Uiso   1.00
C212   C     0.55211   0.54463   0.19411   0.00000  Uiso   1.00
C213   C     0.97658   0.50114   0.16648   0.00000  Uiso   1.00
C214   C     0.52342   0.49886   0.16685   0.00000  Uiso   1.00
C215   C     0.95844   0.54901   0.19309   0.00000  Uiso   1.00
C216   C     0.75196   0.59994   0.18217   0.00000  Uiso   1.00
C217   C     0.54156   0.45099   0.14024   0.00000  Uiso   1.00
C218   C     0.96542   0.40811   0.11497   0.00000  Uiso   1.00
C219   C     0.53458   0.59189   0.21837   0.00000  Uiso   1.00
C220   C     0.88938   0.59501   0.22458   0.00000  Uiso   1.00
C221   C     0.61062   0.40499   0.10875   0.00000  Uiso   1.00
C222   C     0.70786   0.64853   0.09254   0.00000  Uiso   1.00
C223   C     0.79214   0.35147   0.24080   0.00000  Uiso   1.00
C224   C     0.69559   0.46223   0.31515   0.00000  Uiso   1.00
C225   C     0.80441   0.53777   0.01818   0.00000  Uiso   1.00
C226   C     0.51165   0.40497   0.11619   0.00000  Uiso   1.00
C227   C     0.98835   0.59503   0.21714   0.00000  Uiso   1.00
C228   C     0.74111   0.34416   0.14428   0.00000  Uiso   1.00
C229   C     0.75889   0.65584   0.18905   0.00000  Uiso   1.00
C230   C     0.66471   0.49964   0.16727   0.00000  Uiso   1.00
C231   C     0.83529   0.50036   0.16607   0.00000  Uiso   1.00
C232   C     0.91112   0.54864   0.19374   0.00000  Uiso   1.00
Cu233  Cu    0.75501   0.50579   0.22813   0.00000  Uiso   1.00
Cu234  Cu    0.74500   0.49421   0.10521   0.00000  Uiso   1.00
H235   H     0.87955   0.42162   0.11643   0.00000  Uiso   1.00
H236   H     0.98525   0.33781   0.21345   0.00000  Uiso   1.00
H237   H     0.68824   0.63258   0.00218   0.00000  Uiso   1.00
H238   H     0.81176   0.36742   0.33116   0.00000  Uiso   1.00
H239   H     0.65952   0.39695   0.26420   0.00000  Uiso   1.00
H240   H     0.84048   0.60305   0.06913   0.00000  Uiso   1.00
H241   H     0.62045   0.57838   0.21690   0.00000  Uiso   1.00
H242   H     0.94304   0.37280   0.09569   0.00000  Uiso   1.00
H243   H     0.55696   0.62720   0.23764   0.00000  Uiso   1.00
H244   H     0.87787   0.64347   0.30409   0.00000  Uiso   1.00
H245   H     0.62213   0.35653   0.02924   0.00000  Uiso   1.00
H246   H     0.51475   0.66219   0.11988   0.00000  Uiso   1.00
H247   H     0.51465   0.33957   0.04916   0.00000  Uiso   1.00
H248   H     0.98535   0.66042   0.28418   0.00000  Uiso   1.00
N249   N     0.73745   0.48547   0.01284   0.00000  Uiso   1.00
N250   N     0.76256   0.51453   0.32049   0.00000  Uiso   1.00
N251   N     0.52745   0.35436   0.09465   0.00000  Uiso   1.00
N252   N     0.97255   0.64564   0.23868   0.00000  Uiso   1.00
O253   O     0.75326   0.42871   0.20659   0.00000  Uiso   1.00
O254   O     0.89417   0.61131   0.28837   0.00000  Uiso   1.00
O255   O     0.63305   0.38165   0.13932   0.00000  Uiso   1.00
O256   O     0.60583   0.38869   0.04496   0.00000  Uiso   1.00
O257   O     0.67604   0.62059   0.10211   0.00000  Uiso   1.00
O258   O     0.71253   0.65438   0.03330   0.00000  Uiso   1.00
O259   O     0.82396   0.37941   0.23122   0.00000  Uiso   1.00
O260   O     0.78747   0.34562   0.30004   0.00000  Uiso   1.00
O261   O     0.66234   0.48648   0.32215   0.00000  Uiso   1.00
O262   O     0.69147   0.40987   0.28211   0.00000  Uiso   1.00
O263   O     0.83766   0.51352   0.01119   0.00000  Uiso   1.00
O264   O     0.74675   0.57129   0.12674   0.00000  Uiso   1.00
O265   O     0.80853   0.59013   0.05122   0.00000  Uiso   1.00
O266   O     0.74480   0.41892   0.10279   0.00000  Uiso   1.00
O267   O     0.75520   0.58108   0.23055   0.00000  Uiso   1.00
O268   O     0.68936   0.50488   0.21857   0.00000  Uiso   1.00
O269   O     0.81065   0.49512   0.11476   0.00000  Uiso   1.00
O270   O     0.68090   0.49510   0.11477   0.00000  Uiso   1.00
O271   O     0.81910   0.50490   0.21857   0.00000  Uiso   1.00
O272   O     0.86695   0.61835   0.19401   0.00000  Uiso   1.00
C273   C     0.24804   0.73339   0.15116   0.00000  Uiso   1.00
C274   C     0.08888   0.78470   0.13959   0.00000  Uiso   1.00
C275   C     0.38357   0.83581   0.16500   0.00000  Uiso   1.00
C276   C     0.11643   0.83085   0.16833   0.00000  Uiso   1.00
C277   C     0.40170   0.79013   0.13744   0.00000  Uiso   1.00
C278   C     0.09830   0.87654   0.19589   0.00000  Uiso   1.00
C279   C     0.44789   0.78871   0.13922   0.00000  Uiso   1.00
C280   C     0.05211   0.87796   0.19411   0.00000  Uiso   1.00
C281   C     0.47658   0.83447   0.16648   0.00000  Uiso   1.00
C282   C     0.02342   0.83219   0.16685   0.00000  Uiso   1.00
C283   C     0.45844   0.88234   0.19309   0.00000  Uiso   1.00
C284   C     0.25196   0.93328   0.18217   0.00000  Uiso   1.00
C285   C     0.04156   0.78432   0.14024   0.00000  Uiso   1.00
C286   C     0.46542   0.74144   0.11497   0.00000  Uiso   1.00
C287   C     0.03458   0.92523   0.21837   0.00000  Uiso   1.00
C288   C     0.38938   0.92834   0.22458   0.00000  Uiso   1.00
C289   C     0.11062   0.73833   0.10875   0.00000  Uiso   1.00
C290   C     0.20786   0.98186   0.09254   0.00000  Uiso   1.00
C291   C     0.29214   0.68481   0.24080   0.00000  Uiso   1.00
C292   C     0.19559   0.79557   0.31515   0.00000  Uiso   1.00
C293   C     0.30441   0.87110   0.01818   0.00000  Uiso   1.00
C294   C     0.01165   0.73830   0.11619   0.00000  Uiso   1.00
C295   C     0.48835   0.92837   0.21714   0.00000  Uiso   1.00
C296   C     0.24111   0.67750   0.14428   0.00000  Uiso   1.00
C297   C     0.25889   0.98917   0.18905   0.00000  Uiso   1.00
C298   C     0.16471   0.83297   0.16727   0.00000  Uiso   1.00
C299   C     0.33529   0.83369   0.16607   0.00000  Uiso   1.00
C300   C     0.41112   0.88197   0.19374   0.00000  Uiso   1.00
Cu301  Cu    0.25501   0.83913   0.22813   0.00000  Uiso   1.00
Cu302  Cu    0.24500   0.82754   0.10521   0.00000  Uiso   1.00
H303   H     0.37955   0.75495   0.11643   0.00000  Uiso   1.00
H304   H     0.48525   0.67115   0.21345   0.00000  Uiso   1.00
H305   H     0.18824   0.96591   0.00218   0.00000  Uiso   1.00
H306   H     0.31176   0.70075   0.33116   0.00000  Uiso   1.00
H307   H     0.15952   0.73029   0.26420   0.00000  Uiso   1.00
H308   H     0.34048   0.93638   0.06913   0.00000  Uiso   1.00
H309   H     0.12045   0.91171   0.21690   0.00000  Uiso   1.00
H310   H     0.44304   0.70614   0.09569   0.00000  Uiso   1.00
H311   H     0.05696   0.96053   0.23764   0.00000  Uiso   1.00
H312   H     0.37787   0.97681   0.30409   0.00000  Uiso   1.00
H313   H     0.12213   0.68986   0.02924   0.00000  Uiso   1.00
H314   H     0.01475   0.99552   0.11988   0.00000  Uiso   1.00
H315   H     0.01465   0.67291   0.04916   0.00000  Uiso   1.00
H316   H     0.48535   0.99376   0.28418   0.00000  Uiso   1.00
N317   N     0.23745   0.81881   0.01284   0.00000  Uiso   1.00
N318   N     0.26256   0.84786   0.32049   0.00000  Uiso   1.00
N319   N     0.02745   0.68769   0.09465   0.00000  Uiso   1.00
N320   N     0.47255   0.97897   0.23868   0.00000  Uiso   1.00
O321   O     0.25326   0.76204   0.20659   0.00000  Uiso   1.00
O322   O     0.39417   0.94464   0.28837   0.00000  Uiso   1.00
O323   O     0.13305   0.71499   0.13932   0.00000  Uiso   1.00
O324   O     0.10583   0.72203   0.04496   0.00000  Uiso   1.00
O325   O     0.17604   0.95392   0.10211   0.00000  Uiso   1.00
O326   O     0.21253   0.98772   0.03330   0.00000  Uiso   1.00
O327   O     0.32396   0.71274   0.23122   0.00000  Uiso   1.00
O328   O     0.28747   0.67895   0.30004   0.00000  Uiso   1.00
O329   O     0.16234   0.81981   0.32215   0.00000  Uiso   1.00
O330   O     0.19147   0.74320   0.28211   0.00000  Uiso   1.00
O331   O     0.33766   0.84685   0.01119   0.00000  Uiso   1.00
O332   O     0.24675   0.90462   0.12674   0.00000  Uiso   1.00
O333   O     0.30853   0.92346   0.05122   0.00000  Uiso   1.00
O334   O     0.24480   0.75226   0.10279   0.00000  Uiso   1.00
O335   O     0.25520   0.91441   0.23055   0.00000  Uiso   1.00
O336   O     0.18936   0.83821   0.21857   0.00000  Uiso   1.00
O337   O     0.31065   0.82845   0.11476   0.00000  Uiso   1.00
O338   O     0.18090   0.82843   0.11477   0.00000  Uiso   1.00
O339   O     0.31910   0.83824   0.21857   0.00000  Uiso   1.00
O340   O     0.36695   0.95168   0.19401   0.00000  Uiso   1.00
C341   C     0.74804   0.73339   0.15116   0.00000  Uiso   1.00
C342   C     0.58888   0.78470   0.13959   0.00000  Uiso   1.00
C343   C     0.88357   0.83581   0.16500   0.00000  Uiso   1.00
C344   C     0.61643   0.83085   0.16833   0.00000  Uiso   1.00
C345   C     0.90170   0.79013   0.13744   0.00000  Uiso   1.00
C346   C     0.59830   0.87654   0.19589   0.00000  Uiso   1.00
C347   C     0.94789   0.78871   0.13922   0.00000  Uiso   1.00
C348   C     0.55211   0.87796   0.19411   0.00000  Uiso   1.00
C349   C     0.97658   0.83447   0.16648   0.00000  Uiso   1.00
C350   C     0.52342   0.83219   0.16685   0.00000  Uiso   1.00
C351   C     0.95844   0.88234   0.19309   0.00000  Uiso   1.00
C352   C     0.75196   0.93328   0.18217   0.00000  Uiso   1.00
C353   C     0.54156   0.78432   0.14024   0.00000  Uiso   1.00
C354   C     0.96542   0.74144   0.11497   0.00000  Uiso   1.00
C355   C     0.53458   0.92523   0.21837   0.00000  Uiso   1.00
C356   C     0.88938   0.92834   0.22458   0.00000  Uiso   1.00
C357   C     0.61062   0.73833   0.10875   0.00000  Uiso   1.00
C358   C     0.70786   0.98186   0.09254   0.00000  Uiso   1.00
C359   C     0.79214   0.68481   0.24080   0.00000  Uiso   1.00
C360   C     0.69559   0.79557   0.31515   0.00000  Uiso   1.00
C361   C     0.80441   0.87110   0.01818   0.00000  Uiso   1.00
C362   C     0.51165   0.73830   0.11619   0.00000  Uiso   1.00
C363   C     0.98835   0.92837   0.21714   0.00000  Uiso   1.00
C364   C     0.74111   0.67750   0.14428   0.00000  Uiso   1.00
C365   C     0.75889   0.98917   0.18905   0.00000  Uiso   1.00
C366   C     0.66471   0.83297   0.16727   0.00000  Uiso   1.00
C367   C     0.83529   0.83369   0.16607   0.00000  Uiso   1.00
C368   C     0.91112   0.88197   0.19374   0.00000  Uiso   1.00
Cu369  Cu    0.75501   0.83913   0.22813   0.00000  Uiso   1.00
Cu370  Cu    0.74500   0.82754   0.10521   0.00000  Uiso   1.00
H371   H     0.87955   0.75495   0.11643   0.00000  Uiso   1.00
H372   H     0.98525   0.67115   0.21345   0.00000  Uiso   1.00
H373   H     0.68824   0.96591   0.00218   0.00000  Uiso   1.00
H374   H     0.81176   0.70075   0.33116   0.00000  Uiso   1.00
H375   H     0.65952   0.73029   0.26420   0.00000  Uiso   1.00
H376   H     0.84048   0.93638   0.06913   0.00000  Uiso   1.00
H377   H     0.62045   0.91171   0.21690   0.00000  Uiso   1.00
H378   H     0.94304   0.70614   0.09569   0.00000  Uiso   1.00
H379   H     0.55696   0.96053   0.23764   0.00000  Uiso   1.00
H380   H     0.87787   0.97681   0.30409   0.00000  Uiso   1.00
H381   H     0.62213   0.68986   0.02924   0.00000  Uiso   1.00
H382   H     0.51475   0.99552   0.11988   0.00000  Uiso   1.00
H383   H     0.51465   0.67291   0.04916   0.00000  Uiso   1.00
H384   H     0.98535   0.99376   0.28418   0.00000  Uiso   1.00
N385   N     0.73745   0.81881   0.01284   0.00000  Uiso   1.00
N386   N     0.76256   0.84786   0.32049   0.00000  Uiso   1.00
N387   N     0.52745   0.68769   0.09465   0.00000  Uiso   1.00
N388   N     0.97255   0.97897   0.23868   0.00000  Uiso   1.00
O389   O     0.75326   0.76204   0.20659   0.00000  Uiso   1.00
O390   O     0.89417   0.94464   0.28837   0.00000  Uiso   1.00
O391   O     0.63305   0.71499   0.13932   0.00000  Uiso   1.00
O392   O     0.60583   0.72203   0.04496   0.00000  Uiso   1.00
O393   O     0.67604   0.95392   0.10211   0.00000  Uiso   1.00
O394   O     0.71253   0.98772   0.03330   0.00000  Uiso   1.00
O395   O     0.82396   0.71274   0.23122   0.00000  Uiso   1.00
O396   O     0.78747   0.67895   0.30004   0.00000  Uiso   1.00
O397   O     0.66234   0.81981   0.32215   0.00000  Uiso   1.00
O398   O     0.69147   0.74320   0.28211   0.00000  Uiso   1.00
O399   O     0.83766   0.84685   0.01119   0.00000  Uiso   1.00
O400   O     0.74675   0.90462   0.12674   0.00000  Uiso   1.00
O401   O     0.80853   0.92346   0.05122   0.00000  Uiso   1.00
O402   O     0.74480   0.75226   0.10279   0.00000  Uiso   1.00
O403   O     0.75520   0.91441   0.23055   0.00000  Uiso   1.00
O404   O     0.68936   0.83821   0.21857   0.00000  Uiso   1.00
O405   O     0.81065   0.82845   0.11476   0.00000  Uiso   1.00
O406   O     0.68090   0.82843   0.11477   0.00000  Uiso   1.00
O407   O     0.81910   0.83824   0.21857   0.00000  Uiso   1.00
O408   O     0.86695   0.95168   0.19401   0.00000  Uiso   1.00
C409   C     0.24804   0.06672   0.48449   0.00000  Uiso   1.00
C410   C     0.08888   0.11803   0.47293   0.00000  Uiso   1.00
C411   C     0.38357   0.16915   0.49834   0.00000  Uiso   1.00
C412   C     0.11643   0.16419   0.50166   0.00000  Uiso   1.00
C413   C     0.40170   0.12346   0.47078   0.00000  Uiso   1.00
C414   C     0.09830   0.20987   0.52922   0.00000  Uiso   1.00
C415   C     0.44789   0.12204   0.47256   0.00000  Uiso   1.00
C416   C     0.05211   0.21129   0.52744   0.00000  Uiso   1.00
C417   C     0.47658   0.16781   0.49982   0.00000  Uiso   1.00
C418   C     0.02342   0.16552   0.50018   0.00000  Uiso   1.00
C419   C     0.45844   0.21568   0.52642   0.00000  Uiso   1.00
C420   C     0.25196   0.26661   0.51551   0.00000  Uiso   1.00
C421   C     0.04156   0.11766   0.47358   0.00000  Uiso   1.00
C422   C     0.46542   0.07477   0.44830   0.00000  Uiso   1.00
C423   C     0.03458   0.25856   0.55170   0.00000  Uiso   1.00
C424   C     0.38938   0.26167   0.55791   0.00000  Uiso   1.00
C425   C     0.11062   0.07166   0.44208   0.00000  Uiso   1.00
C426   C     0.20786   0.31519   0.42587   0.00000  Uiso   1.00
C427   C     0.29214   0.01814   0.57413   0.00000  Uiso   1.00
C428   C     0.19559   0.12890   0.64848   0.00000  Uiso   1.00
C429   C     0.30441   0.20443   0.35152   0.00000  Uiso   1.00
C430   C     0.01165   0.07163   0.44952   0.00000  Uiso   1.00
C431   C     0.48835   0.26170   0.55048   0.00000  Uiso   1.00
C432   C     0.24111   0.01083   0.47761   0.00000  Uiso   1.00
C433   C     0.25889   0.32250   0.52239   0.00000  Uiso   1.00
C434   C     0.16471   0.16631   0.50060   0.00000  Uiso   1.00
C435   C     0.33529   0.16703   0.49940   0.00000  Uiso   1.00
C436   C     0.41112   0.21530   0.52707   0.00000  Uiso   1.00
Cu437  Cu    0.25501   0.17246   0.56146   0.00000  Uiso   1.00
Cu438  Cu    0.24500   0.16087   0.43854   0.00000  Uiso   1.00
H439   H     0.37955   0.08829   0.44977   0.00000  Uiso   1.00
H440   H     0.48525   0.00448   0.54678   0.00000  Uiso   1.00
H441   H     0.18824   0.29925   0.33551   0.00000  Uiso   1.00
H442   H     0.31176   0.03408   0.66449   0.00000  Uiso   1.00
H443   H     0.15952   0.06362   0.59754   0.00000  Uiso   1.00
H444   H     0.34048   0.26971   0.40246   0.00000  Uiso   1.00
H445   H     0.12045   0.24505   0.55023   0.00000  Uiso   1.00
H446   H     0.44304   0.03947   0.42903   0.00000  Uiso   1.00
H447   H     0.05696   0.29386   0.57097   0.00000  Uiso   1.00
H448   H     0.37787   0.31014   0.63743   0.00000  Uiso   1.00
H449   H     0.12213   0.02319   0.36257   0.00000  Uiso   1.00
H450   H     0.01475   0.32885   0.45322   0.00000  Uiso   1.00
H451   H     0.01465   0.00624   0.38249   0.00000  Uiso   1.00
H452   H     0.48535   0.32709   0.61751   0.00000  Uiso   1.00
N453   N     0.23745   0.15214   0.34617   0.00000  Uiso   1.00
N454   N     0.26256   0.18119   0.65383   0.00000  Uiso   1.00
N455   N     0.02745   0.02103   0.42798   0.00000  Uiso   1.00
N456   N     0.47255   0.31231   0.57202   0.00000  Uiso   1.00
O457   O     0.25326   0.09538   0.53992   0.00000  Uiso   1.00
O458   O     0.39417   0.27797   0.62170   0.00000  Uiso   1.00
O459   O     0.13305   0.04832   0.47266   0.00000  Uiso   1.00
O460   O     0.10583   0.05536   0.37830   0.00000  Uiso   1.00
O461   O     0.17604   0.28726   0.43544   0.00000  Uiso   1.00
O462   O     0.21253   0.32105   0.36663   0.00000  Uiso   1.00
O463   O     0.32396   0.04608   0.56455   0.00000  Uiso   1.00
O464   O     0.28747   0.01228   0.63337   0.00000  Uiso   1.00
O465   O     0.16234   0.15315   0.65548   0.00000  Uiso   1.00
O466   O     0.19147   0.07654   0.61544   0.00000  Uiso   1.00
O467   O     0.33766   0.18019   0.34452   0.00000  Uiso   1.00
O468   O     0.24675   0.23796   0.46008   0.00000  Uiso   1.00
O469   O     0.30853   0.25680   0.38456   0.00000  Uiso   1.00
O470   O     0.24480   0.08559   0.43612   0.00000  Uiso   1.00
O471   O     0.25520   0.24774   0.56388   0.00000  Uiso   1.00
O472   O     0.18936   0.17155   0.55191   0.00000  Uiso   1.00
O473   O     0.31065   0.16179   0.44809   0.00000  Uiso   1.00
O474   O     0.18090   0.16176   0.44810   0.00000  Uiso   1.00
O475   O     0.31910   0.17157   0.55190   0.00000  Uiso   1.00
O476   O     0.36695   0.28501   0.52734   0.00000  Uiso   1.00
C477   C     0.74804   0.06672   0.48449   0.00000  Uiso   1.00
C478   C     0.58888   0.11803   0.47293   0.00000  Uiso   1.00
C479   C     0.88357   0.16915   0.49834   0.00000  Uiso   1.00
C480   C     0.61643   0.16419   0.50166   0.00000  Uiso   1.00
C481   C     0.90170   0.12346   0.47078   0.00000  Uiso   1.00
C482   C     0.59830   0.20987   0.52922   0.00000  Uiso   1.00
C483   C     0.94789   0.12204   0.47256   0.00000  Uiso   1.00
C484   C     0.55211   0.21129   0.52744   0.00000  Uiso   1.00
C485   C     0.97658   0.16781   0.49982   0.00000  Uiso   1.00
C486   C     0.52342   0.16552   0.50018   0.00000  Uiso   1.00
C487   C     0.95844   0.21568   0.52642   0.00000  Uiso   1.00
C488   C     0.75196   0.26661   0.51551   0.00000  Uiso   1.00
C489   C     0.54156   0.11766   0.47358   0.00000  Uiso   1.00
C490   C     0.96542   0.07477   0.44830   0.00000  Uiso   1.00
C491   C     0.53458   0.25856   0.55170   0.00000  Uiso   1.00
C492   C     0.88938   0.26167   0.55791   0.00000  Uiso   1.00
C493   C     0.61062   0.07166   0.44208   0.00000  Uiso   1.00
C494   C     0.70786   0.31519   0.42587   0.00000  Uiso   1.00
C495   C     0.79214   0.01814   0.57413   0.00000  Uiso   1.00
C496   C     0.69559   0.12890   0.64848   0.00000  Uiso   1.00
C497   C     0.80441   0.20443   0.35152   0.00000  Uiso   1.00
C498   C     0.51165   0.07163   0.44952   0.00000  Uiso   1.00
C499   C     0.98835   0.26170   0.55048   0.00000  Uiso   1.00
C500   C     0.74111   0.01083   0.47761   0.00000  Uiso   1.00
C501   C     0.75889   0.32250   0.52239   0.00000  Uiso   1.00
C502   C     0.66471   0.16631   0.50060   0.00000  Uiso   1.00
C503   C     0.83529   0.16703   0.49940   0.00000  Uiso   1.00
C504   C     0.91112   0.21530   0.52707   0.00000  Uiso   1.00
Cu505  Cu    0.75501   0.17246   0.56146   0.00000  Uiso   1.00
Cu506  Cu    0.74500   0.16087   0.43854   0.00000  Uiso   1.00
H507   H     0.87955   0.08829   0.44977   0.00000  Uiso   1.00
H508   H     0.98525   0.00448   0.54678   0.00000  Uiso   1.00
H509   H     0.68824   0.29925   0.33551   0.00000  Uiso   1.00
H510   H     0.81176   0.03408   0.66449   0.00000  Uiso   1.00
H511   H     0.65952   0.06362   0.59754   0.00000  Uiso   1.00
H512   H     0.84048   0.26971   0.40246   0.00000  Uiso   1.00
H513   H     0.62045   0.24505   0.55023   0.00000  Uiso   1.00
H514   H     0.94304   0.03947   0.42903   0.00000  Uiso   1.00
H515   H     0.55696   0.29386   0.57097   0.00000  Uiso   1.00
H516   H     0.87787   0.31014   0.63743   0.00000  Uiso   1.00
H517   H     0.62213   0.02319   0.36257   0.00000  Uiso   1.00
H518   H     0.51475   0.32885   0.45322   0.00000  Uiso   1.00
H519   H     0.51465   0.00624   0.38249   0.00000  Uiso   1.00
H520   H     0.98535   0.32709   0.61751   0.00000  Uiso   1.00
N521   N     0.73745   0.15214   0.34617   0.00000  Uiso   1.00
N522   N     0.76256   0.18119   0.65383   0.00000  Uiso   1.00
N523   N     0.52745   0.02103   0.42798   0.00000  Uiso   1.00
N524   N     0.97255   0.31231   0.57202   0.00000  Uiso   1.00
O525   O     0.75326   0.09538   0.53992   0.00000  Uiso   1.00
O526   O     0.89417   0.27797   0.62170   0.00000  Uiso   1.00
O527   O     0.63305   0.04832   0.47266   0.00000  Uiso   1.00
O528   O     0.60583   0.05536   0.37830   0.00000  Uiso   1.00
O529   O     0.67604   0.28726   0.43544   0.00000  Uiso   1.00
O530   O     0.71253   0.32105   0.36663   0.00000  Uiso   1.00
O531   O     0.82396   0.04608   0.56455   0.00000  Uiso   1.00
O532   O     0.78747   0.01228   0.63337   0.00000  Uiso   1.00
O533   O     0.66234   0.15315   0.65548   0.00000  Uiso   1.00
O534   O     0.69147   0.07654   0.61544   0.00000  Uiso   1.00
O535   O     0.83766   0.18019   0.34452   0.00000  Uiso   1.00
O536   O     0.74675   0.23796   0.46008   0.00000  Uiso   1.00
O537   O     0.80853   0.25680   0.38456   0.00000  Uiso   1.00
O538   O     0.74480   0.08559   0.43612   0.00000  Uiso   1.00
O539   O     0.75520   0.24774   0.56388   0.00000  Uiso   1.00
O540   O     0.68936   0.17155   0.55191   0.00000  Uiso   1.00
O541   O     0.81065   0.16179   0.44809   0.00000  Uiso   1.00
O542   O     0.68090   0.16176   0.44810   0.00000  Uiso   1.00
O543   O     0.81910   0.17157   0.55190   0.00000  Uiso   1.00
O544   O     0.86695   0.28501   0.52734   0.00000  Uiso   1.00
C545   C     0.24804   0.40006   0.48449   0.00000  Uiso   1.00
C546   C     0.08888   0.45136   0.47293   0.00000  Uiso   1.00
C547   C     0.38357   0.50248   0.49834   0.00000  Uiso   1.00
C548   C     0.11643   0.49752   0.50166   0.00000  Uiso   1.00
C549   C     0.40170   0.45679   0.47078   0.00000  Uiso   1.00
C550   C     0.09830   0.54321   0.52922   0.00000  Uiso   1.00
C551   C     0.44789   0.45537   0.47256   0.00000  Uiso   1.00
C552   C     0.05211   0.54463   0.52744   0.00000  Uiso   1.00
C553   C     0.47658   0.50114   0.49982   0.00000  Uiso   1.00
C554   C     0.02342   0.49886   0.50018   0.00000  Uiso   1.00
C555   C     0.45844   0.54901   0.52642   0.00000  Uiso   1.00
C556   C     0.25196   0.59994   0.51551   0.00000  Uiso   1.00
C557   C     0.04156   0.45099   0.47358   0.00000  Uiso   1.00
C558   C     0.46542   0.40811   0.44830   0.00000  Uiso   1.00
C559   C     0.03458   0.59189   0.55170   0.00000  Uiso   1.00
C560   C     0.38938   0.59501   0.55791   0.00000  Uiso   1.00
C561   C     0.11062   0.40499   0.44208   0.00000  Uiso   1.00
C562   C     0.20786   0.64853   0.42587   0.00000  Uiso   1.00
C563   C     0.29214   0.35147   0.57413   0.00000  Uiso   1.00
C564   C     0.19559   0.46223   0.64848   0.00000  Uiso   1.00
C565   C     0.30441   0.53777   0.35152   0.00000  Uiso   1.00
C566   C     0.01165   0.40497   0.44952   0.00000  Uiso   1.00
C567   C     0.48835   0.59503   0.55048   0.00000  Uiso   1.00
C568   C     0.24111   0.34416   0.47761   0.00000  Uiso   1.00
C569   C     0.25889   0.65584   0.52239   0.00000  Uiso   1.00
C570   C     0.16471   0.49964   0.50060   0.00000  Uiso   1.00
C571   C     0.33529   0.50036   0.49940   0.00000  Uiso   1.00
C572   C     0.41112   0.54864   0.52707   0.00000  Uiso   1.00
Cu573  Cu    0.25501   0.50579   0.56146   0.00000  Uiso   1.00
Cu574  Cu    0.24500   0.49421   0.43854   0.00000  Uiso   1.00
H575   H     0.37955   0.42162   0.44977   0.00000  Uiso   1.00
H576   H     0.48525   0.33781   0.54678   0.00000  Uiso   1.00
H577   H     0.18824   0.63258   0.33551   0.00000  Uiso   1.00
H578   H     0.31176   0.36742   0.66449   0.00000  Uiso   1.00
H579   H     0.15952   0.39695   0.59754   0.00000  Uiso   1.00
H580   H     0.34048   0.60305   0.40246   0.00000  Uiso   1.00
H581   H     0.12045   0.57838   0.55023   0.00000  Uiso   1.00
H582   H     0.44304   0.37280   0.42903   0.00000  Uiso   1.00
H583   H     0.05696   0.62720   0.57097   0.00000  Uiso   1.00
H584   H     0.37787   0.64347   0.63743   0.00000  Uiso   1.00
H585   H     0.12213   0.35653   0.36257   0.00000  Uiso   1.00
H586   H     0.01475   0.66219   0.45322   0.00000  Uiso   1.00
H587   H     0.01465   0.33957   0.38249   0.00000  Uiso   1.00
H588   H     0.48535   0.66042   0.61751   0.00000  Uiso   1.00
N589   N     0.23745   0.48547   0.34617   0.00000  Uiso   1.00
N590   N     0.26256   0.51453   0.65383   0.00000  Uiso   1.00
N591   N     0.02745   0.35436   0.42798   0.00000  Uiso   1.00
N592   N     0.47255   0.64564   0.57202   0.00000  Uiso   1.00
O593   O     0.25326   0.42871   0.53992   0.00000  Uiso   1.00
O594   O     0.39417   0.61131   0.62170   0.00000  Uiso   1.00
O595   O     0.13305   0.38165   0.47266   0.00000  Uiso   1.00
O596   O     0.10583   0.38869   0.37830   0.00000  Uiso   1.00
O597   O     0.17604   0.62059   0.43544   0.00000  Uiso   1.00
O598   O     0.21253   0.65438   0.36663   0.00000  Uiso   1.00
O599   O     0.32396   0.37941   0.56455   0.00000  Uiso   1.00
O600   O     0.28747   0.34562   0.63337   0.00000  Uiso   1.00
O601   O     0.16234   0.48648   0.65548   0.00000  Uiso   1.00
O602   O     0.19147   0.40987   0.61544   0.00000  Uiso   1.00
O603   O     0.33766   0.51352   0.34452   0.00000  Uiso   1.00
O604   O     0.24675   0.57129   0.46008   0.00000  Uiso   1.00
O605   O     0.30853   0.59013   0.38456   0.00000  Uiso   1.00
O606   O     0.24480   0.41892   0.43612   0.00000  Uiso   1.00
O607   O     0.25520   0.58108   0.56388   0.00000  Uiso   1.00
O608   O     0.18936   0.50488   0.55191   0.00000  Uiso   1.00
O609   O     0.31065   0.49512   0.44809   0.00000  Uiso   1.00
O610   O     0.18090   0.49510   0.44810   0.00000  Uiso   1.00
O611   O     0.31910   0.50490   0.55190   0.00000  Uiso   1.00
O612   O     0.36695   0.61835   0.52734   0.00000  Uiso   1.00
C613   C     0.74804   0.40006   0.48449   0.00000  Uiso   1.00
C614   C     0.58888   0.45136   0.47293   0.00000  Uiso   1.00
C615   C     0.88357   0.50248   0.49834   0.00000  Uiso   1.00
C616   C     0.61643   0.49752   0.50166   0.00000  Uiso   1.00
C617   C     0.90170   0.45679   0.47078   0.00000  Uiso   1.00
C618   C     0.59830   0.54321   0.52922   0.00000  Uiso   1.00
C619   C     0.94789   0.45537   0.47256   0.00000  Uiso   1.00
C620   C     0.55211   0.54463   0.52744   0.00000  Uiso   1.00
C621   C     0.97658   0.50114   0.49982   0.00000  Uiso   1.00
C622   C     0.52342   0.49886   0.50018   0.00000  Uiso   1.00
C623   C     0.95844   0.54901   0.52642   0.00000  Uiso   1.00
C624   C     0.75196   0.59994   0.51551   0.00000  Uiso   1.00
C625   C     0.54156   0.45099   0.47358   0.00000  Uiso   1.00
C626   C     0.96542   0.40811   0.44830   0.00000  Uiso   1.00
C627   C     0.53458   0.59189   0.55170   0.00000  Uiso   1.00
C628   C     0.88938   0.59501   0.55791   0.00000  Uiso   1.00
C629   C     0.61062   0.40499   0.44208   0.00000  Uiso   1.00
C630   C     0.70786   0.64853   0.42587   0.00000  Uiso   1.00
C631   C     0.79214   0.35147   0.57413   0.00000  Uiso   1.00
C632   C     0.69559   0.46223   0.64848   0.00000  Uiso   1.00
C633   C     0.80441   0.53777   0.35152   0.00000  Uiso   1.00
C634   C     0.51165   0.40497   0.44952   0.00000  Uiso   1.00
C635   C     0.98835   0.59503   0.55048   0.00000  Uiso   1.00
C636   C     0.74111   0.34416   0.47761   0.00000  Uiso   1.00
C637   C     0.75889   0.65584   0.52239   0.00000  Uiso   1.00
C638   C     0.66471   0.49964   0.50060   0.00000  Uiso   1.00
C639   C     0.83529   0.50036   0.49940   0.00000  Uiso   1.00
C640   C     0.91112   0.54864   0.52707   0.00000  Uiso   1.00
Cu641  Cu    0.75501   0.50579   0.56146   0.00000  Uiso   1.00
Cu642  Cu    0.74500   0.49421   0.43854   0.00000  Uiso   1.00
H643   H     0.87955   0.42162   0.44977   0.00000  Uiso   1.00
H644   H     0.98525   0.33781   0.54678   0.00000  Uiso   1.00
H645   H     0.68824   0.63258   0.33551   0.00000  Uiso   1.00
H646   H     0.81176   0.36742   0.66449   0.00000  Uiso   1.00
H647   H     0.65952   0.39695   0.59754   0.00000  Uiso   1.00
H648   H     0.84048   0.60305   0.40246   0.00000  Uiso   1.00
H649   H     0.62045   0.57838   0.55023   0.00000  Uiso   1.00
H650   H     0.94304   0.37280   0.42903   0.00000  Uiso   1.00
H651   H     0.55696   0.62720   0.57097   0.00000  Uiso   1.00
H652   H     0.87787   0.64347   0.63743   0.00000  Uiso   1.00
H653   H     0.62213   0.35653   0.36257   0.00000  Uiso   1.00
H654   H     0.51475   0.66219   0.45322   0.00000  Uiso   1.00
H655   H     0.51465   0.33957   0.38249   0.00000  Uiso   1.00
H656   H     0.98535   0.66042   0.61751   0.00000  Uiso   1.00
N657   N     0.73745   0.48547   0.34617   0.00000  Uiso   1.00
N658   N     0.76256   0.51453   0.65383   0.00000  Uiso   1.00
N659   N     0.52745   0.35436   0.42798   0.00000  Uiso   1.00
N660   N     0.97255   0.64564   0.57202   0.00000  Uiso   1.00
O661   O     0.75326   0.42871   0.53992   0.00000  Uiso   1.00
O662   O     0.89417   0.61131   0.62170   0.00000  Uiso   1.00
O663   O     0.63305   0.38165   0.47266   0.00000  Uiso   1.00
O664   O     0.60583   0.38869   0.37830   0.00000  Uiso   1.00
O665   O     0.67604   0.62059   0.43544   0.00000  Uiso   1.00
O666   O     0.71253   0.65438   0.36663   0.00000  Uiso   1.00
O667   O     0.82396   0.37941   0.56455   0.00000  Uiso   1.00
O668   O     0.78747   0.34562   0.63337   0.00000  Uiso   1.00
O669   O     0.66234   0.48648   0.65548   0.00000  Uiso   1.00
O670   O     0.69147   0.40987   0.61544   0.00000  Uiso   1.00
O671   O     0.83766   0.51352   0.34452   0.00000  Uiso   1.00
O672   O     0.74675   0.57129   0.46008   0.00000  Uiso   1.00
O673   O     0.80853   0.59013   0.38456   0.00000  Uiso   1.00
O674   O     0.74480   0.41892   0.43612   0.00000  Uiso   1.00
O675   O     0.75520   0.58108   0.56388   0.00000  Uiso   1.00
O676   O     0.68936   0.50488   0.55191   0.00000  Uiso   1.00
O677   O     0.81065   0.49512   0.44809   0.00000  Uiso   1.00
O678   O     0.68090   0.49510   0.44810   0.00000  Uiso   1.00
O679   O     0.81910   0.50490   0.55190   0.00000  Uiso   1.00
O680   O     0.86695   0.61835   0.52734   0.00000  Uiso   1.00
C681   C     0.24804   0.73339   0.48449   0.00000  Uiso   1.00
C682   C     0.08888   0.78470   0.47293   0.00000  Uiso   1.00
C683   C     0.38357   0.83581   0.49834   0.00000  Uiso   1.00
C684   C     0.11643   0.83085   0.50166   0.00000  Uiso   1.00
C685   C     0.40170   0.79013   0.47078   0.00000  Uiso   1.00
C686   C     0.09830   0.87654   0.52922   0.00000  Uiso   1.00
C687   C     0.44789   0.78871   0.47256   0.00000  Uiso   1.00
C688   C     0.05211   0.87796   0.52744   0.00000  Uiso   1.00
C689   C     0.47658   0.83447   0.49982   0.00000  Uiso   1.00
C690   C     0.02342   0.83219   0.50018   0.00000  Uiso   1.00
C691   C     0.45844   0.88234   0.52642   0.00000  Uiso   1.00
C692   C     0.25196   0.93328   0.51551   0.00000  Uiso   1.00
C693   C     0.04156   0.78432   0.47358   0.00000  Uiso   1.00
C694   C     0.46542   0.74144   0.44830   0.00000  Uiso   1.00
C695   C     0.03458   0.92523   0.55170   0.00000  Uiso   1.00
C696   C     0.38938   0.92834   0.55791   0.00000  Uiso   1.00
C697   C     0.11062   0.73833   0.44208   0.00000  Uiso   1.00
C698   C     0.20786   0.98186   0.42587   0.00000  Uiso   1.00
C699   C     0.29214   0.68481   0.57413   0.00000  Uiso   1.00
C700   C     0.19559   0.79557   0.64848   0.00000  Uiso   1.00
C701   C     0.30441   0.87110   0.35152   0.00000  Uiso   1.00
C702   C     0.01165   0.73830   0.44952   0.00000  Uiso   1.00
C703   C     0.48835   0.92837   0.55048   0.00000  Uiso   1.00
C704   C     0.24111   0.67750   0.47761   0.00000  Uiso   1.00
C705   C     0.25889   0.98917   0.52239   0.00000  Uiso   1.00
C706   C     0.16471   0.83297   0.50060   0.00000  Uiso   1.00
C707   C     0.33529   0.83369   0.49940   0.00000  Uiso   1.00
C708   C     0.41112   0.88197   0.52707   0.00000  Uiso   1.00
Cu709  Cu    0.25501   0.83913   0.56146   0.00000  Uiso   1.00
Cu710  Cu    0.24500   0.82754   0.43854   0.00000  Uiso   1.00
H711   H     0.37955   0.75495   0.44977   0.00000  Uiso   1.00
H712   H     0.48525   0.67115   0.54678   0.00000  Uiso   1.00
H713   H     0.18824   0.96591   0.33551   0.00000  Uiso   1.00
H714   H     0.31176   0.70075   0.66449   0.00000  Uiso   1.00
H715   H     0.15952   0.73029   0.59754   0.00000  Uiso   1.00
H716   H     0.34048   0.93638   0.40246   0.00000  Uiso   1.00
H717   H     0.12045   0.91171   0.55023   0.00000  Uiso   1.00
H718   H     0.44304   0.70614   0.42903   0.00000  Uiso   1.00
H719   H     0.05696   0.96053   0.57097   0.00000  Uiso   1.00
H720   H     0.37787   0.97681   0.63743   0.00000  Uiso   1.00
H721   H     0.12213   0.68986   0.36257   0.00000  Uiso   1.00
H722   H     0.01475   0.99552   0.45322   0.00000  Uiso   1.00
H723   H     0.01465   0.67291   0.38249   0.00000  Uiso   1.00
H724   H     0.48535   0.99376   0.61751   0.00000  Uiso   1.00
N725   N     0.23745   0.81881   0.34617   0.00000  Uiso   1.00
N726   N     0.26256   0.84786   0.65383   0.00000  Uiso   1.00
N727   N     0.02745   0.68769   0.42798   0.00000  Uiso   1.00
N728   N     0.47255   0.97897   0.57202   0.00000  Uiso   1.00
O729   O     0.25326   0.76204   0.53992   0.00000  Uiso   1.00
O730   O     0.39417   0.94464   0.62170   0.00000  Uiso   1.00
O731   O     0.13305   0.71499   0.47266   0.00000  Uiso   1.00
O732   O     0.10583   0.72203   0.37830   0.00000  Uiso   1.00
O733   O     0.17604   0.95392   0.43544   0.00000  Uiso   1.00
O734   O     0.21253   0.98772   0.36663   0.00000  Uiso   1.00
O735   O     0.32396   0.71274   0.56455   0.00000  Uiso   1.00
O736   O     0.28747   0.67895   0.63337   0.00000  Uiso   1.00
O737   O     0.16234   0.81981   0.65548   0.00000  Uiso   1.00
O738   O     0.19147   0.74320   0.61544   0.00000  Uiso   1.00
O739   O     0.33766   0.84685   0.34452   0.00000  Uiso   1.00
O740   O     0.24675   0.90462   0.46008   0.00000  Uiso   1.00
O741   O     0.30853   0.92346   0.38456   0.00000  Uiso   1.00
O742   O     0.24480   0.75226   0.43612   0.00000  Uiso   1.00
O743   O     0.25520   0.91441   0.56388   0.00000  Uiso   1.00
O744   O     0.18936   0.83821   0.55191   0.00000  Uiso   1.00
O745   O     0.31065   0.82845   0.44809   0.00000  Uiso   1.00
O746   O     0.18090   0.82843   0.44810   0.00000  Uiso   1.00
O747   O     0.31910   0.83824   0.55190   0.00000  Uiso   1.00
O748   O     0.36695   0.95168   0.52734   0.00000  Uiso   1.00
C749   C     0.74804   0.73339   0.48449   0.00000  Uiso   1.00
C750   C     0.58888   0.78470   0.47293   0.00000  Uiso   1.00
C751   C     0.88357   0.83581   0.49834   0.00000  Uiso   1.00
C752   C     0.61643   0.83085   0.50166   0.00000  Uiso   1.00
C753   C     0.90170   0.79013   0.47078   0.00000  Uiso   1.00
C754   C     0.59830   0.87654   0.52922   0.00000  Uiso   1.00
C755   C     0.94789   0.78871   0.47256   0.00000  Uiso   1.00
C756   C     0.55211   0.87796   0.52744   0.00000  Uiso   1.00
C757   C     0.97658   0.83447   0.49982   0.00000  Uiso   1.00
C758   C     0.52342   0.83219   0.50018   0.00000  Uiso   1.00
C759   C     0.95844   0.88234   0.52642   0.00000  Uiso   1.00
C760   C     0.75196   0.93328   0.51551   0.00000  Uiso   1.00
C761   C     0.54156   0.78432   0.47358   0.00000  Uiso   1.00
C762   C     0.96542   0.74144   0.44830   0.00000  Uiso   1.00
C763   C     0.53458   0.92523   0.55170   0.00000  Uiso   1.00
C764   C     0.88938   0.92834   0.55791   0.00000  Uiso   1.00
C765   C     0.61062   0.73833   0.44208   0.00000  Uiso   1.00
C766   C     0.70786   0.98186   0.42587   0.00000  Uiso   1.00
C767   C     0.79214   0.68481   0.57413   0.00000  Uiso   1.00
C768   C     0.69559   0.79557   0.64848   0.00000  Uiso   1.00
C769   C     0.80441   0.87110   0.35152   0.00000  Uiso   1.00
C770   C     0.51165   0.73830   0.44952   0.00000  Uiso   1.00
C771   C     0.98835   0.92837   0.55048   0.00000  Uiso   1.00
C772   C     0.74111   0.67750   0.47761   0.00000  Uiso   1.00
C773   C     0.75889   0.98917   0.52239   0.00000  Uiso   1.00
C774   C     0.66471   0.83297   0.50060   0.00000  Uiso   1.00
C775   C     0.83529   0.83369   0.49940   0.00000  Uiso   1.00
C776   C     0.91112   0.88197   0.52707   0.00000  Uiso   1.00
Cu777  Cu    0.75501   0.83913   0.56146   0.00000  Uiso   1.00
Cu778  Cu    0.74500   0.82754   0.43854   0.00000  Uiso   1.00
H779   H     0.87955   0.75495   0.44977   0.00000  Uiso   1.00
H780   H     0.98525   0.67115   0.54678   0.00000  Uiso   1.00
H781   H     0.68824   0.96591   0.33551   0.00000  Uiso   1.00
H782   H     0.81176   0.70075   0.66449   0.00000  Uiso   1.00
H783   H     0.65952   0.73029   0.59754   0.00000  Uiso   1.00
H784   H     0.84048   0.93638   0.40246   0.00000  Uiso   1.00
H785   H     0.62045   0.91171   0.55023   0.00000  Uiso   1.00
H786   H     0.94304   0.70614   0.42903   0.00000  Uiso   1.00
H787   H     0.55696   0.96053   0.57097   0.00000  Uiso   1.00
H788   H     0.87787   0.97681   0.63743   0.00000  Uiso   1.00
H789   H     0.62213   0.68986   0.36257   0.00000  Uiso   1.00
H790   H     0.51475   0.99552   0.45322   0.00000  Uiso   1.00
H791   H     0.51465   0.67291   0.38249   0.00000  Uiso   1.00
H792   H     0.98535   0.99376   0.61751   0.00000  Uiso   1.00
N793   N     0.73745   0.81881   0.34617   0.00000  Uiso   1.00
N794   N     0.76256   0.84786   0.65383   0.00000  Uiso   1.00
N795   N     0.52745   0.68769   0.42798   0.00000  Uiso   1.00
N796   N     0.97255   0.97897   0.57202   0.00000  Uiso   1.00
O797   O     0.75326   0.76204   0.53992   0.00000  Uiso   1.00
O798   O     0.89417   0.94464   0.62170   0.00000  Uiso   1.00
O799   O     0.63305   0.71499   0.47266   0.00000  Uiso   1.00
O800   O     0.60583   0.72203   0.37830   0.00000  Uiso   1.00
O801   O     0.67604   0.95392   0.43544   0.00000  Uiso   1.00
O802   O     0.71253   0.98772   0.36663   0.00000  Uiso   1.00
O803   O     0.82396   0.71274   0.56455   0.00000  Uiso   1.00
O804   O     0.78747   0.67895   0.63337   0.00000  Uiso   1.00
O805   O     0.66234   0.81981   0.65548   0.00000  Uiso   1.00
O806   O     0.69147   0.74320   0.61544   0.00000  Uiso   1.00
O807   O     0.83766   0.84685   0.34452   0.00000  Uiso   1.00
O808   O     0.74675   0.90462   0.46008   0.00000  Uiso   1.00
O809   O     0.80853   0.92346   0.38456   0.00000  Uiso   1.00
O810   O     0.74480   0.75226   0.43612   0.00000  Uiso   1.00
O811   O     0.75520   0.91441   0.56388   0.00000  Uiso   1.00
O812   O     0.68936   0.83821   0.55191   0.00000  Uiso   1.00
O813   O     0.81065   0.82845   0.44809   0.00000  Uiso   1.00
O814   O     0.68090   0.82843   0.44810   0.00000  Uiso   1.00
O815   O     0.81910   0.83824   0.55190   0.00000  Uiso   1.00
O816   O     0.86695   0.95168   0.52734   0.00000  Uiso   1.00
C817   C     0.24804   0.06672   0.81783   0.00000  Uiso   1.00
C818   C     0.08888   0.11803   0.80626   0.00000  Uiso   1.00
C819   C     0.38357   0.16915   0.83167   0.00000  Uiso   1.00
C820   C     0.11643   0.16419   0.83500   0.00000  Uiso   1.00
C821   C     0.40170   0.12346   0.80411   0.00000  Uiso   1.00
C822   C     0.09830   0.20987   0.86256   0.00000  Uiso   1.00
C823   C     0.44789   0.12204   0.80589   0.00000  Uiso   1.00
C824   C     0.05211   0.21129   0.86078   0.00000  Uiso   1.00
C825   C     0.47658   0.16781   0.83315   0.00000  Uiso   1.00
C826   C     0.02342   0.16552   0.83352   0.00000  Uiso   1.00
C827   C     0.45844   0.21568   0.85975   0.00000  Uiso   1.00
C828   C     0.25196   0.26661   0.84884   0.00000  Uiso   1.00
C829   C     0.04156   0.11766   0.80691   0.00000  Uiso   1.00
C830   C     0.46542   0.07477   0.78163   0.00000  Uiso   1.00
C831   C     0.03458   0.25856   0.88503   0.00000  Uiso   1.00
C832   C     0.38938   0.26167   0.89125   0.00000  Uiso   1.00
C833   C     0.11062   0.07166   0.77542   0.00000  Uiso   1.00
C834   C     0.20786   0.31519   0.75920   0.00000  Uiso   1.00
C835   C     0.29214   0.01814   0.90746   0.00000  Uiso   1.00
C836   C     0.19559   0.12890   0.98182   0.00000  Uiso   1.00
C837   C     0.30441   0.20443   0.68485   0.00000  Uiso   1.00
C838   C     0.01165   0.07163   0.78286   0.00000  Uiso   1.00
C839   C     0.48835   0.26170   0.88381   0.00000  Uiso   1.00
C840   C     0.24111   0.01083   0.81095   0.00000  Uiso   1.00
C841   C     0.25889   0.32250   0.85572   0.00000  Uiso   1.00
C842   C     0.16471   0.16631   0.83393   0.00000  Uiso   1.00
C843   C     0.33529   0.16703   0.83273   0.00000  Uiso   1.00
C844   C     0.41112   0.21530   0.86041   0.00000  Uiso   1.00
Cu845  Cu    0.25501   0.17246   0.89479   0.00000  Uiso   1.00
Cu846  Cu    0.24500   0.16087   0.77187   0.00000  Uiso   1.00
H847   H     0.37955   0.08829   0.78310   0.00000  Uiso   1.00
H848   H     0.48525   0.00448   0.88012   0.00000  Uiso   1.00
H849   H     0.18824   0.29925   0.66884   0.00000  Uiso   1.00
H850   H     0.31176   0.03408   0.99782   0.00000  Uiso   1.00
H851   H     0.15952   0.06362   0.93087   0.00000  Uiso   1.00
H852   H     0.34048   0.26971   0.73580   0.00000  Uiso   1.00
H853   H     0.12045   0.24505   0.88357   0.00000  Uiso   1.00
H854   H     0.44304   0.03947   0.76236   0.00000  Uiso   1.00
H855   H     0.05696   0.29386   0.90431   0.00000  Uiso   1.00
H856   H     0.37787   0.31014   0.97076   0.00000  Uiso   1.00
H857   H     0.12213   0.02319   0.69590   0.00000  Uiso   1.00
H858   H     0.01475   0.32885   0.78655   0.00000  Uiso   1.00
H859   H     0.01465   0.00624   0.71582   0.00000  Uiso   1.00
H860   H     0.48535   0.32709   0.95084   0.00000  Uiso   1.00
N861   N     0.23745   0.15214   0.67951   0.00000  Uiso   1.00
N862   N     0.26256   0.18119   0.98716   0.00000  Uiso   1.00
N863   N     0.02745   0.02103   0.76132   0.00000  Uiso   1.00
N864   N     0.47255   0.31231   0.90535   0.00000  Uiso   1.00
O865   O     0.25326   0.09538   0.87326   0.00000  Uiso   1.00
O866   O     0.39417   0.27797   0.95504   0.00000  Uiso   1.00
O867   O     0.13305   0.04832   0.80599   0.00000  Uiso   1.00
O868   O     0.10583   0.05536   0.71163   0.00000  Uiso   1.00
O869   O     0.17604   0.28726   0.76878   0.00000  Uiso   1.00
O870   O     0.21253   0.32105   0.69996   0.00000  Uiso   1.00
O871   O     0.32396   0.04608   0.89789   0.00000  Uiso   1.00
O872   O     0.28747   0.01228   0.96670   0.00000  Uiso   1.00
O873   O     0.16234   0.15315   0.98881   0.00000  Uiso   1.00
O874   O     0.19147   0.07654   0.94878   0.00000  Uiso   1.00
O875   O     0.33766   0.18019   0.67785   0.00000  Uiso   1.00
O876   O     0.24675   0.23796   0.79341   0.00000  Uiso   1.00
O877   O     0.30853   0.25680   0.71789   0.00000  Uiso   1.00
O878   O     0.24480   0.08559   0.76945   0.00000  Uiso   1.00
O879   O     0.25520   0.24774   0.89721   0.00000  Uiso   1.00
O880   O     0.18936   0.17155   0.88524   0.00000  Uiso   1.00
O881   O     0.31065   0.16179   0.78143   0.00000  Uiso   1.00
O882   O     0.18090   0.16176   0.78143   0.00000  Uiso   1.00
O883   O     0.31910   0.17157   0.88523   0.00000  Uiso   1.00
O884   O     0.36695   0.28501   0.86068   0.00000  Uiso   1.00
C885   C     0.74804   0.06672   0.81783   0.00000  Uiso   1.00
C886   C     0.58888   0.11803   0.80626   0.00000  Uiso   1.00
C887   C     0.88357   0.16915   0.83167   0.00000  Uiso   1.00
C888   C     0.61643   0.16419   0.83500   0.00000  Uiso   1.00
C889   C     0.90170   0.12346   0.80411   0.00000  Uiso   1.00
C890   C     0.59830   0.20987   0.86256   0.00000  Uiso   1.00
C891   C     0.94789   0.12204   0.80589   0.00000  Uiso   1.00
C892   C     0.55211   0.21129   0.86078   0.00000  Uiso   1.00
C893   C     0.97658   0.16781   0.83315   0.00000  Uiso   1.00
C894   C     0.52342   0.16552   0.83352   0.00000  Uiso   1.00
C895   C     0.95844   0.21568   0.85975   0.00000  Uiso   1.00
C896   C     0.75196   0.26661   0.84884   0.00000  Uiso   1.00
C897   C     0.54156   0.11766   0.80691   0.00000  Uiso   1.00
C898   C     0.96542   0.07477   0.78163   0.00000  Uiso   1.00
C899   C     0.53458   0.25856   0.88503   0.00000  Uiso   1.00
C900   C     0.88938   0.26167   0.89125   0.00000  Uiso   1.00
C901   C     0.61062   0.07166   0.77542   0.00000  Uiso   1.00
C902   C     0.70786   0.31519   0.75920   0.00000  Uiso   1.00
C903   C     0.79214   0.01814   0.90746   0.00000  Uiso   1.00
C904   C     0.69559   0.12890   0.98182   0.00000  Uiso   1.00
C905   C     0.80441   0.20443   0.68485   0.00000  Uiso   1.00
C906   C     0.51165   0.07163   0.78286   0.00000  Uiso   1.00
C907   C     0.98835   0.26170   0.88381   0.00000  Uiso   1.00
C908   C     0.74111   0.01083   0.81095   0.00000  Uiso   1.00
C909   C     0.75889   0.32250   0.85572   0.00000  Uiso   1.00
C910   C     0.66471   0.16631   0.83393   0.00000  Uiso   1.00
C911   C     0.83529   0.16703   0.83273   0.00000  Uiso   1.00
C912   C     0.91112   0.21530   0.86041   0.00000  Uiso   1.00
Cu913  Cu    0.75501   0.17246   0.89479   0.00000  Uiso   1.00
Cu914  Cu    0.74500   0.16087   0.77187   0.00000  Uiso   1.00
H915   H     0.87955   0.08829   0.78310   0.00000  Uiso   1.00
H916   H     0.98525   0.00448   0.88012   0.00000  Uiso   1.00
H917   H     0.68824   0.29925   0.66884   0.00000  Uiso   1.00
H918   H     0.81176   0.03408   0.99782   0.00000  Uiso   1.00
H919   H     0.65952   0.06362   0.93087   0.00000  Uiso   1.00
H920   H     0.84048   0.26971   0.73580   0.00000  Uiso   1.00
H921   H     0.62045   0.24505   0.88357   0.00000  Uiso   1.00
H922   H     0.94304   0.03947   0.76236   0.00000  Uiso   1.00
H923   H     0.55696   0.29386   0.90431   0.00000  Uiso   1.00
H924   H     0.87787   0.31014   0.97076   0.00000  Uiso   1.00
H925   H     0.62213   0.02319   0.69590   0.00000  Uiso   1.00
H926   H     0.51475   0.32885   0.78655   0.00000  Uiso   1.00
H927   H     0.51465   0.00624   0.71582   0.00000  Uiso   1.00
H928   H     0.98535   0.32709   0.95084   0.00000  Uiso   1.00
N929   N     0.73745   0.15214   0.67951   0.00000  Uiso   1.00
N930   N     0.76256   0.18119   0.98716   0.00000  Uiso   1.00
N931   N     0.52745   0.02103   0.76132   0.00000  Uiso   1.00
N932   N     0.97255   0.31231   0.90535   0.00000  Uiso   1.00
O933   O     0.75326   0.09538   0.87326   0.00000  Uiso   1.00
O934   O     0.89417   0.27797   0.95504   0.00000  Uiso   1.00
O935   O     0.63305   0.04832   0.80599   0.00000  Uiso   1.00
O936   O     0.60583   0.05536   0.71163   0.00000  Uiso   1.00
O937   O     0.67604   0.28726   0.76878   0.00000  Uiso   1.00
O938   O     0.71253   0.32105   0.69996   0.00000  Uiso   1.00
O939   O     0.82396   0.04608   0.89789   0.00000  Uiso   1.00
O940   O     0.78747   0.01228   0.96670   0.00000  Uiso   1.00
O941   O     0.66234   0.15315   0.98881   0.00000  Uiso   1.00
O942   O     0.69147   0.07654   0.94878   0.00000  Uiso   1.00
O943   O     0.83766   0.18019   0.67785   0.00000  Uiso   1.00
O944   O     0.74675   0.23796   0.79341   0.00000  Uiso   1.00
O945   O     0.80853   0.25680   0.71789   0.00000  Uiso   1.00
O946   O     0.74480   0.08559   0.76945   0.00000  Uiso   1.00
O947   O     0.75520   0.24774   0.89721   0.00000  Uiso   1.00
O948   O     0.68936   0.17155   0.88524   0.00000  Uiso   1.00
O949   O     0.81065   0.16179   0.78143   0.00000  Uiso   1.00
O950   O     0.68090   0.16176   0.78143   0.00000  Uiso   1.00
O951   O     0.81910   0.17157   0.88523   0.00000  Uiso   1.00
O952   O     0.86695   0.28501   0.86068   0.00000  Uiso   1.00
C953   C     0.24804   0.40006   0.81783   0.00000  Uiso   1.00
C954   C     0.08888   0.45136   0.80626   0.00000  Uiso   1.00
C955   C     0.38357   0.50248   0.83167   0.00000  Uiso   1.00
C956   C     0.11643   0.49752   0.83500   0.00000  Uiso   1.00
C957   C     0.40170   0.45679   0.80411   0.00000  Uiso   1.00
C958   C     0.09830   0.54321   0.86256   0.00000  Uiso   1.00
C959   C     0.44789   0.45537   0.80589   0.00000  Uiso   1.00
C960   C     0.05211   0.54463   0.86078   0.00000  Uiso   1.00
C961   C     0.47658   0.50114   0.83315   0.00000  Uiso   1.00
C962   C     0.02342   0.49886   0.83352   0.00000  Uiso   1.00
C963   C     0.45844   0.54901   0.85975   0.00000  Uiso   1.00
C964   C     0.25196   0.59994   0.84884   0.00000  Uiso   1.00
C965   C     0.04156   0.45099   0.80691   0.00000  Uiso   1.00
C966   C     0.46542   0.40811   0.78163   0.00000  Uiso   1.00
C967   C     0.03458   0.59189   0.88503   0.00000  Uiso   1.00
C968   C     0.38938   0.59501   0.89125   0.00000  Uiso   1.00
C969   C     0.11062   0.40499   0.77542   0.00000  Uiso   1.00
C970   C     0.20786   0.64853   0.75920   0.00000  Uiso   1.00
C971   C     0.29214   0.35147   0.90746   0.00000  Uiso   1.00
C972   C     0.19559   0.46223   0.98182   0.00000  Uiso   1.00
C973   C     0.30441   0.53777   0.68485   0.00000  Uiso   1.00
C974   C     0.01165   0.40497   0.78286   0.00000  Uiso   1.00
C975   C     0.48835   0.59503   0.88381   0.00000  Uiso   1.00
C976   C     0.24111   0.34416   0.81095   0.00000  Uiso   1.00
C977   C     0.25889   0.65584   0.85572   0.00000  Uiso   1.00
C978   C     0.16471   0.49964   0.83393   0.00000  Uiso   1.00
C979   C     0.33529   0.50036   0.83273   0.00000  Uiso   1.00
C980   C     0.41112   0.54864   0.86041   0.00000  Uiso   1.00
Cu981  Cu    0.25501   0.50579   0.89479   0.00000  Uiso   1.00
Cu982  Cu    0.24500   0.49421   0.77187   0.00000  Uiso   1.00
H983   H     0.37955   0.42162   0.78310   0.00000  Uiso   1.00
H984   H     0.48525   0.33781   0.88012   0.00000  Uiso   1.00
H985   H     0.18824   0.63258   0.66884   0.00000  Uiso   1.00
H986   H     0.31176   0.36742   0.99782   0.00000  Uiso   1.00
H987   H     0.15952   0.39695   0.93087   0.00000  Uiso   1.00
H988   H     0.34048   0.60305   0.73580   0.00000  Uiso   1.00
H989   H     0.12045   0.57838   0.88357   0.00000  Uiso   1.00
H990   H     0.44304   0.37280   0.76236   0.00000  Uiso   1.00
H991   H     0.05696   0.62720   0.90431   0.00000  Uiso   1.00
H992   H     0.37787   0.64347   0.97076   0.00000  Uiso   1.00
H993   H     0.12213   0.35653   0.69590   0.00000  Uiso   1.00
H994   H     0.01475   0.66219   0.78655   0.00000  Uiso   1.00
H995   H     0.01465   0.33957   0.71582   0.00000  Uiso   1.00
H996   H     0.48535   0.66042   0.95084   0.00000  Uiso   1.00
N997   N     0.23745   0.48547   0.67951   0.00000  Uiso   1.00
N998   N     0.26256   0.51453   0.98716   0.00000  Uiso   1.00
N999   N     0.02745   0.35436   0.76132   0.00000  Uiso   1.00
N1000  N     0.47255   0.64564   0.90535   0.00000  Uiso   1.00
O1001  O     0.25326   0.42871   0.87326   0.00000  Uiso   1.00
O1002  O     0.39417   0.61131   0.95504   0.00000  Uiso   1.00
O1003  O     0.13305   0.38165   0.80599   0.00000  Uiso   1.00
O1004  O     0.10583   0.38869   0.71163   0.00000  Uiso   1.00
O1005  O     0.17604   0.62059   0.76878   0.00000  Uiso   1.00
O1006  O     0.21253   0.65438   0.69996   0.00000  Uiso   1.00
O1007  O     0.32396   0.37941   0.89789   0.00000  Uiso   1.00
O1008  O     0.28747   0.34562   0.96670   0.00000  Uiso   1.00
O1009  O     0.16234   0.48648   0.98881   0.00000  Uiso   1.00
O1010  O     0.19147   0.40987   0.94878   0.00000  Uiso   1.00
O1011  O     0.33766   0.51352   0.67785   0.00000  Uiso   1.00
O1012  O     0.24675   0.57129   0.79341   0.00000  Uiso   1.00
O1013  O     0.30853   0.59013   0.71789   0.00000  Uiso   1.00
O1014  O     0.24480   0.41892   0.76945   0.00000  Uiso   1.00
O1015  O     0.25520   0.58108   0.89721   0.00000  Uiso   1.00
O1016  O     0.18936   0.50488   0.88524   0.00000  Uiso   1.00
O1017  O     0.31065   0.49512   0.78143   0.00000  Uiso   1.00
O1018  O     0.18090   0.49510   0.78143   0.00000  Uiso   1.00
O1019  O     0.31910   0.50490   0.88523   0.00000  Uiso   1.00
O1020  O     0.36695   0.61835   0.86068   0.00000  Uiso   1.00
C1021  C     0.74804   0.40006   0.81783   0.00000  Uiso   1.00
C1022  C     0.58888   0.45136   0.80626   0.00000  Uiso   1.00
C1023  C     0.88357   0.50248   0.83167   0.00000  Uiso   1.00
C1024  C     0.61643   0.49752   0.83500   0.00000  Uiso   1.00
C1025  C     0.90170   0.45679   0.80411   0.00000  Uiso   1.00
C1026  C     0.59830   0.54321   0.86256   0.00000  Uiso   1.00
C1027  C     0.94789   0.45537   0.80589   0.00000  Uiso   1.00
C1028  C     0.55211   0.54463   0.86078   0.00000  Uiso   1.00
C1029  C     0.97658   0.50114   0.83315   0.00000  Uiso   1.00
C1030  C     0.52342   0.49886   0.83352   0.00000  Uiso   1.00
C1031  C     0.95844   0.54901   0.85975   0.00000  Uiso   1.00
C1032  C     0.75196   0.59994   0.84884   0.00000  Uiso   1.00
C1033  C     0.54156   0.45099   0.80691   0.00000  Uiso   1.00
C1034  C     0.96542   0.40811   0.78163   0.00000  Uiso   1.00
C1035  C     0.53458   0.59189   0.88503   0.00000  Uiso   1.00
C1036  C     0.88938   0.59501   0.89125   0.00000  Uiso   1.00
C1037  C     0.61062   0.40499   0.77542   0.00000  Uiso   1.00
C1038  C     0.70786   0.64853   0.75920   0.00000  Uiso   1.00
C1039  C     0.79214   0.35147   0.90746   0.00000  Uiso   1.00
C1040  C     0.69559   0.46223   0.98182   0.00000  Uiso   1.00
C1041  C     0.80441   0.53777   0.68485   0.00000  Uiso   1.00
C1042  C     0.51165   0.40497   0.78286   0.00000  Uiso   1.00
C1043  C     0.98835   0.59503   0.88381   0.00000  Uiso   1.00
C1044  C     0.74111   0.34416   0.81095   0.00000  Uiso   1.00
C1045  C     0.75889   0.65584   0.85572   0.00000  Uiso   1.00
C1046  C     0.66471   0.49964   0.83393   0.00000  Uiso   1.00
C1047  C     0.83529   0.50036   0.83273   0.00000  Uiso   1.00
C1048  C     0.91112   0.54864   0.86041   0.00000  Uiso   1.00
Cu1049 Cu    0.75501   0.50579   0.89479   0.00000  Uiso   1.00
Cu1050 Cu    0.74500   0.49421   0.77187   0.00000  Uiso   1.00
H1051  H     0.87955   0.42162   0.78310   0.00000  Uiso   1.00
H1052  H     0.98525   0.33781   0.88012   0.00000  Uiso   1.00
H1053  H     0.68824   0.63258   0.66884   0.00000  Uiso   1.00
H1054  H     0.81176   0.36742   0.99782   0.00000  Uiso   1.00
H1055  H     0.65952   0.39695   0.93087   0.00000  Uiso   1.00
H1056  H     0.84048   0.60305   0.73580   0.00000  Uiso   1.00
H1057  H     0.62045   0.57838   0.88357   0.00000  Uiso   1.00
H1058  H     0.94304   0.37280   0.76236   0.00000  Uiso   1.00
H1059  H     0.55696   0.62720   0.90431   0.00000  Uiso   1.00
H1060  H     0.87787   0.64347   0.97076   0.00000  Uiso   1.00
H1061  H     0.62213   0.35653   0.69590   0.00000  Uiso   1.00
H1062  H     0.51475   0.66219   0.78655   0.00000  Uiso   1.00
H1063  H     0.51465   0.33957   0.71582   0.00000  Uiso   1.00
H1064  H     0.98535   0.66042   0.95084   0.00000  Uiso   1.00
N1065  N     0.73745   0.48547   0.67951   0.00000  Uiso   1.00
N1066  N     0.76256   0.51453   0.98716   0.00000  Uiso   1.00
N1067  N     0.52745   0.35436   0.76132   0.00000  Uiso   1.00
N1068  N     0.97255   0.64564   0.90535   0.00000  Uiso   1.00
O1069  O     0.75326   0.42871   0.87326   0.00000  Uiso   1.00
O1070  O     0.89417   0.61131   0.95504   0.00000  Uiso   1.00
O1071  O     0.63305   0.38165   0.80599   0.00000  Uiso   1.00
O1072  O     0.60583   0.38869   0.71163   0.00000  Uiso   1.00
O1073  O     0.67604   0.62059   0.76878   0.00000  Uiso   1.00
O1074  O     0.71253   0.65438   0.69996   0.00000  Uiso   1.00
O1075  O     0.82396   0.37941   0.89789   0.00000  Uiso   1.00
O1076  O     0.78747   0.34562   0.96670   0.00000  Uiso   1.00
O1077  O     0.66234   0.48648   0.98881   0.00000  Uiso   1.00
O1078  O     0.69147   0.40987   0.94878   0.00000  Uiso   1.00
O1079  O     0.83766   0.51352   0.67785   0.00000  Uiso   1.00
O1080  O     0.74675   0.57129   0.79341   0.00000  Uiso   1.00
O1081  O     0.80853   0.59013   0.71789   0.00000  Uiso   1.00
O1082  O     0.74480   0.41892   0.76945   0.00000  Uiso   1.00
O1083  O     0.75520   0.58108   0.89721   0.00000  Uiso   1.00
O1084  O     0.68936   0.50488   0.88524   0.00000  Uiso   1.00
O1085  O     0.81065   0.49512   0.78143   0.00000  Uiso   1.00
O1086  O     0.68090   0.49510   0.78143   0.00000  Uiso   1.00
O1087  O     0.81910   0.50490   0.88523   0.00000  Uiso   1.00
O1088  O     0.86695   0.61835   0.86068   0.00000  Uiso   1.00
C1089  C     0.24804   0.73339   0.81783   0.00000  Uiso   1.00
C1090  C     0.08888   0.78470   0.80626   0.00000  Uiso   1.00
C1091  C     0.38357   0.83581   0.83167   0.00000  Uiso   1.00
C1092  C     0.11643   0.83085   0.83500   0.00000  Uiso   1.00
C1093  C     0.40170   0.79013   0.80411   0.00000  Uiso   1.00
C1094  C     0.09830   0.87654   0.86256   0.00000  Uiso   1.00
C1095  C     0.44789   0.78871   0.80589   0.00000  Uiso   1.00
C1096  C     0.05211   0.87796   0.86078   0.00000  Uiso   1.00
C1097  C     0.47658   0.83447   0.83315   0.00000  Uiso   1.00
C1098  C     0.02342   0.83219   0.83352   0.00000  Uiso   1.00
C1099  C     0.45844   0.88234   0.85975   0.00000  Uiso   1.00
C1100  C     0.25196   0.93328   0.84884   0.00000  Uiso   1.00
C1101  C     0.04156   0.78432   0.80691   0.00000  Uiso   1.00
C1102  C     0.46542   0.74144   0.78163   0.00000  Uiso   1.00
C1103  C     0.03458   0.92523   0.88503   0.00000  Uiso   1.00
C1104  C     0.38938   0.92834   0.89125   0.00000  Uiso   1.00
C1105  C     0.11062   0.73833   0.77542   0.00000  Uiso   1.00
C1106  C     0.20786   0.98186   0.75920   0.00000  Uiso   1.00
C1107  C     0.29214   0.68481   0.90746   0.00000  Uiso   1.00
C1108  C     0.19559   0.79557   0.98182   0.00000  Uiso   1.00
C1109  C     0.30441   0.87110   0.68485   0.00000  Uiso   1.00
C1110  C     0.01165   0.73830   0.78286   0.00000  Uiso   1.00
C1111  C     0.48835   0.92837   0.88381   0.00000  Uiso   1.00
C1112  C     0.24111   0.67750   0.81095   0.00000  Uiso   1.00
C1113  C     0.25889   0.98917   0.85572   0.00000  Uiso   1.00
C1114  C     0.16471   0.83297   0.83393   0.00000  Uiso   1.00
C1115  C     0.33529   0.83369   0.83273   0.00000  Uiso   1.00
C1116  C     0.41112   0.88197   0.86041   0.00000  Uiso   1.00
Cu1117 Cu    0.25501   0.83913   0.89479   0.00000  Uiso   1.00
Cu1118 Cu    0.24500   0.82754   0.77187   0.00000  Uiso   1.00
H1119  H     0.37955   0.75495   0.78310   0.00000  Uiso   1.00
H1120  H     0.48525   0.67115   0.88012   0.00000  Uiso   1.00
H1121  H     0.18824   0.96591   0.66884   0.00000  Uiso   1.00
H1122  H     0.31176   0.70075   0.99782   0.00000  Uiso   1.00
H1123  H     0.15952   0.73029   0.93087   0.00000  Uiso   1.00
H1124  H     0.34048   0.93638   0.73580   0.00000  Uiso   1.00
H1125  H     0.12045   0.91171   0.88357   0.00000  Uiso   1.00
H1126  H     0.44304   0.70614   0.76236   0.00000  Uiso   1.00
H1127  H     0.05696   0.96053   0.90431   0.00000  Uiso   1.00
H1128  H     0.37787   0.97681   0.97076   0.00000  Uiso   1.00
H1129  H     0.12213   0.68986   0.69590   0.00000  Uiso   1.00
H1130  H     0.01475   0.99552   0.78655   0.00000  Uiso   1.00
H1131  H     0.01465   0.67291   0.71582   0.00000  Uiso   1.00
H1132  H     0.48535   0.99376   0.95084   0.00000  Uiso   1.00
N1133  N     0.23745   0.81881   0.67951   0.00000  Uiso   1.00
N1134  N     0.26256   0.84786   0.98716   0.00000  Uiso   1.00
N1135  N     0.02745   0.68769   0.76132   0.00000  Uiso   1.00
N1136  N     0.47255   0.97897   0.90535   0.00000  Uiso   1.00
O1137  O     0.25326   0.76204   0.87326   0.00000  Uiso   1.00
O1138  O     0.39417   0.94464   0.95504   0.00000  Uiso   1.00
O1139  O     0.13305   0.71499   0.80599   0.00000  Uiso   1.00
O1140  O     0.10583   0.72203   0.71163   0.00000  Uiso   1.00
O1141  O     0.17604   0.95392   0.76878   0.00000  Uiso   1.00
O1142  O     0.21253   0.98772   0.69996   0.00000  Uiso   1.00
O1143  O     0.32396   0.71274   0.89789   0.00000  Uiso   1.00
O1144  O     0.28747   0.67895   0.96670   0.00000  Uiso   1.00
O1145  O     0.16234   0.81981   0.98881   0.00000  Uiso   1.00
O1146  O     0.19147   0.74320   0.94878   0.00000  Uiso   1.00
O1147  O     0.33766   0.84685   0.67785   0.00000  Uiso   1.00
O1148  O     0.24675   0.90462   0.79341   0.00000  Uiso   1.00
O1149  O     0.30853   0.92346   0.71789   0.00000  Uiso   1.00
O1150  O     0.24480   0.75226   0.76945   0.00000  Uiso   1.00
O1151  O     0.25520   0.91441   0.89721   0.00000  Uiso   1.00
O1152  O     0.18936   0.83821   0.88524   0.00000  Uiso   1.00
O1153  O     0.31065   0.82845   0.78143   0.00000  Uiso   1.00
O1154  O     0.18090   0.82843   0.78143   0.00000  Uiso   1.00
O1155  O     0.31910   0.83824   0.88523   0.00000  Uiso   1.00
O1156  O     0.36695   0.95168   0.86068   0.00000  Uiso   1.00
C1157  C     0.74804   0.73339   0.81783   0.00000  Uiso   1.00
C1158  C     0.58888   0.78470   0.80626   0.00000  Uiso   1.00
C1159  C     0.88357   0.83581   0.83167   0.00000  Uiso   1.00
C1160  C     0.61643   0.83085   0.83500   0.00000  Uiso   1.00
C1161  C     0.90170   0.79013   0.80411   0.00000  Uiso   1.00
C1162  C     0.59830   0.87654   0.86256   0.00000  Uiso   1.00
C1163  C     0.94789   0.78871   0.80589   0.00000  Uiso   1.00
C1164  C     0.55211   0.87796   0.86078   0.00000  Uiso   1.00
C1165  C     0.97658   0.83447   0.83315   0.00000  Uiso   1.00
C1166  C     0.52342   0.83219   0.83352   0.00000  Uiso   1.00
C1167  C     0.95844   0.88234   0.85975   0.00000  Uiso   1.00
C1168  C     0.75196   0.93328   0.84884   0.00000  Uiso   1.00
C1169  C     0.54156   0.78432   0.80691   0.00000  Uiso   1.00
C1170  C     0.96542   0.74144   0.78163   0.00000  Uiso   1.00
C1171  C     0.53458   0.92523   0.88503   0.00000  Uiso   1.00
C1172  C     0.88938   0.92834   0.89125   0.00000  Uiso   1.00
C1173  C     0.61062   0.73833   0.77542   0.00000  Uiso   1.00
C1174  C     0.70786   0.98186   0.75920   0.00000  Uiso   1.00
C1175  C     0.79214   0.68481   0.90746   0.00000  Uiso   1.00
C1176  C     0.69559   0.79557   0.98182   0.00000  Uiso   1.00
C1177  C     0.80441   0.87110   0.68485   0.00000  Uiso   1.00
C1178  C     0.51165   0.73830   0.78286   0.00000  Uiso   1.00
C1179  C     0.98835   0.92837   0.88381   0.00000  Uiso   1.00
C1180  C     0.74111   0.67750   0.81095   0.00000  Uiso   1.00
C1181  C     0.75889   0.98917   0.85572   0.00000  Uiso   1.00
C1182  C     0.66471   0.83297   0.83393   0.00000  Uiso   1.00
C1183  C     0.83529   0.83369   0.83273   0.00000  Uiso   1.00
C1184  C     0.91112   0.88197   0.86041   0.00000  Uiso   1.00
Cu1185 Cu    0.75501   0.83913   0.89479   0.00000  Uiso   1.00
Cu1186 Cu    0.74500   0.82754   0.77187   0.00000  Uiso   1.00
H1187  H     0.87955   0.75495   0.78310   0.00000  Uiso   1.00
H1188  H     0.98525   0.67115   0.88012   0.00000  Uiso   1.00
H1189  H     0.68824   0.96591   0.66884   0.00000  Uiso   1.00
H1190  H     0.81176   0.70075   0.99782   0.00000  Uiso   1.00
H1191  H     0.65952   0.73029   0.93087   0.00000  Uiso   1.00
H1192  H     0.84048   0.93638   0.73580   0.00000  Uiso   1.00
H1193  H     0.62045   0.91171   0.88357   0.00000  Uiso   1.00
H1194  H     0.94304   0.70614   0.76236   0.00000  Uiso   1.00
H1195  H     0.55696   0.96053   0.90431   0.00000  Uiso   1.00
H1196  H     0.87787   0.97681   0.97076   0.00000  Uiso   1.00
H1197  H     0.62213   0.68986   0.69590   0.00000  Uiso   1.00
H1198  H     0.51475   0.99552   0.78655   0.00000  Uiso   1.00
H1199  H     0.51465   0.67291   0.71582   0.00000  Uiso   1.00
H1200  H     0.98535   0.99376   0.95084   0.00000  Uiso   1.00
N1201  N     0.73745   0.81881   0.67951   0.00000  Uiso   1.00
N1202  N     0.76256   0.84786   0.98716   0.00000  Uiso   1.00
N1203  N     0.52745   0.68769   0.76132   0.00000  Uiso   1.00
N1204  N     0.97255   0.97897   0.90535   0.00000  Uiso   1.00
O1205  O     0.75326   0.76204   0.87326   0.00000  Uiso   1.00
O1206  O     0.89417   0.94464   0.95504   0.00000  Uiso   1.00
O1207  O     0.63305   0.71499   0.80599   0.00000  Uiso   1.00
O1208  O     0.60583   0.72203   0.71163   0.00000  Uiso   1.00
O1209  O     0.67604   0.95392   0.76878   0.00000  Uiso   1.00
O1210  O     0.71253   0.98772   0.69996   0.00000  Uiso   1.00
O1211  O     0.82396   0.71274   0.89789   0.00000  Uiso   1.00
O1212  O     0.78747   0.67895   0.96670   0.00000  Uiso   1.00
O1213  O     0.66234   0.81981   0.98881   0.00000  Uiso   1.00
O1214  O     0.69147   0.74320   0.94878   0.00000  Uiso   1.00
O1215  O     0.83766   0.84685   0.67785   0.00000  Uiso   1.00
O1216  O     0.74675   0.90462   0.79341   0.00000  Uiso   1.00
O1217  O     0.80853   0.92346   0.71789   0.00000  Uiso   1.00
O1218  O     0.74480   0.75226   0.76945   0.00000  Uiso   1.00
O1219  O     0.75520   0.91441   0.89721   0.00000  Uiso   1.00
O1220  O     0.68936   0.83821   0.88524   0.00000  Uiso   1.00
O1221  O     0.81065   0.82845   0.78143   0.00000  Uiso   1.00
O1222  O     0.68090   0.82843   0.78143   0.00000  Uiso   1.00
O1223  O     0.81910   0.83824   0.88523   0.00000  Uiso   1.00
O1224  O     0.86695   0.95168   0.86068   0.00000  Uiso   1.00
loop_
_geom_bond_atom_site_label_1
_geom_bond_atom_site_label_2
_geom_bond_distance
_geom_bond_site_symmetry_2
_ccdc_geom_bond_type
C1     O62     1.300   .     A
C1     O49     1.294   .     A
C1     C24     1.438   .     S
C2     C4      1.408   .     A
C2     C17     1.479   .     S
C2     C13     1.420   .     A
C3     C27     1.447   .     S
C3     C28     1.408   .     A
C3     C5      1.387   .     A
C4     C26     1.447   .     S
C4     C6      1.387   .     A
C5     C7      1.386   .     A
C5     H31     1.086   .     S
C6     H37     1.086   .     S
C6     C8      1.386   .     A
C7     C9      1.411   .     A
C7     C14     1.394   .     A
C8     C15     1.394   .     A
C8     C10     1.411   .     A
C9     C11     1.428   .     A
C9     C78     1.410   .     S
C10    C13     1.428   .     A
C10    C77     1.410   1_455 S
C11    C28     1.420   .     A
C11    C23     1.423   .     A
C12    C25     1.438   .     S
C12    O60     1.294   .     A
C12    O63     1.300   .     A
C13    C22     1.423   .     A
C14    H38     1.085   .     S
C14    C90     1.394   .     S
C15    H39     1.085   .     S
C15    C91     1.394   1_455 S
C16    C28     1.479   .     S
C16    O68     1.221   .     D
C16    O50     1.398   .     S
C17    O51     1.221   .     D
C17    O52     1.398   .     S
C18    O54     1.398   .     S
C18    O53     1.224   .     D
C18    C160    1.497   .     S
C19    O56     1.398   .     S
C19    O55     1.224   .     D
C19    C297    1.497   1_545 S
C20    O58     1.396   .     S
C20    O57     1.223   .     D
C20    N453    1.413   .     S
C21    O59     1.223   .     D
C21    O61     1.396   .     S
C21    N862    1.413   1_554 S
C22    N47     1.434   .     S
C22    C82     1.394   1_455 S
C23    N48     1.434   .     S
C23    C83     1.394   .     S
C24    C290    1.497   1_545 S
C24    C297    1.364   1_545 S
C25    C160    1.364   .     S
C25    C155    1.497   .     S
C26    O64     1.300   .     A
C26    O66     1.299   .     A
C27    O65     1.300   .     A
C27    O67     1.299   .     A
Cu29   O63     1.965   .     S
Cu29   Cu30    2.713   .     S
Cu29   N46     2.038   .     S
Cu29   O64     1.963   .     S
Cu29   O49     1.965   .     S
Cu29   O67     1.952   .     S
Cu30   O66     1.952   .     S
Cu30   O62     1.965   .     S
Cu30   O65     1.963   .     S
Cu30   N45     2.038   .     S
Cu30   O60     1.965   .     S
H32    N320    1.044   1_545 S
H33    O54     1.014   .     S
H34    O56     1.014   .     S
H35    O58     1.014   .     S
H36    O61     1.014   .     S
H40    O50     1.013   .     S
H41    O52     1.013   .     S
H42    N183    1.044   .     S
H43    N47     1.043   .     S
H44    N48     1.043   .     S
N45    C836    1.413   1_554 S
N45    N862    1.293   1_554 S
N46    N453    1.293   .     S
N46    C429    1.413   .     S
N47    H314    1.044   1_545 S
N48    H168    1.044   .     S
C69    O130    1.300   .     A
C69    O117    1.294   .     A
C69    C92     1.438   .     S
C70    C72     1.408   .     A
C70    C85     1.479   .     S
C70    C81     1.420   .     A
C71    C95     1.447   .     S
C71    C96     1.408   .     A
C71    C73     1.387   .     A
C72    C94     1.447   .     S
C72    C74     1.387   .     A
C73    C75     1.386   .     A
C73    H99     1.086   .     S
C74    H105    1.086   .     S
C74    C76     1.386   .     A
C75    C77     1.411   .     A
C75    C82     1.394   .     A
C76    C83     1.394   .     A
C76    C78     1.411   .     A
C77    C79     1.428   .     A
C77    C10     1.410   1_655 S
C78    C81     1.428   .     A
C79    C96     1.420   .     A
C79    C91     1.423   .     A
C80    C93     1.438   .     S
C80    O128    1.294   .     A
C80    O131    1.300   .     A
C81    C90     1.423   .     A
C82    H106    1.085   .     S
C82    C22     1.394   1_655 S
C83    H107    1.085   .     S
C84    C96     1.479   .     S
C84    O136    1.221   .     D
C84    O118    1.398   .     S
C85    O119    1.221   .     D
C85    O120    1.398   .     S
C86    O122    1.398   .     S
C86    O121    1.224   .     D
C86    C228    1.497   .     S
C87    O124    1.398   .     S
C87    O123    1.224   .     D
C87    C365    1.497   1_545 S
C88    O126    1.396   .     S
C88    O125    1.223   .     D
C88    N521    1.413   .     S
C89    O127    1.223   .     D
C89    O129    1.396   .     S
C89    N930    1.413   1_554 S
C90    N115    1.434   .     S
C91    N116    1.434   .     S
C91    C15     1.394   1_655 S
C92    C358    1.497   1_545 S
C92    C365    1.364   1_545 S
C93    C228    1.364   .     S
C93    C223    1.497   .     S
C94    O132    1.300   .     A
C94    O134    1.299   .     A
C95    O133    1.300   .     A
C95    O135    1.299   .     A
Cu97   O131    1.965   .     S
Cu97   Cu98    2.713   .     S
Cu97   N114    2.038   .     S
Cu97   O132    1.963   .     S
Cu97   O117    1.965   .     S
Cu97   O135    1.952   .     S
Cu98   O134    1.952   .     S
Cu98   O130    1.965   .     S
Cu98   O133    1.963   .     S
Cu98   N113    2.038   .     S
Cu98   O128    1.965   .     S
H100   N388    1.044   1_545 S
H101   O122    1.014   .     S
H102   O124    1.014   .     S
H103   O126    1.014   .     S
H104   O129    1.014   .     S
H108   O118    1.013   .     S
H109   O120    1.013   .     S
H110   N251    1.044   .     S
H111   N115    1.043   .     S
H112   N116    1.043   .     S
N113   C904    1.413   1_554 S
N113   N930    1.293   1_554 S
N114   N521    1.293   .     S
N114   C497    1.413   .     S
N115   H382    1.044   1_545 S
N116   H236    1.044   .     S
C137   O198    1.300   .     A
C137   O185    1.294   .     A
C137   C160    1.438   .     S
C138   C140    1.408   .     A
C138   C153    1.479   .     S
C138   C149    1.420   .     A
C139   C163    1.447   .     S
C139   C164    1.408   .     A
C139   C141    1.387   .     A
C140   C162    1.447   .     S
C140   C142    1.387   .     A
C141   C143    1.386   .     A
C141   H167    1.086   .     S
C142   H173    1.086   .     S
C142   C144    1.386   .     A
C143   C145    1.411   .     A
C143   C150    1.394   .     A
C144   C151    1.394   .     A
C144   C146    1.411   .     A
C145   C147    1.428   .     A
C145   C214    1.410   .     S
C146   C149    1.428   .     A
C146   C213    1.410   1_455 S
C147   C164    1.420   .     A
C147   C159    1.423   .     A
C148   C161    1.438   .     S
C148   O196    1.294   .     A
C148   O199    1.300   .     A
C149   C158    1.423   .     A
C150   H174    1.085   .     S
C150   C226    1.394   .     S
C151   H175    1.085   .     S
C151   C227    1.394   1_455 S
C152   C164    1.479   .     S
C152   O204    1.221   .     D
C152   O186    1.398   .     S
C153   O187    1.221   .     D
C153   O188    1.398   .     S
C154   O190    1.398   .     S
C154   O189    1.224   .     D
C154   C296    1.497   .     S
C155   O192    1.398   .     S
C155   O191    1.224   .     D
C156   O194    1.396   .     S
C156   O193    1.223   .     D
C156   N589    1.413   .     S
C157   O195    1.223   .     D
C157   O197    1.396   .     S
C157   N998    1.413   1_554 S
C158   N183    1.434   .     S
C158   C218    1.394   1_455 S
C159   N184    1.434   .     S
C159   C219    1.394   .     S
C161   C296    1.364   .     S
C161   C291    1.497   .     S
C162   O200    1.300   .     A
C162   O202    1.299   .     A
C163   O201    1.300   .     A
C163   O203    1.299   .     A
Cu165  O199    1.965   .     S
Cu165  Cu166   2.713   .     S
Cu165  N182    2.038   .     S
Cu165  O200    1.963   .     S
Cu165  O185    1.965   .     S
Cu165  O203    1.952   .     S
Cu166  O202    1.952   .     S
Cu166  O198    1.965   .     S
Cu166  O201    1.963   .     S
Cu166  N181    2.038   .     S
Cu166  O196    1.965   .     S
H169   O190    1.014   .     S
H170   O192    1.014   .     S
H171   O194    1.014   .     S
H172   O197    1.014   .     S
H176   O186    1.013   .     S
H177   O188    1.013   .     S
H178   N319    1.044   .     S
H179   N183    1.043   .     S
H180   N184    1.043   .     S
N181   C972    1.413   1_554 S
N181   N998    1.293   1_554 S
N182   N589    1.293   .     S
N182   C565    1.413   .     S
N184   H304    1.044   .     S
C205   O266    1.300   .     A
C205   O253    1.294   .     A
C205   C228    1.438   .     S
C206   C208    1.408   .     A
C206   C221    1.479   .     S
C206   C217    1.420   .     A
C207   C231    1.447   .     S
C207   C232    1.408   .     A
C207   C209    1.387   .     A
C208   C230    1.447   .     S
C208   C210    1.387   .     A
C209   C211    1.386   .     A
C209   H235    1.086   .     S
C210   H241    1.086   .     S
C210   C212    1.386   .     A
C211   C213    1.411   .     A
C211   C218    1.394   .     A
C212   C219    1.394   .     A
C212   C214    1.411   .     A
C213   C215    1.428   .     A
C213   C146    1.410   1_655 S
C214   C217    1.428   .     A
C215   C232    1.420   .     A
C215   C227    1.423   .     A
C216   C229    1.438   .     S
C216   O264    1.294   .     A
C216   O267    1.300   .     A
C217   C226    1.423   .     A
C218   H242    1.085   .     S
C218   C158    1.394   1_655 S
C219   H243    1.085   .     S
C220   C232    1.479   .     S
C220   O272    1.221   .     D
C220   O254    1.398   .     S
C221   O255    1.221   .     D
C221   O256    1.398   .     S
C222   O258    1.398   .     S
C222   O257    1.224   .     D
C222   C364    1.497   .     S
C223   O260    1.398   .     S
C223   O259    1.224   .     D
C224   O262    1.396   .     S
C224   O261    1.223   .     D
C224   N657    1.413   .     S
C225   O263    1.223   .     D
C225   O265    1.396   .     S
C225   N1066   1.413   1_554 S
C226   N251    1.434   .     S
C227   N252    1.434   .     S
C227   C151    1.394   1_655 S
C229   C364    1.364   .     S
C229   C359    1.497   .     S
C230   O268    1.300   .     A
C230   O270    1.299   .     A
C231   O269    1.300   .     A
C231   O271    1.299   .     A
Cu233  O267    1.965   .     S
Cu233  Cu234   2.713   .     S
Cu233  N250    2.038   .     S
Cu233  O268    1.963   .     S
Cu233  O253    1.965   .     S
Cu233  O271    1.952   .     S
Cu234  O270    1.952   .     S
Cu234  O266    1.965   .     S
Cu234  O269    1.963   .     S
Cu234  N249    2.038   .     S
Cu234  O264    1.965   .     S
H237   O258    1.014   .     S
H238   O260    1.014   .     S
H239   O262    1.014   .     S
H240   O265    1.014   .     S
H244   O254    1.013   .     S
H245   O256    1.013   .     S
H246   N387    1.044   .     S
H247   N251    1.043   .     S
H248   N252    1.043   .     S
N249   C1040   1.413   1_554 S
N249   N1066   1.293   1_554 S
N250   N657    1.293   .     S
N250   C633    1.413   .     S
N252   H372    1.044   .     S
C273   O334    1.300   .     A
C273   O321    1.294   .     A
C273   C296    1.438   .     S
C274   C276    1.408   .     A
C274   C289    1.479   .     S
C274   C285    1.420   .     A
C275   C299    1.447   .     S
C275   C300    1.408   .     A
C275   C277    1.387   .     A
C276   C298    1.447   .     S
C276   C278    1.387   .     A
C277   C279    1.386   .     A
C277   H303    1.086   .     S
C278   H309    1.086   .     S
C278   C280    1.386   .     A
C279   C281    1.411   .     A
C279   C286    1.394   .     A
C280   C287    1.394   .     A
C280   C282    1.411   .     A
C281   C283    1.428   .     A
C281   C350    1.410   .     S
C282   C285    1.428   .     A
C282   C349    1.410   1_455 S
C283   C300    1.420   .     A
C283   C295    1.423   .     A
C284   C297    1.438   .     S
C284   O332    1.294   .     A
C284   O335    1.300   .     A
C285   C294    1.423   .     A
C286   H310    1.085   .     S
C286   C362    1.394   .     S
C287   H311    1.085   .     S
C287   C363    1.394   1_455 S
C288   C300    1.479   .     S
C288   O340    1.221   .     D
C288   O322    1.398   .     S
C289   O323    1.221   .     D
C289   O324    1.398   .     S
C290   O326    1.398   .     S
C290   O325    1.224   .     D
C290   C24     1.497   1_565 S
C291   O328    1.398   .     S
C291   O327    1.224   .     D
C292   O330    1.396   .     S
C292   O329    1.223   .     D
C292   N725    1.413   .     S
C293   O331    1.223   .     D
C293   O333    1.396   .     S
C293   N1134   1.413   1_554 S
C294   N319    1.434   .     S
C294   C354    1.394   1_455 S
C295   N320    1.434   .     S
C295   C355    1.394   .     S
C297   C24     1.364   1_565 S
C297   C19     1.497   1_565 S
C298   O336    1.300   .     A
C298   O338    1.299   .     A
C299   O337    1.300   .     A
C299   O339    1.299   .     A
Cu301  O335    1.965   .     S
Cu301  Cu302   2.713   .     S
Cu301  N318    2.038   .     S
Cu301  O336    1.963   .     S
Cu301  O321    1.965   .     S
Cu301  O339    1.952   .     S
Cu302  O338    1.952   .     S
Cu302  O334    1.965   .     S
Cu302  O337    1.963   .     S
Cu302  N317    2.038   .     S
Cu302  O332    1.965   .     S
H305   O326    1.014   .     S
H306   O328    1.014   .     S
H307   O330    1.014   .     S
H308   O333    1.014   .     S
H312   O322    1.013   .     S
H313   O324    1.013   .     S
H314   N47     1.044   1_565 S
H315   N319    1.043   .     S
H316   N320    1.043   .     S
N317   C1108   1.413   1_554 S
N317   N1134   1.293   1_554 S
N318   N725    1.293   .     S
N318   C701    1.413   .     S
N320   H32     1.044   1_565 S
C341   O402    1.300   .     A
C341   O389    1.294   .     A
C341   C364    1.438   .     S
C342   C344    1.408   .     A
C342   C357    1.479   .     S
C342   C353    1.420   .     A
C343   C367    1.447   .     S
C343   C368    1.408   .     A
C343   C345    1.387   .     A
C344   C366    1.447   .     S
C344   C346    1.387   .     A
C345   C347    1.386   .     A
C345   H371    1.086   .     S
C346   H377    1.086   .     S
C346   C348    1.386   .     A
C347   C349    1.411   .     A
C347   C354    1.394   .     A
C348   C355    1.394   .     A
C348   C350    1.411   .     A
C349   C351    1.428   .     A
C349   C282    1.410   1_655 S
C350   C353    1.428   .     A
C351   C368    1.420   .     A
C351   C363    1.423   .     A
C352   C365    1.438   .     S
C352   O400    1.294   .     A
C352   O403    1.300   .     A
C353   C362    1.423   .     A
C354   H378    1.085   .     S
C354   C294    1.394   1_655 S
C355   H379    1.085   .     S
C356   C368    1.479   .     S
C356   O408    1.221   .     D
C356   O390    1.398   .     S
C357   O391    1.221   .     D
C357   O392    1.398   .     S
C358   O394    1.398   .     S
C358   O393    1.224   .     D
C358   C92     1.497   1_565 S
C359   O396    1.398   .     S
C359   O395    1.224   .     D
C360   O398    1.396   .     S
C360   O397    1.223   .     D
C360   N793    1.413   .     S
C361   O399    1.223   .     D
C361   O401    1.396   .     S
C361   N1202   1.413   1_554 S
C362   N387    1.434   .     S
C363   N388    1.434   .     S
C363   C287    1.394   1_655 S
C365   C92     1.364   1_565 S
C365   C87     1.497   1_565 S
C366   O404    1.300   .     A
C366   O406    1.299   .     A
C367   O405    1.300   .     A
C367   O407    1.299   .     A
Cu369  O403    1.965   .     S
Cu369  Cu370   2.713   .     S
Cu369  N386    2.038   .     S
Cu369  O404    1.963   .     S
Cu369  O389    1.965   .     S
Cu369  O407    1.952   .     S
Cu370  O406    1.952   .     S
Cu370  O402    1.965   .     S
Cu370  O405    1.963   .     S
Cu370  N385    2.038   .     S
Cu370  O400    1.965   .     S
H373   O394    1.014   .     S
H374   O396    1.014   .     S
H375   O398    1.014   .     S
H376   O401    1.014   .     S
H380   O390    1.013   .     S
H381   O392    1.013   .     S
H382   N115    1.044   1_565 S
H383   N387    1.043   .     S
H384   N388    1.043   .     S
N385   C1176   1.413   1_554 S
N385   N1202   1.293   1_554 S
N386   N793    1.293   .     S
N386   C769    1.413   .     S
N388   H100    1.044   1_565 S
C409   O470    1.300   .     A
C409   O457    1.294   .     A
C409   C432    1.438   .     S
C410   C412    1.408   .     A
C410   C425    1.479   .     S
C410   C421    1.420   .     A
C411   C435    1.447   .     S
C411   C436    1.408   .     A
C411   C413    1.387   .     A
C412   C434    1.447   .     S
C412   C414    1.387   .     A
C413   C415    1.386   .     A
C413   H439    1.086   .     S
C414   H445    1.086   .     S
C414   C416    1.386   .     A
C415   C417    1.411   .     A
C415   C422    1.394   .     A
C416   C423    1.394   .     A
C416   C418    1.411   .     A
C417   C419    1.428   .     A
C417   C486    1.410   .     S
C418   C421    1.428   .     A
C418   C485    1.410   1_455 S
C419   C436    1.420   .     A
C419   C431    1.423   .     A
C420   C433    1.438   .     S
C420   O468    1.294   .     A
C420   O471    1.300   .     A
C421   C430    1.423   .     A
C422   H446    1.085   .     S
C422   C498    1.394   .     S
C423   H447    1.085   .     S
C423   C499    1.394   1_455 S
C424   C436    1.479   .     S
C424   O476    1.221   .     D
C424   O458    1.398   .     S
C425   O459    1.221   .     D
C425   O460    1.398   .     S
C426   O462    1.398   .     S
C426   O461    1.224   .     D
C426   C568    1.497   .     S
C427   O464    1.398   .     S
C427   O463    1.224   .     D
C427   C705    1.497   1_545 S
C428   O466    1.396   .     S
C428   O465    1.223   .     D
C428   N861    1.413   .     S
C429   O467    1.223   .     D
C429   O469    1.396   .     S
C430   N455    1.434   .     S
C430   C490    1.394   1_455 S
C431   N456    1.434   .     S
C431   C491    1.394   .     S
C432   C698    1.497   1_545 S
C432   C705    1.364   1_545 S
C433   C568    1.364   .     S
C433   C563    1.497   .     S
C434   O472    1.300   .     A
C434   O474    1.299   .     A
C435   O473    1.300   .     A
C435   O475    1.299   .     A
Cu437  O471    1.965   .     S
Cu437  Cu438   2.713   .     S
Cu437  N454    2.038   .     S
Cu437  O472    1.963   .     S
Cu437  O457    1.965   .     S
Cu437  O475    1.952   .     S
Cu438  O474    1.952   .     S
Cu438  O470    1.965   .     S
Cu438  O473    1.963   .     S
Cu438  N453    2.038   .     S
Cu438  O468    1.965   .     S
H440   N728    1.044   1_545 S
H441   O462    1.014   .     S
H442   O464    1.014   .     S
H443   O466    1.014   .     S
H444   O469    1.014   .     S
H448   O458    1.013   .     S
H449   O460    1.013   .     S
H450   N591    1.044   .     S
H451   N455    1.043   .     S
H452   N456    1.043   .     S
N454   N861    1.293   .     S
N454   C837    1.413   .     S
N455   H722    1.044   1_545 S
N456   H576    1.044   .     S
C477   O538    1.300   .     A
C477   O525    1.294   .     A
C477   C500    1.438   .     S
C478   C480    1.408   .     A
C478   C493    1.479   .     S
C478   C489    1.420   .     A
C479   C503    1.447   .     S
C479   C504    1.408   .     A
C479   C481    1.387   .     A
C480   C502    1.447   .     S
C480   C482    1.387   .     A
C481   C483    1.386   .     A
C481   H507    1.086   .     S
C482   H513    1.086   .     S
C482   C484    1.386   .     A
C483   C485    1.411   .     A
C483   C490    1.394   .     A
C484   C491    1.394   .     A
C484   C486    1.411   .     A
C485   C487    1.428   .     A
C485   C418    1.410   1_655 S
C486   C489    1.428   .     A
C487   C504    1.420   .     A
C487   C499    1.423   .     A
C488   C501    1.438   .     S
C488   O536    1.294   .     A
C488   O539    1.300   .     A
C489   C498    1.423   .     A
C490   H514    1.085   .     S
C490   C430    1.394   1_655 S
C491   H515    1.085   .     S
C492   C504    1.479   .     S
C492   O544    1.221   .     D
C492   O526    1.398   .     S
C493   O527    1.221   .     D
C493   O528    1.398   .     S
C494   O530    1.398   .     S
C494   O529    1.224   .     D
C494   C636    1.497   .     S
C495   O532    1.398   .     S
C495   O531    1.224   .     D
C495   C773    1.497   1_545 S
C496   O534    1.396   .     S
C496   O533    1.223   .     D
C496   N929    1.413   .     S
C497   O535    1.223   .     D
C497   O537    1.396   .     S
C498   N523    1.434   .     S
C499   N524    1.434   .     S
C499   C423    1.394   1_655 S
C500   C766    1.497   1_545 S
C500   C773    1.364   1_545 S
C501   C636    1.364   .     S
C501   C631    1.497   .     S
C502   O540    1.300   .     A
C502   O542    1.299   .     A
C503   O541    1.300   .     A
C503   O543    1.299   .     A
Cu505  O539    1.965   .     S
Cu505  Cu506   2.713   .     S
Cu505  N522    2.038   .     S
Cu505  O540    1.963   .     S
Cu505  O525    1.965   .     S
Cu505  O543    1.952   .     S
Cu506  O542    1.952   .     S
Cu506  O538    1.965   .     S
Cu506  O541    1.963   .     S
Cu506  N521    2.038   .     S
Cu506  O536    1.965   .     S
H508   N796    1.044   1_545 S
H509   O530    1.014   .     S
H510   O532    1.014   .     S
H511   O534    1.014   .     S
H512   O537    1.014   .     S
H516   O526    1.013   .     S
H517   O528    1.013   .     S
H518   N659    1.044   .     S
H519   N523    1.043   .     S
H520   N524    1.043   .     S
N522   N929    1.293   .     S
N522   C905    1.413   .     S
N523   H790    1.044   1_545 S
N524   H644    1.044   .     S
C545   O606    1.300   .     A
C545   O593    1.294   .     A
C545   C568    1.438   .     S
C546   C548    1.408   .     A
C546   C561    1.479   .     S
C546   C557    1.420   .     A
C547   C571    1.447   .     S
C547   C572    1.408   .     A
C547   C549    1.387   .     A
C548   C570    1.447   .     S
C548   C550    1.387   .     A
C549   C551    1.386   .     A
C549   H575    1.086   .     S
C550   H581    1.086   .     S
C550   C552    1.386   .     A
C551   C553    1.411   .     A
C551   C558    1.394   .     A
C552   C559    1.394   .     A
C552   C554    1.411   .     A
C553   C555    1.428   .     A
C553   C622    1.410   .     S
C554   C557    1.428   .     A
C554   C621    1.410   1_455 S
C555   C572    1.420   .     A
C555   C567    1.423   .     A
C556   C569    1.438   .     S
C556   O604    1.294   .     A
C556   O607    1.300   .     A
C557   C566    1.423   .     A
C558   H582    1.085   .     S
C558   C634    1.394   .     S
C559   H583    1.085   .     S
C559   C635    1.394   1_455 S
C560   C572    1.479   .     S
C560   O612    1.221   .     D
C560   O594    1.398   .     S
C561   O595    1.221   .     D
C561   O596    1.398   .     S
C562   O598    1.398   .     S
C562   O597    1.224   .     D
C562   C704    1.497   .     S
C563   O600    1.398   .     S
C563   O599    1.224   .     D
C564   O602    1.396   .     S
C564   O601    1.223   .     D
C564   N997    1.413   .     S
C565   O603    1.223   .     D
C565   O605    1.396   .     S
C566   N591    1.434   .     S
C566   C626    1.394   1_455 S
C567   N592    1.434   .     S
C567   C627    1.394   .     S
C569   C704    1.364   .     S
C569   C699    1.497   .     S
C570   O608    1.300   .     A
C570   O610    1.299   .     A
C571   O609    1.300   .     A
C571   O611    1.299   .     A
Cu573  O607    1.965   .     S
Cu573  Cu574   2.713   .     S
Cu573  N590    2.038   .     S
Cu573  O608    1.963   .     S
Cu573  O593    1.965   .     S
Cu573  O611    1.952   .     S
Cu574  O610    1.952   .     S
Cu574  O606    1.965   .     S
Cu574  O609    1.963   .     S
Cu574  N589    2.038   .     S
Cu574  O604    1.965   .     S
H577   O598    1.014   .     S
H578   O600    1.014   .     S
H579   O602    1.014   .     S
H580   O605    1.014   .     S
H584   O594    1.013   .     S
H585   O596    1.013   .     S
H586   N727    1.044   .     S
H587   N591    1.043   .     S
H588   N592    1.043   .     S
N590   N997    1.293   .     S
N590   C973    1.413   .     S
N592   H712    1.044   .     S
C613   O674    1.300   .     A
C613   O661    1.294   .     A
C613   C636    1.438   .     S
C614   C616    1.408   .     A
C614   C629    1.479   .     S
C614   C625    1.420   .     A
C615   C639    1.447   .     S
C615   C640    1.408   .     A
C615   C617    1.387   .     A
C616   C638    1.447   .     S
C616   C618    1.387   .     A
C617   C619    1.386   .     A
C617   H643    1.086   .     S
C618   H649    1.086   .     S
C618   C620    1.386   .     A
C619   C621    1.411   .     A
C619   C626    1.394   .     A
C620   C627    1.394   .     A
C620   C622    1.411   .     A
C621   C623    1.428   .     A
C621   C554    1.410   1_655 S
C622   C625    1.428   .     A
C623   C640    1.420   .     A
C623   C635    1.423   .     A
C624   C637    1.438   .     S
C624   O672    1.294   .     A
C624   O675    1.300   .     A
C625   C634    1.423   .     A
C626   H650    1.085   .     S
C626   C566    1.394   1_655 S
C627   H651    1.085   .     S
C628   C640    1.479   .     S
C628   O680    1.221   .     D
C628   O662    1.398   .     S
C629   O663    1.221   .     D
C629   O664    1.398   .     S
C630   O666    1.398   .     S
C630   O665    1.224   .     D
C630   C772    1.497   .     S
C631   O668    1.398   .     S
C631   O667    1.224   .     D
C632   O670    1.396   .     S
C632   O669    1.223   .     D
C632   N1065   1.413   .     S
C633   O671    1.223   .     D
C633   O673    1.396   .     S
C634   N659    1.434   .     S
C635   N660    1.434   .     S
C635   C559    1.394   1_655 S
C637   C772    1.364   .     S
C637   C767    1.497   .     S
C638   O676    1.300   .     A
C638   O678    1.299   .     A
C639   O677    1.300   .     A
C639   O679    1.299   .     A
Cu641  O675    1.965   .     S
Cu641  Cu642   2.713   .     S
Cu641  N658    2.038   .     S
Cu641  O676    1.963   .     S
Cu641  O661    1.965   .     S
Cu641  O679    1.952   .     S
Cu642  O678    1.952   .     S
Cu642  O674    1.965   .     S
Cu642  O677    1.963   .     S
Cu642  N657    2.038   .     S
Cu642  O672    1.965   .     S
H645   O666    1.014   .     S
H646   O668    1.014   .     S
H647   O670    1.014   .     S
H648   O673    1.014   .     S
H652   O662    1.013   .     S
H653   O664    1.013   .     S
H654   N795    1.044   .     S
H655   N659    1.043   .     S
H656   N660    1.043   .     S
N658   N1065   1.293   .     S
N658   C1041   1.413   .     S
N660   H780    1.044   .     S
C681   O742    1.300   .     A
C681   O729    1.294   .     A
C681   C704    1.438   .     S
C682   C684    1.408   .     A
C682   C697    1.479   .     S
C682   C693    1.420   .     A
C683   C707    1.447   .     S
C683   C708    1.408   .     A
C683   C685    1.387   .     A
C684   C706    1.447   .     S
C684   C686    1.387   .     A
C685   C687    1.386   .     A
C685   H711    1.086   .     S
C686   H717    1.086   .     S
C686   C688    1.386   .     A
C687   C689    1.411   .     A
C687   C694    1.394   .     A
C688   C695    1.394   .     A
C688   C690    1.411   .     A
C689   C691    1.428   .     A
C689   C758    1.410   .     S
C690   C693    1.428   .     A
C690   C757    1.410   1_455 S
C691   C708    1.420   .     A
C691   C703    1.423   .     A
C692   C705    1.438   .     S
C692   O740    1.294   .     A
C692   O743    1.300   .     A
C693   C702    1.423   .     A
C694   H718    1.085   .     S
C694   C770    1.394   .     S
C695   H719    1.085   .     S
C695   C771    1.394   1_455 S
C696   C708    1.479   .     S
C696   O748    1.221   .     D
C696   O730    1.398   .     S
C697   O731    1.221   .     D
C697   O732    1.398   .     S
C698   O734    1.398   .     S
C698   O733    1.224   .     D
C698   C432    1.497   1_565 S
C699   O736    1.398   .     S
C699   O735    1.224   .     D
C700   O738    1.396   .     S
C700   O737    1.223   .     D
C700   N1133   1.413   .     S
C701   O739    1.223   .     D
C701   O741    1.396   .     S
C702   N727    1.434   .     S
C702   C762    1.394   1_455 S
C703   N728    1.434   .     S
C703   C763    1.394   .     S
C705   C432    1.364   1_565 S
C705   C427    1.497   1_565 S
C706   O744    1.300   .     A
C706   O746    1.299   .     A
C707   O745    1.300   .     A
C707   O747    1.299   .     A
Cu709  O743    1.965   .     S
Cu709  Cu710   2.713   .     S
Cu709  N726    2.038   .     S
Cu709  O744    1.963   .     S
Cu709  O729    1.965   .     S
Cu709  O747    1.952   .     S
Cu710  O746    1.952   .     S
Cu710  O742    1.965   .     S
Cu710  O745    1.963   .     S
Cu710  N725    2.038   .     S
Cu710  O740    1.965   .     S
H713   O734    1.014   .     S
H714   O736    1.014   .     S
H715   O738    1.014   .     S
H716   O741    1.014   .     S
H720   O730    1.013   .     S
H721   O732    1.013   .     S
H722   N455    1.044   1_565 S
H723   N727    1.043   .     S
H724   N728    1.043   .     S
N726   N1133   1.293   .     S
N726   C1109   1.413   .     S
N728   H440    1.044   1_565 S
C749   O810    1.300   .     A
C749   O797    1.294   .     A
C749   C772    1.438   .     S
C750   C752    1.408   .     A
C750   C765    1.479   .     S
C750   C761    1.420   .     A
C751   C775    1.447   .     S
C751   C776    1.408   .     A
C751   C753    1.387   .     A
C752   C774    1.447   .     S
C752   C754    1.387   .     A
C753   C755    1.386   .     A
C753   H779    1.086   .     S
C754   H785    1.086   .     S
C754   C756    1.386   .     A
C755   C757    1.411   .     A
C755   C762    1.394   .     A
C756   C763    1.394   .     A
C756   C758    1.411   .     A
C757   C759    1.428   .     A
C757   C690    1.410   1_655 S
C758   C761    1.428   .     A
C759   C776    1.420   .     A
C759   C771    1.423   .     A
C760   C773    1.438   .     S
C760   O808    1.294   .     A
C760   O811    1.300   .     A
C761   C770    1.423   .     A
C762   H786    1.085   .     S
C762   C702    1.394   1_655 S
C763   H787    1.085   .     S
C764   C776    1.479   .     S
C764   O816    1.221   .     D
C764   O798    1.398   .     S
C765   O799    1.221   .     D
C765   O800    1.398   .     S
C766   O802    1.398   .     S
C766   O801    1.224   .     D
C766   C500    1.497   1_565 S
C767   O804    1.398   .     S
C767   O803    1.224   .     D
C768   O806    1.396   .     S
C768   O805    1.223   .     D
C768   N1201   1.413   .     S
C769   O807    1.223   .     D
C769   O809    1.396   .     S
C770   N795    1.434   .     S
C771   N796    1.434   .     S
C771   C695    1.394   1_655 S
C773   C500    1.364   1_565 S
C773   C495    1.497   1_565 S
C774   O812    1.300   .     A
C774   O814    1.299   .     A
C775   O813    1.300   .     A
C775   O815    1.299   .     A
Cu777  O811    1.965   .     S
Cu777  Cu778   2.713   .     S
Cu777  N794    2.038   .     S
Cu777  O812    1.963   .     S
Cu777  O797    1.965   .     S
Cu777  O815    1.952   .     S
Cu778  O814    1.952   .     S
Cu778  O810    1.965   .     S
Cu778  O813    1.963   .     S
Cu778  N793    2.038   .     S
Cu778  O808    1.965   .     S
H781   O802    1.014   .     S
H782   O804    1.014   .     S
H783   O806    1.014   .     S
H784   O809    1.014   .     S
H788   O798    1.013   .     S
H789   O800    1.013   .     S
H790   N523    1.044   1_565 S
H791   N795    1.043   .     S
H792   N796    1.043   .     S
N794   N1201   1.293   .     S
N794   C1177   1.413   .     S
N796   H508    1.044   1_565 S
C817   O878    1.300   .     A
C817   O865    1.294   .     A
C817   C840    1.438   .     S
C818   C820    1.408   .     A
C818   C833    1.479   .     S
C818   C829    1.420   .     A
C819   C843    1.447   .     S
C819   C844    1.408   .     A
C819   C821    1.387   .     A
C820   C842    1.447   .     S
C820   C822    1.387   .     A
C821   C823    1.386   .     A
C821   H847    1.086   .     S
C822   H853    1.086   .     S
C822   C824    1.386   .     A
C823   C825    1.411   .     A
C823   C830    1.394   .     A
C824   C831    1.394   .     A
C824   C826    1.411   .     A
C825   C827    1.428   .     A
C825   C894    1.410   .     S
C826   C829    1.428   .     A
C826   C893    1.410   1_455 S
C827   C844    1.420   .     A
C827   C839    1.423   .     A
C828   C841    1.438   .     S
C828   O876    1.294   .     A
C828   O879    1.300   .     A
C829   C838    1.423   .     A
C830   H854    1.085   .     S
C830   C906    1.394   .     S
C831   H855    1.085   .     S
C831   C907    1.394   1_455 S
C832   C844    1.479   .     S
C832   O884    1.221   .     D
C832   O866    1.398   .     S
C833   O867    1.221   .     D
C833   O868    1.398   .     S
C834   O870    1.398   .     S
C834   O869    1.224   .     D
C834   C976    1.497   .     S
C835   O872    1.398   .     S
C835   O871    1.224   .     D
C835   C1113   1.497   1_545 S
C836   O874    1.396   .     S
C836   O873    1.223   .     D
C836   N45     1.413   1_556 S
C837   O875    1.223   .     D
C837   O877    1.396   .     S
C838   N863    1.434   .     S
C838   C898    1.394   1_455 S
C839   N864    1.434   .     S
C839   C899    1.394   .     S
C840   C1106   1.497   1_545 S
C840   C1113   1.364   1_545 S
C841   C976    1.364   .     S
C841   C971    1.497   .     S
C842   O880    1.300   .     A
C842   O882    1.299   .     A
C843   O881    1.300   .     A
C843   O883    1.299   .     A
Cu845  O879    1.965   .     S
Cu845  Cu846   2.713   .     S
Cu845  N862    2.038   .     S
Cu845  O880    1.963   .     S
Cu845  O865    1.965   .     S
Cu845  O883    1.952   .     S
Cu846  O882    1.952   .     S
Cu846  O878    1.965   .     S
Cu846  O881    1.963   .     S
Cu846  N861    2.038   .     S
Cu846  O876    1.965   .     S
H848   N1136   1.044   1_545 S
H849   O870    1.014   .     S
H850   O872    1.014   .     S
H851   O874    1.014   .     S
H852   O877    1.014   .     S
H856   O866    1.013   .     S
H857   O868    1.013   .     S
H858   N999    1.044   .     S
H859   N863    1.043   .     S
H860   N864    1.043   .     S
N862   N45     1.293   1_556 S
N862   C21     1.413   1_556 S
N863   H1130   1.044   1_545 S
N864   H984    1.044   .     S
C885   O946    1.300   .     A
C885   O933    1.294   .     A
C885   C908    1.438   .     S
C886   C888    1.408   .     A
C886   C901    1.479   .     S
C886   C897    1.420   .     A
C887   C911    1.447   .     S
C887   C912    1.408   .     A
C887   C889    1.387   .     A
C888   C910    1.447   .     S
C888   C890    1.387   .     A
C889   C891    1.386   .     A
C889   H915    1.086   .     S
C890   H921    1.086   .     S
C890   C892    1.386   .     A
C891   C893    1.411   .     A
C891   C898    1.394   .     A
C892   C899    1.394   .     A
C892   C894    1.411   .     A
C893   C895    1.428   .     A
C893   C826    1.410   1_655 S
C894   C897    1.428   .     A
C895   C912    1.420   .     A
C895   C907    1.423   .     A
C896   C909    1.438   .     S
C896   O944    1.294   .     A
C896   O947    1.300   .     A
C897   C906    1.423   .     A
C898   H922    1.085   .     S
C898   C838    1.394   1_655 S
C899   H923    1.085   .     S
C900   C912    1.479   .     S
C900   O952    1.221   .     D
C900   O934    1.398   .     S
C901   O935    1.221   .     D
C901   O936    1.398   .     S
C902   O938    1.398   .     S
C902   O937    1.224   .     D
C902   C1044   1.497   .     S
C903   O940    1.398   .     S
C903   O939    1.224   .     D
C903   C1181   1.497   1_545 S
C904   O942    1.396   .     S
C904   O941    1.223   .     D
C904   N113    1.413   1_556 S
C905   O943    1.223   .     D
C905   O945    1.396   .     S
C906   N931    1.434   .     S
C907   N932    1.434   .     S
C907   C831    1.394   1_655 S
C908   C1174   1.497   1_545 S
C908   C1181   1.364   1_545 S
C909   C1044   1.364   .     S
C909   C1039   1.497   .     S
C910   O948    1.300   .     A
C910   O950    1.299   .     A
C911   O949    1.300   .     A
C911   O951    1.299   .     A
Cu913  O947    1.965   .     S
Cu913  Cu914   2.713   .     S
Cu913  N930    2.038   .     S
Cu913  O948    1.963   .     S
Cu913  O933    1.965   .     S
Cu913  O951    1.952   .     S
Cu914  O950    1.952   .     S
Cu914  O946    1.965   .     S
Cu914  O949    1.963   .     S
Cu914  N929    2.038   .     S
Cu914  O944    1.965   .     S
H916   N1204   1.044   1_545 S
H917   O938    1.014   .     S
H918   O940    1.014   .     S
H919   O942    1.014   .     S
H920   O945    1.014   .     S
H924   O934    1.013   .     S
H925   O936    1.013   .     S
H926   N1067   1.044   .     S
H927   N931    1.043   .     S
H928   N932    1.043   .     S
N930   N113    1.293   1_556 S
N930   C89     1.413   1_556 S
N931   H1198   1.044   1_545 S
N932   H1052   1.044   .     S
C953   O1014   1.300   .     A
C953   O1001   1.294   .     A
C953   C976    1.438   .     S
C954   C956    1.408   .     A
C954   C969    1.479   .     S
C954   C965    1.420   .     A
C955   C979    1.447   .     S
C955   C980    1.408   .     A
C955   C957    1.387   .     A
C956   C978    1.447   .     S
C956   C958    1.387   .     A
C957   C959    1.386   .     A
C957   H983    1.086   .     S
C958   H989    1.086   .     S
C958   C960    1.386   .     A
C959   C961    1.411   .     A
C959   C966    1.394   .     A
C960   C967    1.394   .     A
C960   C962    1.411   .     A
C961   C963    1.428   .     A
C961   C1030   1.410   .     S
C962   C965    1.428   .     A
C962   C1029   1.410   1_455 S
C963   C980    1.420   .     A
C963   C975    1.423   .     A
C964   C977    1.438   .     S
C964   O1012   1.294   .     A
C964   O1015   1.300   .     A
C965   C974    1.423   .     A
C966   H990    1.085   .     S
C966   C1042   1.394   .     S
C967   H991    1.085   .     S
C967   C1043   1.394   1_455 S
C968   C980    1.479   .     S
C968   O1020   1.221   .     D
C968   O1002   1.398   .     S
C969   O1003   1.221   .     D
C969   O1004   1.398   .     S
C970   O1006   1.398   .     S
C970   O1005   1.224   .     D
C970   C1112   1.497   .     S
C971   O1008   1.398   .     S
C971   O1007   1.224   .     D
C972   O1010   1.396   .     S
C972   O1009   1.223   .     D
C972   N181    1.413   1_556 S
C973   O1011   1.223   .     D
C973   O1013   1.396   .     S
C974   N999    1.434   .     S
C974   C1034   1.394   1_455 S
C975   N1000   1.434   .     S
C975   C1035   1.394   .     S
C977   C1112   1.364   .     S
C977   C1107   1.497   .     S
C978   O1016   1.300   .     A
C978   O1018   1.299   .     A
C979   O1017   1.300   .     A
C979   O1019   1.299   .     A
Cu981  O1015   1.965   .     S
Cu981  Cu982   2.713   .     S
Cu981  N998    2.038   .     S
Cu981  O1016   1.963   .     S
Cu981  O1001   1.965   .     S
Cu981  O1019   1.952   .     S
Cu982  O1018   1.952   .     S
Cu982  O1014   1.965   .     S
Cu982  O1017   1.963   .     S
Cu982  N997    2.038   .     S
Cu982  O1012   1.965   .     S
H985   O1006   1.014   .     S
H986   O1008   1.014   .     S
H987   O1010   1.014   .     S
H988   O1013   1.014   .     S
H992   O1002   1.013   .     S
H993   O1004   1.013   .     S
H994   N1135   1.044   .     S
H995   N999    1.043   .     S
H996   N1000   1.043   .     S
N998   N181    1.293   1_556 S
N998   C157    1.413   1_556 S
N1000  H1120   1.044   .     S
C1021  O1082   1.300   .     A
C1021  O1069   1.294   .     A
C1021  C1044   1.438   .     S
C1022  C1024   1.408   .     A
C1022  C1037   1.479   .     S
C1022  C1033   1.420   .     A
C1023  C1047   1.447   .     S
C1023  C1048   1.408   .     A
C1023  C1025   1.387   .     A
C1024  C1046   1.447   .     S
C1024  C1026   1.387   .     A
C1025  C1027   1.386   .     A
C1025  H1051   1.086   .     S
C1026  H1057   1.086   .     S
C1026  C1028   1.386   .     A
C1027  C1029   1.411   .     A
C1027  C1034   1.394   .     A
C1028  C1035   1.394   .     A
C1028  C1030   1.411   .     A
C1029  C1031   1.428   .     A
C1029  C962    1.410   1_655 S
C1030  C1033   1.428   .     A
C1031  C1048   1.420   .     A
C1031  C1043   1.423   .     A
C1032  C1045   1.438   .     S
C1032  O1080   1.294   .     A
C1032  O1083   1.300   .     A
C1033  C1042   1.423   .     A
C1034  H1058   1.085   .     S
C1034  C974    1.394   1_655 S
C1035  H1059   1.085   .     S
C1036  C1048   1.479   .     S
C1036  O1088   1.221   .     D
C1036  O1070   1.398   .     S
C1037  O1071   1.221   .     D
C1037  O1072   1.398   .     S
C1038  O1074   1.398   .     S
C1038  O1073   1.224   .     D
C1038  C1180   1.497   .     S
C1039  O1076   1.398   .     S
C1039  O1075   1.224   .     D
C1040  O1078   1.396   .     S
C1040  O1077   1.223   .     D
C1040  N249    1.413   1_556 S
C1041  O1079   1.223   .     D
C1041  O1081   1.396   .     S
C1042  N1067   1.434   .     S
C1043  N1068   1.434   .     S
C1043  C967    1.394   1_655 S
C1045  C1180   1.364   .     S
C1045  C1175   1.497   .     S
C1046  O1084   1.300   .     A
C1046  O1086   1.299   .     A
C1047  O1085   1.300   .     A
C1047  O1087   1.299   .     A
Cu1049 O1083   1.965   .     S
Cu1049 Cu1050  2.713   .     S
Cu1049 N1066   2.038   .     S
Cu1049 O1084   1.963   .     S
Cu1049 O1069   1.965   .     S
Cu1049 O1087   1.952   .     S
Cu1050 O1086   1.952   .     S
Cu1050 O1082   1.965   .     S
Cu1050 O1085   1.963   .     S
Cu1050 N1065   2.038   .     S
Cu1050 O1080   1.965   .     S
H1053  O1074   1.014   .     S
H1054  O1076   1.014   .     S
H1055  O1078   1.014   .     S
H1056  O1081   1.014   .     S
H1060  O1070   1.013   .     S
H1061  O1072   1.013   .     S
H1062  N1203   1.044   .     S
H1063  N1067   1.043   .     S
H1064  N1068   1.043   .     S
N1066  N249    1.293   1_556 S
N1066  C225    1.413   1_556 S
N1068  H1188   1.044   .     S
C1089  O1150   1.300   .     A
C1089  O1137   1.294   .     A
C1089  C1112   1.438   .     S
C1090  C1092   1.408   .     A
C1090  C1105   1.479   .     S
C1090  C1101   1.420   .     A
C1091  C1115   1.447   .     S
C1091  C1116   1.408   .     A
C1091  C1093   1.387   .     A
C1092  C1114   1.447   .     S
C1092  C1094   1.387   .     A
C1093  C1095   1.386   .     A
C1093  H1119   1.086   .     S
C1094  H1125   1.086   .     S
C1094  C1096   1.386   .     A
C1095  C1097   1.411   .     A
C1095  C1102   1.394   .     A
C1096  C1103   1.394   .     A
C1096  C1098   1.411   .     A
C1097  C1099   1.428   .     A
C1097  C1166   1.410   .     S
C1098  C1101   1.428   .     A
C1098  C1165   1.410   1_455 S
C1099  C1116   1.420   .     A
C1099  C1111   1.423   .     A
C1100  C1113   1.438   .     S
C1100  O1148   1.294   .     A
C1100  O1151   1.300   .     A
C1101  C1110   1.423   .     A
C1102  H1126   1.085   .     S
C1102  C1178   1.394   .     S
C1103  H1127   1.085   .     S
C1103  C1179   1.394   1_455 S
C1104  C1116   1.479   .     S
C1104  O1156   1.221   .     D
C1104  O1138   1.398   .     S
C1105  O1139   1.221   .     D
C1105  O1140   1.398   .     S
C1106  O1142   1.398   .     S
C1106  O1141   1.224   .     D
C1106  C840    1.497   1_565 S
C1107  O1144   1.398   .     S
C1107  O1143   1.224   .     D
C1108  O1146   1.396   .     S
C1108  O1145   1.223   .     D
C1108  N317    1.413   1_556 S
C1109  O1147   1.223   .     D
C1109  O1149   1.396   .     S
C1110  N1135   1.434   .     S
C1110  C1170   1.394   1_455 S
C1111  N1136   1.434   .     S
C1111  C1171   1.394   .     S
C1113  C840    1.364   1_565 S
C1113  C835    1.497   1_565 S
C1114  O1152   1.300   .     A
C1114  O1154   1.299   .     A
C1115  O1153   1.300   .     A
C1115  O1155   1.299   .     A
Cu1117 O1151   1.965   .     S
Cu1117 Cu1118  2.713   .     S
Cu1117 N1134   2.038   .     S
Cu1117 O1152   1.963   .     S
Cu1117 O1137   1.965   .     S
Cu1117 O1155   1.952   .     S
Cu1118 O1154   1.952   .     S
Cu1118 O1150   1.965   .     S
Cu1118 O1153   1.963   .     S
Cu1118 N1133   2.038   .     S
Cu1118 O1148   1.965   .     S
H1121  O1142   1.014   .     S
H1122  O1144   1.014   .     S
H1123  O1146   1.014   .     S
H1124  O1149   1.014   .     S
H1128  O1138   1.013   .     S
H1129  O1140   1.013   .     S
H1130  N863    1.044   1_565 S
H1131  N1135   1.043   .     S
H1132  N1136   1.043   .     S
N1134  N317    1.293   1_556 S
N1134  C293    1.413   1_556 S
N1136  H848    1.044   1_565 S
C1157  O1218   1.300   .     A
C1157  O1205   1.294   .     A
C1157  C1180   1.438   .     S
C1158  C1160   1.408   .     A
C1158  C1173   1.479   .     S
C1158  C1169   1.420   .     A
C1159  C1183   1.447   .     S
C1159  C1184   1.408   .     A
C1159  C1161   1.387   .     A
C1160  C1182   1.447   .     S
C1160  C1162   1.387   .     A
C1161  C1163   1.386   .     A
C1161  H1187   1.086   .     S
C1162  H1193   1.086   .     S
C1162  C1164   1.386   .     A
C1163  C1165   1.411   .     A
C1163  C1170   1.394   .     A
C1164  C1171   1.394   .     A
C1164  C1166   1.411   .     A
C1165  C1167   1.428   .     A
C1165  C1098   1.410   1_655 S
C1166  C1169   1.428   .     A
C1167  C1184   1.420   .     A
C1167  C1179   1.423   .     A
C1168  C1181   1.438   .     S
C1168  O1216   1.294   .     A
C1168  O1219   1.300   .     A
C1169  C1178   1.423   .     A
C1170  H1194   1.085   .     S
C1170  C1110   1.394   1_655 S
C1171  H1195   1.085   .     S
C1172  C1184   1.479   .     S
C1172  O1224   1.221   .     D
C1172  O1206   1.398   .     S
C1173  O1207   1.221   .     D
C1173  O1208   1.398   .     S
C1174  O1210   1.398   .     S
C1174  O1209   1.224   .     D
C1174  C908    1.497   1_565 S
C1175  O1212   1.398   .     S
C1175  O1211   1.224   .     D
C1176  O1214   1.396   .     S
C1176  O1213   1.223   .     D
C1176  N385    1.413   1_556 S
C1177  O1215   1.223   .     D
C1177  O1217   1.396   .     S
C1178  N1203   1.434   .     S
C1179  N1204   1.434   .     S
C1179  C1103   1.394   1_655 S
C1181  C908    1.364   1_565 S
C1181  C903    1.497   1_565 S
C1182  O1220   1.300   .     A
C1182  O1222   1.299   .     A
C1183  O1221   1.300   .     A
C1183  O1223   1.299   .     A
Cu1185 O1219   1.965   .     S
Cu1185 Cu1186  2.713   .     S
Cu1185 N1202   2.038   .     S
Cu1185 O1220   1.963   .     S
Cu1185 O1205   1.965   .     S
Cu1185 O1223   1.952   .     S
Cu1186 O1222   1.952   .     S
Cu1186 O1218   1.965   .     S
Cu1186 O1221   1.963   .     S
Cu1186 N1201   2.038   .     S
Cu1186 O1216   1.965   .     S
H1189  O1210   1.014   .     S
H1190  O1212   1.014   .     S
H1191  O1214   1.014   .     S
H1192  O1217   1.014   .     S
H1196  O1206   1.013   .     S
H1197  O1208   1.013   .     S
H1198  N931    1.044   1_565 S
H1199  N1203   1.043   .     S
H1200  N1204   1.043   .     S
N1202  N385    1.293   1_556 S
N1202  C361    1.413   1_556 S
N1204  H916    1.044   1_565 S
