data_str_m3_o1_o16_pcu_sym.82
_audit_creation_date              2020-01-03
_audit_creation_method            'Materials Studio'
_symmetry_space_group_name_H-M    'P1'
_symmetry_Int_Tables_number       1
_symmetry_cell_setting            triclinic
loop_
_symmetry_equiv_pos_as_xyz
  x,y,z
_cell_length_a                    29.6062
_cell_length_b                    32.2413
_cell_length_c                    26.1377
_cell_angle_alpha                 90.3453
_cell_angle_beta                  71.5645
_cell_angle_gamma                 90.3282
loop_
_atom_site_label
_atom_site_type_symbol
_atom_site_fract_x
_atom_site_fract_y
_atom_site_fract_z
_atom_site_U_iso_or_equiv
_atom_site_adp_type
_atom_site_occupancy
O1     O     0.12846   0.22775   0.25001   0.00000  Uiso   1.00
O2     O     0.20490   0.22774   0.25001   0.00000  Uiso   1.00
C3     C     0.16683   0.24676   0.25065   0.00000  Uiso   1.00
O4     O     0.10947   0.16666   0.32681   0.00000  Uiso   1.00
O5     O     0.18591   0.16665   0.32681   0.00000  Uiso   1.00
C6     C     0.14073   0.16835   0.35194   0.00000  Uiso   1.00
Zn7    Zn    0.11562   0.16667   0.25000   0.00000  Uiso   1.00
Zn8    Zn    0.21771   0.16666   0.25000   0.00000  Uiso   1.00
O9     O     0.12843   0.10559   0.25000   0.00000  Uiso   1.00
O10    O     0.20488   0.10558   0.25000   0.00000  Uiso   1.00
O11    O     0.14742   0.16668   0.17319   0.00000  Uiso   1.00
O12    O     0.22387   0.16667   0.17319   0.00000  Uiso   1.00
C13    C     0.16641   0.08673   0.25045   0.00000  Uiso   1.00
C14    C     0.19221   0.17348   0.14936   0.00000  Uiso   1.00
C15    C     0.26020   0.21412   0.00923   0.00000  Uiso   1.00
H16    H     0.26282   0.23745   0.40937   0.00000  Uiso   1.00
H17    H     0.29507   0.22523   0.48533   0.00000  Uiso   1.00
C18    C     0.20523   0.19053   0.09445   0.00000  Uiso   1.00
C19    C     0.08536   0.14713   0.43955   0.00000  Uiso   1.00
C20    C     0.07643   0.13973   0.49415   0.00000  Uiso   1.00
C21    C     0.10677   0.15597   0.02045   0.00000  Uiso   1.00
C22    C     0.14546   0.18179   0.49290   0.00000  Uiso   1.00
C23    C     0.15466   0.18945   0.43756   0.00000  Uiso   1.00
C24    C     0.17816   0.19676   0.01785   0.00000  Uiso   1.00
C25    C     0.22350   0.21073   0.48620   0.00000  Uiso   1.00
C26    C     0.23025   0.22226   0.43304   0.00000  Uiso   1.00
C27    C     0.19435   0.21451   0.41032   0.00000  Uiso   1.00
C28    C     0.16764   0.19795   0.07353   0.00000  Uiso   1.00
C29    C     0.25210   0.20189   0.06298   0.00000  Uiso   1.00
C30    C     0.12534   0.17039   0.41062   0.00000  Uiso   1.00
H31    H     0.06287   0.13231   0.41916   0.00000  Uiso   1.00
H32    H     0.10033   0.14753   0.06217   0.00000  Uiso   1.00
H33    H     0.04678   0.12018   0.01582   0.00000  Uiso   1.00
H34    H     0.19906   0.22660   0.37053   0.00000  Uiso   1.00
C35    C     0.20454   0.31331   0.26281   0.00000  Uiso   1.00
C36    C     0.20316   0.02248   0.26319   0.00000  Uiso   1.00
H37    H     0.23159   0.03953   0.27186   0.00000  Uiso   1.00
C38    C     0.16600   0.04275   0.25188   0.00000  Uiso   1.00
C39    C     0.12903   0.02094   0.24156   0.00000  Uiso   1.00
H40    H     0.09991   0.03654   0.23308   0.00000  Uiso   1.00
C41    C     0.12981   0.31181   0.24129   0.00000  Uiso   1.00
H42    H     0.10112   0.29537   0.23251   0.00000  Uiso   1.00
C43    C     0.16748   0.29108   0.25148   0.00000  Uiso   1.00
C44    C     0.31860   0.14113   0.21583   0.00000  Uiso   1.00
C45    C     0.03339   0.14104   0.21590   0.00000  Uiso   1.00
N46    N     0.04760   0.16668   0.25002   0.00000  Uiso   1.00
C47    C     0.01445   0.19240   0.28380   0.00000  Uiso   1.00
C48    C     0.30009   0.19237   0.28341   0.00000  Uiso   1.00
H49    H     0.27463   0.21302   0.30995   0.00000  Uiso   1.00
N50    N     0.28573   0.16665   0.25001   0.00000  Uiso   1.00
N51    N     0.28995   0.20592   0.08599   0.00000  Uiso   1.00
O52    O     0.28334   0.22759   0.12990   0.00000  Uiso   1.00
O53    O     0.33329   0.19716   0.05689   0.00000  Uiso   1.00
C54    C     0.30410   0.11445   0.17927   0.00000  Uiso   1.00
N55    N     0.29275   0.09299   0.14980   0.00000  Uiso   1.00
C56    C     0.06756   0.11380   0.17982   0.00000  Uiso   1.00
N57    N     0.09472   0.09187   0.15065   0.00000  Uiso   1.00
N58    N     0.02749   0.21948   0.32017   0.00000  Uiso   1.00
O59    O     0.02430   0.20607   0.36800   0.00000  Uiso   1.00
O60    O     0.02817   0.25927   0.31209   0.00000  Uiso   1.00
N61    N     0.12488   0.21895   0.10614   0.00000  Uiso   1.00
O62    O     0.08895   0.22448   0.08840   0.00000  Uiso   1.00
O63    O     0.12701   0.24230   0.14608   0.00000  Uiso   1.00
N64    N     0.24376   0.29375   0.27382   0.00000  Uiso   1.00
O65    O     0.24872   0.29816   0.32126   0.00000  Uiso   1.00
O66    O     0.28009   0.28173   0.23371   0.00000  Uiso   1.00
O67    O     0.46179   0.22775   0.25001   0.00000  Uiso   1.00
O68    O     0.53823   0.22774   0.25001   0.00000  Uiso   1.00
C69    C     0.50016   0.24676   0.25065   0.00000  Uiso   1.00
O70    O     0.44280   0.16666   0.32681   0.00000  Uiso   1.00
O71    O     0.51924   0.16665   0.32681   0.00000  Uiso   1.00
C72    C     0.47406   0.16835   0.35194   0.00000  Uiso   1.00
Zn73   Zn    0.44896   0.16667   0.25000   0.00000  Uiso   1.00
Zn74   Zn    0.55104   0.16666   0.25000   0.00000  Uiso   1.00
O75    O     0.46177   0.10559   0.25000   0.00000  Uiso   1.00
O76    O     0.53821   0.10558   0.25000   0.00000  Uiso   1.00
O77    O     0.48076   0.16668   0.17319   0.00000  Uiso   1.00
O78    O     0.55720   0.16667   0.17319   0.00000  Uiso   1.00
C79    C     0.49974   0.08673   0.25045   0.00000  Uiso   1.00
C80    C     0.52554   0.17348   0.14936   0.00000  Uiso   1.00
C81    C     0.59353   0.21412   0.00923   0.00000  Uiso   1.00
H82    H     0.59616   0.23745   0.40937   0.00000  Uiso   1.00
H83    H     0.62840   0.22523   0.48533   0.00000  Uiso   1.00
C84    C     0.53856   0.19053   0.09445   0.00000  Uiso   1.00
C85    C     0.41869   0.14713   0.43955   0.00000  Uiso   1.00
C86    C     0.40977   0.13973   0.49415   0.00000  Uiso   1.00
C87    C     0.44010   0.15597   0.02045   0.00000  Uiso   1.00
C88    C     0.47880   0.18179   0.49290   0.00000  Uiso   1.00
C89    C     0.48800   0.18945   0.43756   0.00000  Uiso   1.00
C90    C     0.51149   0.19676   0.01785   0.00000  Uiso   1.00
C91    C     0.55683   0.21073   0.48620   0.00000  Uiso   1.00
C92    C     0.56358   0.22226   0.43304   0.00000  Uiso   1.00
C93    C     0.52768   0.21451   0.41032   0.00000  Uiso   1.00
C94    C     0.50098   0.19795   0.07353   0.00000  Uiso   1.00
C95    C     0.58543   0.20189   0.06298   0.00000  Uiso   1.00
C96    C     0.45868   0.17039   0.41062   0.00000  Uiso   1.00
H97    H     0.39620   0.13231   0.41916   0.00000  Uiso   1.00
H98    H     0.43367   0.14753   0.06217   0.00000  Uiso   1.00
H99    H     0.38011   0.12018   0.01582   0.00000  Uiso   1.00
H100   H     0.53239   0.22660   0.37053   0.00000  Uiso   1.00
C101   C     0.53787   0.31331   0.26281   0.00000  Uiso   1.00
C102   C     0.53649   0.02248   0.26319   0.00000  Uiso   1.00
H103   H     0.56493   0.03953   0.27186   0.00000  Uiso   1.00
C104   C     0.49933   0.04275   0.25188   0.00000  Uiso   1.00
C105   C     0.46237   0.02094   0.24156   0.00000  Uiso   1.00
H106   H     0.43324   0.03654   0.23308   0.00000  Uiso   1.00
C107   C     0.46315   0.31181   0.24129   0.00000  Uiso   1.00
H108   H     0.43445   0.29537   0.23251   0.00000  Uiso   1.00
C109   C     0.50081   0.29108   0.25148   0.00000  Uiso   1.00
C110   C     0.65193   0.14113   0.21583   0.00000  Uiso   1.00
C111   C     0.36672   0.14104   0.21590   0.00000  Uiso   1.00
N112   N     0.38093   0.16668   0.25002   0.00000  Uiso   1.00
C113   C     0.34779   0.19240   0.28380   0.00000  Uiso   1.00
C114   C     0.63342   0.19237   0.28341   0.00000  Uiso   1.00
H115   H     0.60796   0.21302   0.30995   0.00000  Uiso   1.00
N116   N     0.61906   0.16665   0.25001   0.00000  Uiso   1.00
N117   N     0.62329   0.20592   0.08599   0.00000  Uiso   1.00
O118   O     0.61668   0.22759   0.12990   0.00000  Uiso   1.00
O119   O     0.66662   0.19716   0.05689   0.00000  Uiso   1.00
C120   C     0.63743   0.11445   0.17927   0.00000  Uiso   1.00
N121   N     0.62609   0.09299   0.14980   0.00000  Uiso   1.00
C122   C     0.40089   0.11380   0.17982   0.00000  Uiso   1.00
N123   N     0.42805   0.09187   0.15065   0.00000  Uiso   1.00
N124   N     0.36082   0.21948   0.32017   0.00000  Uiso   1.00
O125   O     0.35763   0.20607   0.36800   0.00000  Uiso   1.00
O126   O     0.36151   0.25927   0.31209   0.00000  Uiso   1.00
N127   N     0.45822   0.21895   0.10614   0.00000  Uiso   1.00
O128   O     0.42228   0.22448   0.08840   0.00000  Uiso   1.00
O129   O     0.46034   0.24230   0.14608   0.00000  Uiso   1.00
N130   N     0.57710   0.29375   0.27382   0.00000  Uiso   1.00
O131   O     0.58205   0.29816   0.32126   0.00000  Uiso   1.00
O132   O     0.61342   0.28173   0.23371   0.00000  Uiso   1.00
O133   O     0.79512   0.22775   0.25001   0.00000  Uiso   1.00
O134   O     0.87157   0.22774   0.25001   0.00000  Uiso   1.00
C135   C     0.83350   0.24676   0.25065   0.00000  Uiso   1.00
O136   O     0.77613   0.16666   0.32681   0.00000  Uiso   1.00
O137   O     0.85258   0.16665   0.32681   0.00000  Uiso   1.00
C138   C     0.80740   0.16835   0.35194   0.00000  Uiso   1.00
Zn139  Zn    0.78229   0.16667   0.25000   0.00000  Uiso   1.00
Zn140  Zn    0.88438   0.16666   0.25000   0.00000  Uiso   1.00
O141   O     0.79510   0.10559   0.25000   0.00000  Uiso   1.00
O142   O     0.87154   0.10558   0.25000   0.00000  Uiso   1.00
O143   O     0.81409   0.16668   0.17319   0.00000  Uiso   1.00
O144   O     0.89053   0.16667   0.17319   0.00000  Uiso   1.00
C145   C     0.83307   0.08673   0.25045   0.00000  Uiso   1.00
C146   C     0.85887   0.17348   0.14936   0.00000  Uiso   1.00
C147   C     0.92687   0.21412   0.00923   0.00000  Uiso   1.00
H148   H     0.92949   0.23745   0.40937   0.00000  Uiso   1.00
H149   H     0.96174   0.22523   0.48533   0.00000  Uiso   1.00
C150   C     0.87189   0.19053   0.09445   0.00000  Uiso   1.00
C151   C     0.75203   0.14713   0.43955   0.00000  Uiso   1.00
C152   C     0.74310   0.13973   0.49415   0.00000  Uiso   1.00
C153   C     0.77344   0.15597   0.02045   0.00000  Uiso   1.00
C154   C     0.81213   0.18179   0.49290   0.00000  Uiso   1.00
C155   C     0.82133   0.18945   0.43756   0.00000  Uiso   1.00
C156   C     0.84482   0.19676   0.01785   0.00000  Uiso   1.00
C157   C     0.89017   0.21073   0.48620   0.00000  Uiso   1.00
C158   C     0.89692   0.22226   0.43304   0.00000  Uiso   1.00
C159   C     0.86102   0.21451   0.41032   0.00000  Uiso   1.00
C160   C     0.83431   0.19795   0.07353   0.00000  Uiso   1.00
C161   C     0.91877   0.20189   0.06298   0.00000  Uiso   1.00
C162   C     0.79201   0.17039   0.41062   0.00000  Uiso   1.00
H163   H     0.72953   0.13231   0.41916   0.00000  Uiso   1.00
H164   H     0.76700   0.14753   0.06217   0.00000  Uiso   1.00
H165   H     0.71344   0.12018   0.01582   0.00000  Uiso   1.00
H166   H     0.86573   0.22660   0.37053   0.00000  Uiso   1.00
C167   C     0.87121   0.31331   0.26281   0.00000  Uiso   1.00
C168   C     0.86982   0.02248   0.26319   0.00000  Uiso   1.00
H169   H     0.89826   0.03953   0.27186   0.00000  Uiso   1.00
C170   C     0.83266   0.04275   0.25188   0.00000  Uiso   1.00
C171   C     0.79570   0.02094   0.24156   0.00000  Uiso   1.00
H172   H     0.76657   0.03654   0.23308   0.00000  Uiso   1.00
C173   C     0.79648   0.31181   0.24129   0.00000  Uiso   1.00
H174   H     0.76778   0.29537   0.23251   0.00000  Uiso   1.00
C175   C     0.83415   0.29108   0.25148   0.00000  Uiso   1.00
C176   C     0.98527   0.14113   0.21583   0.00000  Uiso   1.00
C177   C     0.70005   0.14104   0.21590   0.00000  Uiso   1.00
N178   N     0.71426   0.16668   0.25002   0.00000  Uiso   1.00
C179   C     0.68112   0.19240   0.28380   0.00000  Uiso   1.00
C180   C     0.96676   0.19237   0.28341   0.00000  Uiso   1.00
H181   H     0.94129   0.21302   0.30995   0.00000  Uiso   1.00
N182   N     0.95239   0.16665   0.25001   0.00000  Uiso   1.00
N183   N     0.95662   0.20592   0.08599   0.00000  Uiso   1.00
O184   O     0.95001   0.22759   0.12990   0.00000  Uiso   1.00
O185   O     0.99995   0.19716   0.05689   0.00000  Uiso   1.00
C186   C     0.97076   0.11445   0.17927   0.00000  Uiso   1.00
N187   N     0.95942   0.09299   0.14980   0.00000  Uiso   1.00
C188   C     0.73422   0.11380   0.17982   0.00000  Uiso   1.00
N189   N     0.76139   0.09187   0.15065   0.00000  Uiso   1.00
N190   N     0.69416   0.21948   0.32017   0.00000  Uiso   1.00
O191   O     0.69096   0.20607   0.36800   0.00000  Uiso   1.00
O192   O     0.69484   0.25927   0.31209   0.00000  Uiso   1.00
N193   N     0.79155   0.21895   0.10614   0.00000  Uiso   1.00
O194   O     0.75561   0.22448   0.08840   0.00000  Uiso   1.00
O195   O     0.79368   0.24230   0.14608   0.00000  Uiso   1.00
N196   N     0.91043   0.29375   0.27382   0.00000  Uiso   1.00
O197   O     0.91539   0.29816   0.32126   0.00000  Uiso   1.00
O198   O     0.94676   0.28173   0.23371   0.00000  Uiso   1.00
O199   O     0.12846   0.56108   0.25001   0.00000  Uiso   1.00
O200   O     0.20490   0.56107   0.25001   0.00000  Uiso   1.00
C201   C     0.16683   0.58009   0.25065   0.00000  Uiso   1.00
O202   O     0.10947   0.50000   0.32681   0.00000  Uiso   1.00
O203   O     0.18591   0.49999   0.32681   0.00000  Uiso   1.00
C204   C     0.14073   0.50168   0.35194   0.00000  Uiso   1.00
Zn205  Zn    0.11562   0.50001   0.25000   0.00000  Uiso   1.00
Zn206  Zn    0.21771   0.49999   0.25000   0.00000  Uiso   1.00
O207   O     0.12843   0.43893   0.25000   0.00000  Uiso   1.00
O208   O     0.20488   0.43892   0.25000   0.00000  Uiso   1.00
O209   O     0.14742   0.50001   0.17319   0.00000  Uiso   1.00
O210   O     0.22387   0.50000   0.17319   0.00000  Uiso   1.00
C211   C     0.16641   0.42007   0.25045   0.00000  Uiso   1.00
C212   C     0.19221   0.50682   0.14936   0.00000  Uiso   1.00
C213   C     0.26020   0.54746   0.00923   0.00000  Uiso   1.00
H214   H     0.26282   0.57078   0.40937   0.00000  Uiso   1.00
H215   H     0.29507   0.55856   0.48533   0.00000  Uiso   1.00
C216   C     0.20523   0.52387   0.09445   0.00000  Uiso   1.00
C217   C     0.08536   0.48047   0.43955   0.00000  Uiso   1.00
C218   C     0.07643   0.47306   0.49415   0.00000  Uiso   1.00
C219   C     0.10677   0.48931   0.02045   0.00000  Uiso   1.00
C220   C     0.14546   0.51512   0.49290   0.00000  Uiso   1.00
C221   C     0.15466   0.52278   0.43756   0.00000  Uiso   1.00
C222   C     0.17816   0.53010   0.01785   0.00000  Uiso   1.00
C223   C     0.22350   0.54407   0.48620   0.00000  Uiso   1.00
C224   C     0.23025   0.55560   0.43304   0.00000  Uiso   1.00
C225   C     0.19435   0.54784   0.41032   0.00000  Uiso   1.00
C226   C     0.16764   0.53128   0.07353   0.00000  Uiso   1.00
C227   C     0.25210   0.53522   0.06298   0.00000  Uiso   1.00
C228   C     0.12534   0.50372   0.41062   0.00000  Uiso   1.00
H229   H     0.06287   0.46564   0.41916   0.00000  Uiso   1.00
H230   H     0.10033   0.48086   0.06217   0.00000  Uiso   1.00
H231   H     0.04678   0.45351   0.01582   0.00000  Uiso   1.00
H232   H     0.19906   0.55993   0.37053   0.00000  Uiso   1.00
C233   C     0.20454   0.64664   0.26281   0.00000  Uiso   1.00
C234   C     0.20316   0.35582   0.26319   0.00000  Uiso   1.00
H235   H     0.23159   0.37286   0.27186   0.00000  Uiso   1.00
C236   C     0.16600   0.37608   0.25188   0.00000  Uiso   1.00
C237   C     0.12903   0.35427   0.24156   0.00000  Uiso   1.00
H238   H     0.09991   0.36987   0.23308   0.00000  Uiso   1.00
C239   C     0.12981   0.64514   0.24129   0.00000  Uiso   1.00
H240   H     0.10112   0.62871   0.23251   0.00000  Uiso   1.00
C241   C     0.16748   0.62441   0.25148   0.00000  Uiso   1.00
C242   C     0.31860   0.47446   0.21583   0.00000  Uiso   1.00
C243   C     0.03339   0.47438   0.21590   0.00000  Uiso   1.00
N244   N     0.04760   0.50001   0.25002   0.00000  Uiso   1.00
C245   C     0.01445   0.52574   0.28380   0.00000  Uiso   1.00
C246   C     0.30009   0.52570   0.28341   0.00000  Uiso   1.00
H247   H     0.27463   0.54635   0.30995   0.00000  Uiso   1.00
N248   N     0.28573   0.49998   0.25001   0.00000  Uiso   1.00
N249   N     0.28995   0.53926   0.08599   0.00000  Uiso   1.00
O250   O     0.28334   0.56092   0.12990   0.00000  Uiso   1.00
O251   O     0.33329   0.53049   0.05689   0.00000  Uiso   1.00
C252   C     0.30410   0.44779   0.17927   0.00000  Uiso   1.00
N253   N     0.29275   0.42632   0.14980   0.00000  Uiso   1.00
C254   C     0.06756   0.44713   0.17982   0.00000  Uiso   1.00
N255   N     0.09472   0.42520   0.15065   0.00000  Uiso   1.00
N256   N     0.02749   0.55281   0.32017   0.00000  Uiso   1.00
O257   O     0.02430   0.53941   0.36800   0.00000  Uiso   1.00
O258   O     0.02817   0.59260   0.31209   0.00000  Uiso   1.00
N259   N     0.12488   0.55229   0.10614   0.00000  Uiso   1.00
O260   O     0.08895   0.55781   0.08840   0.00000  Uiso   1.00
O261   O     0.12701   0.57563   0.14608   0.00000  Uiso   1.00
N262   N     0.24376   0.62709   0.27382   0.00000  Uiso   1.00
O263   O     0.24872   0.63149   0.32126   0.00000  Uiso   1.00
O264   O     0.28009   0.61507   0.23371   0.00000  Uiso   1.00
O265   O     0.46179   0.56108   0.25001   0.00000  Uiso   1.00
O266   O     0.53823   0.56107   0.25001   0.00000  Uiso   1.00
C267   C     0.50016   0.58009   0.25065   0.00000  Uiso   1.00
O268   O     0.44280   0.50000   0.32681   0.00000  Uiso   1.00
O269   O     0.51924   0.49999   0.32681   0.00000  Uiso   1.00
C270   C     0.47406   0.50168   0.35194   0.00000  Uiso   1.00
Zn271  Zn    0.44896   0.50001   0.25000   0.00000  Uiso   1.00
Zn272  Zn    0.55104   0.49999   0.25000   0.00000  Uiso   1.00
O273   O     0.46177   0.43893   0.25000   0.00000  Uiso   1.00
O274   O     0.53821   0.43892   0.25000   0.00000  Uiso   1.00
O275   O     0.48076   0.50001   0.17319   0.00000  Uiso   1.00
O276   O     0.55720   0.50000   0.17319   0.00000  Uiso   1.00
C277   C     0.49974   0.42007   0.25045   0.00000  Uiso   1.00
C278   C     0.52554   0.50682   0.14936   0.00000  Uiso   1.00
C279   C     0.59353   0.54746   0.00923   0.00000  Uiso   1.00
H280   H     0.59616   0.57078   0.40937   0.00000  Uiso   1.00
H281   H     0.62840   0.55856   0.48533   0.00000  Uiso   1.00
C282   C     0.53856   0.52387   0.09445   0.00000  Uiso   1.00
C283   C     0.41869   0.48047   0.43955   0.00000  Uiso   1.00
C284   C     0.40977   0.47306   0.49415   0.00000  Uiso   1.00
C285   C     0.44010   0.48931   0.02045   0.00000  Uiso   1.00
C286   C     0.47880   0.51512   0.49290   0.00000  Uiso   1.00
C287   C     0.48800   0.52278   0.43756   0.00000  Uiso   1.00
C288   C     0.51149   0.53010   0.01785   0.00000  Uiso   1.00
C289   C     0.55683   0.54407   0.48620   0.00000  Uiso   1.00
C290   C     0.56358   0.55560   0.43304   0.00000  Uiso   1.00
C291   C     0.52768   0.54784   0.41032   0.00000  Uiso   1.00
C292   C     0.50098   0.53128   0.07353   0.00000  Uiso   1.00
C293   C     0.58543   0.53522   0.06298   0.00000  Uiso   1.00
C294   C     0.45868   0.50372   0.41062   0.00000  Uiso   1.00
H295   H     0.39620   0.46564   0.41916   0.00000  Uiso   1.00
H296   H     0.43367   0.48086   0.06217   0.00000  Uiso   1.00
H297   H     0.38011   0.45351   0.01582   0.00000  Uiso   1.00
H298   H     0.53239   0.55993   0.37053   0.00000  Uiso   1.00
C299   C     0.53787   0.64664   0.26281   0.00000  Uiso   1.00
C300   C     0.53649   0.35582   0.26319   0.00000  Uiso   1.00
H301   H     0.56493   0.37286   0.27186   0.00000  Uiso   1.00
C302   C     0.49933   0.37608   0.25188   0.00000  Uiso   1.00
C303   C     0.46237   0.35427   0.24156   0.00000  Uiso   1.00
H304   H     0.43324   0.36987   0.23308   0.00000  Uiso   1.00
C305   C     0.46315   0.64514   0.24129   0.00000  Uiso   1.00
H306   H     0.43445   0.62871   0.23251   0.00000  Uiso   1.00
C307   C     0.50081   0.62441   0.25148   0.00000  Uiso   1.00
C308   C     0.65193   0.47446   0.21583   0.00000  Uiso   1.00
C309   C     0.36672   0.47438   0.21590   0.00000  Uiso   1.00
N310   N     0.38093   0.50001   0.25002   0.00000  Uiso   1.00
C311   C     0.34779   0.52574   0.28380   0.00000  Uiso   1.00
C312   C     0.63342   0.52570   0.28341   0.00000  Uiso   1.00
H313   H     0.60796   0.54635   0.30995   0.00000  Uiso   1.00
N314   N     0.61906   0.49998   0.25001   0.00000  Uiso   1.00
N315   N     0.62329   0.53926   0.08599   0.00000  Uiso   1.00
O316   O     0.61668   0.56092   0.12990   0.00000  Uiso   1.00
O317   O     0.66662   0.53049   0.05689   0.00000  Uiso   1.00
C318   C     0.63743   0.44779   0.17927   0.00000  Uiso   1.00
N319   N     0.62609   0.42632   0.14980   0.00000  Uiso   1.00
C320   C     0.40089   0.44713   0.17982   0.00000  Uiso   1.00
N321   N     0.42805   0.42520   0.15065   0.00000  Uiso   1.00
N322   N     0.36082   0.55281   0.32017   0.00000  Uiso   1.00
O323   O     0.35763   0.53941   0.36800   0.00000  Uiso   1.00
O324   O     0.36151   0.59260   0.31209   0.00000  Uiso   1.00
N325   N     0.45822   0.55229   0.10614   0.00000  Uiso   1.00
O326   O     0.42228   0.55781   0.08840   0.00000  Uiso   1.00
O327   O     0.46034   0.57563   0.14608   0.00000  Uiso   1.00
N328   N     0.57710   0.62709   0.27382   0.00000  Uiso   1.00
O329   O     0.58205   0.63149   0.32126   0.00000  Uiso   1.00
O330   O     0.61342   0.61507   0.23371   0.00000  Uiso   1.00
O331   O     0.79512   0.56108   0.25001   0.00000  Uiso   1.00
O332   O     0.87157   0.56107   0.25001   0.00000  Uiso   1.00
C333   C     0.83350   0.58009   0.25065   0.00000  Uiso   1.00
O334   O     0.77613   0.50000   0.32681   0.00000  Uiso   1.00
O335   O     0.85258   0.49999   0.32681   0.00000  Uiso   1.00
C336   C     0.80740   0.50168   0.35194   0.00000  Uiso   1.00
Zn337  Zn    0.78229   0.50001   0.25000   0.00000  Uiso   1.00
Zn338  Zn    0.88438   0.49999   0.25000   0.00000  Uiso   1.00
O339   O     0.79510   0.43893   0.25000   0.00000  Uiso   1.00
O340   O     0.87154   0.43892   0.25000   0.00000  Uiso   1.00
O341   O     0.81409   0.50001   0.17319   0.00000  Uiso   1.00
O342   O     0.89053   0.50000   0.17319   0.00000  Uiso   1.00
C343   C     0.83307   0.42007   0.25045   0.00000  Uiso   1.00
C344   C     0.85887   0.50682   0.14936   0.00000  Uiso   1.00
C345   C     0.92687   0.54746   0.00923   0.00000  Uiso   1.00
H346   H     0.92949   0.57078   0.40937   0.00000  Uiso   1.00
H347   H     0.96174   0.55856   0.48533   0.00000  Uiso   1.00
C348   C     0.87189   0.52387   0.09445   0.00000  Uiso   1.00
C349   C     0.75203   0.48047   0.43955   0.00000  Uiso   1.00
C350   C     0.74310   0.47306   0.49415   0.00000  Uiso   1.00
C351   C     0.77344   0.48931   0.02045   0.00000  Uiso   1.00
C352   C     0.81213   0.51512   0.49290   0.00000  Uiso   1.00
C353   C     0.82133   0.52278   0.43756   0.00000  Uiso   1.00
C354   C     0.84482   0.53010   0.01785   0.00000  Uiso   1.00
C355   C     0.89017   0.54407   0.48620   0.00000  Uiso   1.00
C356   C     0.89692   0.55560   0.43304   0.00000  Uiso   1.00
C357   C     0.86102   0.54784   0.41032   0.00000  Uiso   1.00
C358   C     0.83431   0.53128   0.07353   0.00000  Uiso   1.00
C359   C     0.91877   0.53522   0.06298   0.00000  Uiso   1.00
C360   C     0.79201   0.50372   0.41062   0.00000  Uiso   1.00
H361   H     0.72953   0.46564   0.41916   0.00000  Uiso   1.00
H362   H     0.76700   0.48086   0.06217   0.00000  Uiso   1.00
H363   H     0.71344   0.45351   0.01582   0.00000  Uiso   1.00
H364   H     0.86573   0.55993   0.37053   0.00000  Uiso   1.00
C365   C     0.87121   0.64664   0.26281   0.00000  Uiso   1.00
C366   C     0.86982   0.35582   0.26319   0.00000  Uiso   1.00
H367   H     0.89826   0.37286   0.27186   0.00000  Uiso   1.00
C368   C     0.83266   0.37608   0.25188   0.00000  Uiso   1.00
C369   C     0.79570   0.35427   0.24156   0.00000  Uiso   1.00
H370   H     0.76657   0.36987   0.23308   0.00000  Uiso   1.00
C371   C     0.79648   0.64514   0.24129   0.00000  Uiso   1.00
H372   H     0.76778   0.62871   0.23251   0.00000  Uiso   1.00
C373   C     0.83415   0.62441   0.25148   0.00000  Uiso   1.00
C374   C     0.98527   0.47446   0.21583   0.00000  Uiso   1.00
C375   C     0.70005   0.47438   0.21590   0.00000  Uiso   1.00
N376   N     0.71426   0.50001   0.25002   0.00000  Uiso   1.00
C377   C     0.68112   0.52574   0.28380   0.00000  Uiso   1.00
C378   C     0.96676   0.52570   0.28341   0.00000  Uiso   1.00
H379   H     0.94129   0.54635   0.30995   0.00000  Uiso   1.00
N380   N     0.95239   0.49998   0.25001   0.00000  Uiso   1.00
N381   N     0.95662   0.53926   0.08599   0.00000  Uiso   1.00
O382   O     0.95001   0.56092   0.12990   0.00000  Uiso   1.00
O383   O     0.99995   0.53049   0.05689   0.00000  Uiso   1.00
C384   C     0.97076   0.44779   0.17927   0.00000  Uiso   1.00
N385   N     0.95942   0.42632   0.14980   0.00000  Uiso   1.00
C386   C     0.73422   0.44713   0.17982   0.00000  Uiso   1.00
N387   N     0.76139   0.42520   0.15065   0.00000  Uiso   1.00
N388   N     0.69416   0.55281   0.32017   0.00000  Uiso   1.00
O389   O     0.69096   0.53941   0.36800   0.00000  Uiso   1.00
O390   O     0.69484   0.59260   0.31209   0.00000  Uiso   1.00
N391   N     0.79155   0.55229   0.10614   0.00000  Uiso   1.00
O392   O     0.75561   0.55781   0.08840   0.00000  Uiso   1.00
O393   O     0.79368   0.57563   0.14608   0.00000  Uiso   1.00
N394   N     0.91043   0.62709   0.27382   0.00000  Uiso   1.00
O395   O     0.91539   0.63149   0.32126   0.00000  Uiso   1.00
O396   O     0.94676   0.61507   0.23371   0.00000  Uiso   1.00
O397   O     0.12846   0.89442   0.25001   0.00000  Uiso   1.00
O398   O     0.20490   0.89441   0.25001   0.00000  Uiso   1.00
C399   C     0.16683   0.91342   0.25065   0.00000  Uiso   1.00
O400   O     0.10947   0.83333   0.32681   0.00000  Uiso   1.00
O401   O     0.18591   0.83332   0.32681   0.00000  Uiso   1.00
C402   C     0.14073   0.83502   0.35194   0.00000  Uiso   1.00
Zn403  Zn    0.11562   0.83334   0.25000   0.00000  Uiso   1.00
Zn404  Zn    0.21771   0.83333   0.25000   0.00000  Uiso   1.00
O405   O     0.12843   0.77226   0.25000   0.00000  Uiso   1.00
O406   O     0.20488   0.77225   0.25000   0.00000  Uiso   1.00
O407   O     0.14742   0.83335   0.17319   0.00000  Uiso   1.00
O408   O     0.22387   0.83334   0.17319   0.00000  Uiso   1.00
C409   C     0.16641   0.75340   0.25045   0.00000  Uiso   1.00
C410   C     0.19221   0.84015   0.14936   0.00000  Uiso   1.00
C411   C     0.26020   0.88079   0.00923   0.00000  Uiso   1.00
H412   H     0.26282   0.90412   0.40937   0.00000  Uiso   1.00
H413   H     0.29507   0.89190   0.48533   0.00000  Uiso   1.00
C414   C     0.20523   0.85720   0.09445   0.00000  Uiso   1.00
C415   C     0.08536   0.81380   0.43955   0.00000  Uiso   1.00
C416   C     0.07643   0.80639   0.49415   0.00000  Uiso   1.00
C417   C     0.10677   0.82264   0.02045   0.00000  Uiso   1.00
C418   C     0.14546   0.84846   0.49290   0.00000  Uiso   1.00
C419   C     0.15466   0.85612   0.43756   0.00000  Uiso   1.00
C420   C     0.17816   0.86343   0.01785   0.00000  Uiso   1.00
C421   C     0.22350   0.87740   0.48620   0.00000  Uiso   1.00
C422   C     0.23025   0.88893   0.43304   0.00000  Uiso   1.00
C423   C     0.19435   0.88117   0.41032   0.00000  Uiso   1.00
C424   C     0.16764   0.86461   0.07353   0.00000  Uiso   1.00
C425   C     0.25210   0.86856   0.06298   0.00000  Uiso   1.00
C426   C     0.12534   0.83705   0.41062   0.00000  Uiso   1.00
H427   H     0.06287   0.79897   0.41916   0.00000  Uiso   1.00
H428   H     0.10033   0.81419   0.06217   0.00000  Uiso   1.00
H429   H     0.04678   0.78685   0.01582   0.00000  Uiso   1.00
H430   H     0.19906   0.89327   0.37053   0.00000  Uiso   1.00
C431   C     0.20454   0.97998   0.26281   0.00000  Uiso   1.00
C432   C     0.20316   0.68915   0.26319   0.00000  Uiso   1.00
H433   H     0.23159   0.70620   0.27186   0.00000  Uiso   1.00
C434   C     0.16600   0.70941   0.25188   0.00000  Uiso   1.00
C435   C     0.12903   0.68760   0.24156   0.00000  Uiso   1.00
H436   H     0.09991   0.70320   0.23308   0.00000  Uiso   1.00
C437   C     0.12981   0.97848   0.24129   0.00000  Uiso   1.00
H438   H     0.10112   0.96204   0.23251   0.00000  Uiso   1.00
C439   C     0.16748   0.95775   0.25148   0.00000  Uiso   1.00
C440   C     0.31860   0.80779   0.21583   0.00000  Uiso   1.00
C441   C     0.03339   0.80771   0.21590   0.00000  Uiso   1.00
N442   N     0.04760   0.83334   0.25002   0.00000  Uiso   1.00
C443   C     0.01445   0.85907   0.28380   0.00000  Uiso   1.00
C444   C     0.30009   0.85904   0.28341   0.00000  Uiso   1.00
H445   H     0.27463   0.87969   0.30995   0.00000  Uiso   1.00
N446   N     0.28573   0.83331   0.25001   0.00000  Uiso   1.00
N447   N     0.28995   0.87259   0.08599   0.00000  Uiso   1.00
O448   O     0.28334   0.89426   0.12990   0.00000  Uiso   1.00
O449   O     0.33329   0.86382   0.05689   0.00000  Uiso   1.00
C450   C     0.30410   0.78112   0.17927   0.00000  Uiso   1.00
N451   N     0.29275   0.75965   0.14980   0.00000  Uiso   1.00
C452   C     0.06756   0.78046   0.17982   0.00000  Uiso   1.00
N453   N     0.09472   0.75853   0.15065   0.00000  Uiso   1.00
N454   N     0.02749   0.88615   0.32017   0.00000  Uiso   1.00
O455   O     0.02430   0.87274   0.36800   0.00000  Uiso   1.00
O456   O     0.02817   0.92593   0.31209   0.00000  Uiso   1.00
N457   N     0.12488   0.88562   0.10614   0.00000  Uiso   1.00
O458   O     0.08895   0.89114   0.08840   0.00000  Uiso   1.00
O459   O     0.12701   0.90896   0.14608   0.00000  Uiso   1.00
N460   N     0.24376   0.96042   0.27382   0.00000  Uiso   1.00
O461   O     0.24872   0.96482   0.32126   0.00000  Uiso   1.00
O462   O     0.28009   0.94840   0.23371   0.00000  Uiso   1.00
O463   O     0.46179   0.89442   0.25001   0.00000  Uiso   1.00
O464   O     0.53823   0.89441   0.25001   0.00000  Uiso   1.00
C465   C     0.50016   0.91342   0.25065   0.00000  Uiso   1.00
O466   O     0.44280   0.83333   0.32681   0.00000  Uiso   1.00
O467   O     0.51924   0.83332   0.32681   0.00000  Uiso   1.00
C468   C     0.47406   0.83502   0.35194   0.00000  Uiso   1.00
Zn469  Zn    0.44896   0.83334   0.25000   0.00000  Uiso   1.00
Zn470  Zn    0.55104   0.83333   0.25000   0.00000  Uiso   1.00
O471   O     0.46177   0.77226   0.25000   0.00000  Uiso   1.00
O472   O     0.53821   0.77225   0.25000   0.00000  Uiso   1.00
O473   O     0.48076   0.83335   0.17319   0.00000  Uiso   1.00
O474   O     0.55720   0.83334   0.17319   0.00000  Uiso   1.00
C475   C     0.49974   0.75340   0.25045   0.00000  Uiso   1.00
C476   C     0.52554   0.84015   0.14936   0.00000  Uiso   1.00
C477   C     0.59353   0.88079   0.00923   0.00000  Uiso   1.00
H478   H     0.59616   0.90412   0.40937   0.00000  Uiso   1.00
H479   H     0.62840   0.89190   0.48533   0.00000  Uiso   1.00
C480   C     0.53856   0.85720   0.09445   0.00000  Uiso   1.00
C481   C     0.41869   0.81380   0.43955   0.00000  Uiso   1.00
C482   C     0.40977   0.80639   0.49415   0.00000  Uiso   1.00
C483   C     0.44010   0.82264   0.02045   0.00000  Uiso   1.00
C484   C     0.47880   0.84846   0.49290   0.00000  Uiso   1.00
C485   C     0.48800   0.85612   0.43756   0.00000  Uiso   1.00
C486   C     0.51149   0.86343   0.01785   0.00000  Uiso   1.00
C487   C     0.55683   0.87740   0.48620   0.00000  Uiso   1.00
C488   C     0.56358   0.88893   0.43304   0.00000  Uiso   1.00
C489   C     0.52768   0.88117   0.41032   0.00000  Uiso   1.00
C490   C     0.50098   0.86461   0.07353   0.00000  Uiso   1.00
C491   C     0.58543   0.86856   0.06298   0.00000  Uiso   1.00
C492   C     0.45868   0.83705   0.41062   0.00000  Uiso   1.00
H493   H     0.39620   0.79897   0.41916   0.00000  Uiso   1.00
H494   H     0.43367   0.81419   0.06217   0.00000  Uiso   1.00
H495   H     0.38011   0.78685   0.01582   0.00000  Uiso   1.00
H496   H     0.53239   0.89327   0.37053   0.00000  Uiso   1.00
C497   C     0.53787   0.97998   0.26281   0.00000  Uiso   1.00
C498   C     0.53649   0.68915   0.26319   0.00000  Uiso   1.00
H499   H     0.56493   0.70620   0.27186   0.00000  Uiso   1.00
C500   C     0.49933   0.70941   0.25188   0.00000  Uiso   1.00
C501   C     0.46237   0.68760   0.24156   0.00000  Uiso   1.00
H502   H     0.43324   0.70320   0.23308   0.00000  Uiso   1.00
C503   C     0.46315   0.97848   0.24129   0.00000  Uiso   1.00
H504   H     0.43445   0.96204   0.23251   0.00000  Uiso   1.00
C505   C     0.50081   0.95775   0.25148   0.00000  Uiso   1.00
C506   C     0.65193   0.80779   0.21583   0.00000  Uiso   1.00
C507   C     0.36672   0.80771   0.21590   0.00000  Uiso   1.00
N508   N     0.38093   0.83334   0.25002   0.00000  Uiso   1.00
C509   C     0.34779   0.85907   0.28380   0.00000  Uiso   1.00
C510   C     0.63342   0.85904   0.28341   0.00000  Uiso   1.00
H511   H     0.60796   0.87969   0.30995   0.00000  Uiso   1.00
N512   N     0.61906   0.83331   0.25001   0.00000  Uiso   1.00
N513   N     0.62329   0.87259   0.08599   0.00000  Uiso   1.00
O514   O     0.61668   0.89426   0.12990   0.00000  Uiso   1.00
O515   O     0.66662   0.86382   0.05689   0.00000  Uiso   1.00
C516   C     0.63743   0.78112   0.17927   0.00000  Uiso   1.00
N517   N     0.62609   0.75965   0.14980   0.00000  Uiso   1.00
C518   C     0.40089   0.78046   0.17982   0.00000  Uiso   1.00
N519   N     0.42805   0.75853   0.15065   0.00000  Uiso   1.00
N520   N     0.36082   0.88615   0.32017   0.00000  Uiso   1.00
O521   O     0.35763   0.87274   0.36800   0.00000  Uiso   1.00
O522   O     0.36151   0.92593   0.31209   0.00000  Uiso   1.00
N523   N     0.45822   0.88562   0.10614   0.00000  Uiso   1.00
O524   O     0.42228   0.89114   0.08840   0.00000  Uiso   1.00
O525   O     0.46034   0.90896   0.14608   0.00000  Uiso   1.00
N526   N     0.57710   0.96042   0.27382   0.00000  Uiso   1.00
O527   O     0.58205   0.96482   0.32126   0.00000  Uiso   1.00
O528   O     0.61342   0.94840   0.23371   0.00000  Uiso   1.00
O529   O     0.79512   0.89442   0.25001   0.00000  Uiso   1.00
O530   O     0.87157   0.89441   0.25001   0.00000  Uiso   1.00
C531   C     0.83350   0.91342   0.25065   0.00000  Uiso   1.00
O532   O     0.77613   0.83333   0.32681   0.00000  Uiso   1.00
O533   O     0.85258   0.83332   0.32681   0.00000  Uiso   1.00
C534   C     0.80740   0.83502   0.35194   0.00000  Uiso   1.00
Zn535  Zn    0.78229   0.83334   0.25000   0.00000  Uiso   1.00
Zn536  Zn    0.88438   0.83333   0.25000   0.00000  Uiso   1.00
O537   O     0.79510   0.77226   0.25000   0.00000  Uiso   1.00
O538   O     0.87154   0.77225   0.25000   0.00000  Uiso   1.00
O539   O     0.81409   0.83335   0.17319   0.00000  Uiso   1.00
O540   O     0.89053   0.83334   0.17319   0.00000  Uiso   1.00
C541   C     0.83307   0.75340   0.25045   0.00000  Uiso   1.00
C542   C     0.85887   0.84015   0.14936   0.00000  Uiso   1.00
C543   C     0.92687   0.88079   0.00923   0.00000  Uiso   1.00
H544   H     0.92949   0.90412   0.40937   0.00000  Uiso   1.00
H545   H     0.96174   0.89190   0.48533   0.00000  Uiso   1.00
C546   C     0.87189   0.85720   0.09445   0.00000  Uiso   1.00
C547   C     0.75203   0.81380   0.43955   0.00000  Uiso   1.00
C548   C     0.74310   0.80639   0.49415   0.00000  Uiso   1.00
C549   C     0.77344   0.82264   0.02045   0.00000  Uiso   1.00
C550   C     0.81213   0.84846   0.49290   0.00000  Uiso   1.00
C551   C     0.82133   0.85612   0.43756   0.00000  Uiso   1.00
C552   C     0.84482   0.86343   0.01785   0.00000  Uiso   1.00
C553   C     0.89017   0.87740   0.48620   0.00000  Uiso   1.00
C554   C     0.89692   0.88893   0.43304   0.00000  Uiso   1.00
C555   C     0.86102   0.88117   0.41032   0.00000  Uiso   1.00
C556   C     0.83431   0.86461   0.07353   0.00000  Uiso   1.00
C557   C     0.91877   0.86856   0.06298   0.00000  Uiso   1.00
C558   C     0.79201   0.83705   0.41062   0.00000  Uiso   1.00
H559   H     0.72953   0.79897   0.41916   0.00000  Uiso   1.00
H560   H     0.76700   0.81419   0.06217   0.00000  Uiso   1.00
H561   H     0.71344   0.78685   0.01582   0.00000  Uiso   1.00
H562   H     0.86573   0.89327   0.37053   0.00000  Uiso   1.00
C563   C     0.87121   0.97998   0.26281   0.00000  Uiso   1.00
C564   C     0.86982   0.68915   0.26319   0.00000  Uiso   1.00
H565   H     0.89826   0.70620   0.27186   0.00000  Uiso   1.00
C566   C     0.83266   0.70941   0.25188   0.00000  Uiso   1.00
C567   C     0.79570   0.68760   0.24156   0.00000  Uiso   1.00
H568   H     0.76657   0.70320   0.23308   0.00000  Uiso   1.00
C569   C     0.79648   0.97848   0.24129   0.00000  Uiso   1.00
H570   H     0.76778   0.96204   0.23251   0.00000  Uiso   1.00
C571   C     0.83415   0.95775   0.25148   0.00000  Uiso   1.00
C572   C     0.98527   0.80779   0.21583   0.00000  Uiso   1.00
C573   C     0.70005   0.80771   0.21590   0.00000  Uiso   1.00
N574   N     0.71426   0.83334   0.25002   0.00000  Uiso   1.00
C575   C     0.68112   0.85907   0.28380   0.00000  Uiso   1.00
C576   C     0.96676   0.85904   0.28341   0.00000  Uiso   1.00
H577   H     0.94129   0.87969   0.30995   0.00000  Uiso   1.00
N578   N     0.95239   0.83331   0.25001   0.00000  Uiso   1.00
N579   N     0.95662   0.87259   0.08599   0.00000  Uiso   1.00
O580   O     0.95001   0.89426   0.12990   0.00000  Uiso   1.00
O581   O     0.99995   0.86382   0.05689   0.00000  Uiso   1.00
C582   C     0.97076   0.78112   0.17927   0.00000  Uiso   1.00
N583   N     0.95942   0.75965   0.14980   0.00000  Uiso   1.00
C584   C     0.73422   0.78046   0.17982   0.00000  Uiso   1.00
N585   N     0.76139   0.75853   0.15065   0.00000  Uiso   1.00
N586   N     0.69416   0.88615   0.32017   0.00000  Uiso   1.00
O587   O     0.69096   0.87274   0.36800   0.00000  Uiso   1.00
O588   O     0.69484   0.92593   0.31209   0.00000  Uiso   1.00
N589   N     0.79155   0.88562   0.10614   0.00000  Uiso   1.00
O590   O     0.75561   0.89114   0.08840   0.00000  Uiso   1.00
O591   O     0.79368   0.90896   0.14608   0.00000  Uiso   1.00
N592   N     0.91043   0.96042   0.27382   0.00000  Uiso   1.00
O593   O     0.91539   0.96482   0.32126   0.00000  Uiso   1.00
O594   O     0.94676   0.94840   0.23371   0.00000  Uiso   1.00
O595   O     0.12846   0.22775   0.75001   0.00000  Uiso   1.00
O596   O     0.20490   0.22774   0.75001   0.00000  Uiso   1.00
C597   C     0.16683   0.24676   0.75065   0.00000  Uiso   1.00
O598   O     0.10947   0.16666   0.82681   0.00000  Uiso   1.00
O599   O     0.18591   0.16665   0.82681   0.00000  Uiso   1.00
C600   C     0.14073   0.16835   0.85194   0.00000  Uiso   1.00
Zn601  Zn    0.11562   0.16667   0.75000   0.00000  Uiso   1.00
Zn602  Zn    0.21771   0.16666   0.75000   0.00000  Uiso   1.00
O603   O     0.12843   0.10559   0.75000   0.00000  Uiso   1.00
O604   O     0.20488   0.10558   0.75000   0.00000  Uiso   1.00
O605   O     0.14742   0.16668   0.67319   0.00000  Uiso   1.00
O606   O     0.22387   0.16667   0.67319   0.00000  Uiso   1.00
C607   C     0.16641   0.08673   0.75045   0.00000  Uiso   1.00
C608   C     0.19221   0.17348   0.64936   0.00000  Uiso   1.00
C609   C     0.26020   0.21412   0.50923   0.00000  Uiso   1.00
H610   H     0.26282   0.23745   0.90937   0.00000  Uiso   1.00
H611   H     0.29507   0.22523   0.98533   0.00000  Uiso   1.00
C612   C     0.20523   0.19053   0.59445   0.00000  Uiso   1.00
C613   C     0.08536   0.14713   0.93955   0.00000  Uiso   1.00
C614   C     0.07643   0.13973   0.99415   0.00000  Uiso   1.00
C615   C     0.10677   0.15597   0.52045   0.00000  Uiso   1.00
C616   C     0.14546   0.18179   0.99290   0.00000  Uiso   1.00
C617   C     0.15466   0.18945   0.93756   0.00000  Uiso   1.00
C618   C     0.17816   0.19676   0.51785   0.00000  Uiso   1.00
C619   C     0.22350   0.21073   0.98620   0.00000  Uiso   1.00
C620   C     0.23025   0.22226   0.93304   0.00000  Uiso   1.00
C621   C     0.19435   0.21451   0.91032   0.00000  Uiso   1.00
C622   C     0.16764   0.19795   0.57353   0.00000  Uiso   1.00
C623   C     0.25210   0.20189   0.56298   0.00000  Uiso   1.00
C624   C     0.12534   0.17039   0.91062   0.00000  Uiso   1.00
H625   H     0.06287   0.13231   0.91916   0.00000  Uiso   1.00
H626   H     0.10033   0.14753   0.56217   0.00000  Uiso   1.00
H627   H     0.04678   0.12018   0.51582   0.00000  Uiso   1.00
H628   H     0.19906   0.22660   0.87053   0.00000  Uiso   1.00
C629   C     0.20454   0.31331   0.76281   0.00000  Uiso   1.00
C630   C     0.20316   0.02248   0.76319   0.00000  Uiso   1.00
H631   H     0.23159   0.03953   0.77186   0.00000  Uiso   1.00
C632   C     0.16600   0.04275   0.75188   0.00000  Uiso   1.00
C633   C     0.12903   0.02094   0.74156   0.00000  Uiso   1.00
H634   H     0.09991   0.03654   0.73308   0.00000  Uiso   1.00
C635   C     0.12981   0.31181   0.74129   0.00000  Uiso   1.00
H636   H     0.10112   0.29537   0.73251   0.00000  Uiso   1.00
C637   C     0.16748   0.29108   0.75148   0.00000  Uiso   1.00
C638   C     0.31860   0.14113   0.71583   0.00000  Uiso   1.00
C639   C     0.03339   0.14104   0.71590   0.00000  Uiso   1.00
N640   N     0.04760   0.16668   0.75002   0.00000  Uiso   1.00
C641   C     0.01445   0.19240   0.78380   0.00000  Uiso   1.00
C642   C     0.30009   0.19237   0.78341   0.00000  Uiso   1.00
H643   H     0.27463   0.21302   0.80995   0.00000  Uiso   1.00
N644   N     0.28573   0.16665   0.75001   0.00000  Uiso   1.00
N645   N     0.28995   0.20592   0.58599   0.00000  Uiso   1.00
O646   O     0.28334   0.22759   0.62990   0.00000  Uiso   1.00
O647   O     0.33329   0.19716   0.55689   0.00000  Uiso   1.00
C648   C     0.30410   0.11445   0.67927   0.00000  Uiso   1.00
N649   N     0.29275   0.09299   0.64980   0.00000  Uiso   1.00
C650   C     0.06756   0.11380   0.67982   0.00000  Uiso   1.00
N651   N     0.09472   0.09187   0.65065   0.00000  Uiso   1.00
N652   N     0.02749   0.21948   0.82017   0.00000  Uiso   1.00
O653   O     0.02430   0.20607   0.86800   0.00000  Uiso   1.00
O654   O     0.02817   0.25927   0.81209   0.00000  Uiso   1.00
N655   N     0.12488   0.21895   0.60614   0.00000  Uiso   1.00
O656   O     0.08895   0.22448   0.58840   0.00000  Uiso   1.00
O657   O     0.12701   0.24230   0.64608   0.00000  Uiso   1.00
N658   N     0.24376   0.29375   0.77382   0.00000  Uiso   1.00
O659   O     0.24872   0.29816   0.82126   0.00000  Uiso   1.00
O660   O     0.28009   0.28173   0.73371   0.00000  Uiso   1.00
O661   O     0.46179   0.22775   0.75001   0.00000  Uiso   1.00
O662   O     0.53823   0.22774   0.75001   0.00000  Uiso   1.00
C663   C     0.50016   0.24676   0.75065   0.00000  Uiso   1.00
O664   O     0.44280   0.16666   0.82681   0.00000  Uiso   1.00
O665   O     0.51924   0.16665   0.82681   0.00000  Uiso   1.00
C666   C     0.47406   0.16835   0.85194   0.00000  Uiso   1.00
Zn667  Zn    0.44896   0.16667   0.75000   0.00000  Uiso   1.00
Zn668  Zn    0.55104   0.16666   0.75000   0.00000  Uiso   1.00
O669   O     0.46177   0.10559   0.75000   0.00000  Uiso   1.00
O670   O     0.53821   0.10558   0.75000   0.00000  Uiso   1.00
O671   O     0.48076   0.16668   0.67319   0.00000  Uiso   1.00
O672   O     0.55720   0.16667   0.67319   0.00000  Uiso   1.00
C673   C     0.49974   0.08673   0.75045   0.00000  Uiso   1.00
C674   C     0.52554   0.17348   0.64936   0.00000  Uiso   1.00
C675   C     0.59353   0.21412   0.50923   0.00000  Uiso   1.00
H676   H     0.59616   0.23745   0.90937   0.00000  Uiso   1.00
H677   H     0.62840   0.22523   0.98533   0.00000  Uiso   1.00
C678   C     0.53856   0.19053   0.59445   0.00000  Uiso   1.00
C679   C     0.41869   0.14713   0.93955   0.00000  Uiso   1.00
C680   C     0.40977   0.13973   0.99415   0.00000  Uiso   1.00
C681   C     0.44010   0.15597   0.52045   0.00000  Uiso   1.00
C682   C     0.47880   0.18179   0.99290   0.00000  Uiso   1.00
C683   C     0.48800   0.18945   0.93756   0.00000  Uiso   1.00
C684   C     0.51149   0.19676   0.51785   0.00000  Uiso   1.00
C685   C     0.55683   0.21073   0.98620   0.00000  Uiso   1.00
C686   C     0.56358   0.22226   0.93304   0.00000  Uiso   1.00
C687   C     0.52768   0.21451   0.91032   0.00000  Uiso   1.00
C688   C     0.50098   0.19795   0.57353   0.00000  Uiso   1.00
C689   C     0.58543   0.20189   0.56298   0.00000  Uiso   1.00
C690   C     0.45868   0.17039   0.91062   0.00000  Uiso   1.00
H691   H     0.39620   0.13231   0.91916   0.00000  Uiso   1.00
H692   H     0.43367   0.14753   0.56217   0.00000  Uiso   1.00
H693   H     0.38011   0.12018   0.51582   0.00000  Uiso   1.00
H694   H     0.53239   0.22660   0.87053   0.00000  Uiso   1.00
C695   C     0.53787   0.31331   0.76281   0.00000  Uiso   1.00
C696   C     0.53649   0.02248   0.76319   0.00000  Uiso   1.00
H697   H     0.56493   0.03953   0.77186   0.00000  Uiso   1.00
C698   C     0.49933   0.04275   0.75188   0.00000  Uiso   1.00
C699   C     0.46237   0.02094   0.74156   0.00000  Uiso   1.00
H700   H     0.43324   0.03654   0.73308   0.00000  Uiso   1.00
C701   C     0.46315   0.31181   0.74129   0.00000  Uiso   1.00
H702   H     0.43445   0.29537   0.73251   0.00000  Uiso   1.00
C703   C     0.50081   0.29108   0.75148   0.00000  Uiso   1.00
C704   C     0.65193   0.14113   0.71583   0.00000  Uiso   1.00
C705   C     0.36672   0.14104   0.71590   0.00000  Uiso   1.00
N706   N     0.38093   0.16668   0.75002   0.00000  Uiso   1.00
C707   C     0.34779   0.19240   0.78380   0.00000  Uiso   1.00
C708   C     0.63342   0.19237   0.78341   0.00000  Uiso   1.00
H709   H     0.60796   0.21302   0.80995   0.00000  Uiso   1.00
N710   N     0.61906   0.16665   0.75001   0.00000  Uiso   1.00
N711   N     0.62329   0.20592   0.58599   0.00000  Uiso   1.00
O712   O     0.61668   0.22759   0.62990   0.00000  Uiso   1.00
O713   O     0.66662   0.19716   0.55689   0.00000  Uiso   1.00
C714   C     0.63743   0.11445   0.67927   0.00000  Uiso   1.00
N715   N     0.62609   0.09299   0.64980   0.00000  Uiso   1.00
C716   C     0.40089   0.11380   0.67982   0.00000  Uiso   1.00
N717   N     0.42805   0.09187   0.65065   0.00000  Uiso   1.00
N718   N     0.36082   0.21948   0.82017   0.00000  Uiso   1.00
O719   O     0.35763   0.20607   0.86800   0.00000  Uiso   1.00
O720   O     0.36151   0.25927   0.81209   0.00000  Uiso   1.00
N721   N     0.45822   0.21895   0.60614   0.00000  Uiso   1.00
O722   O     0.42228   0.22448   0.58840   0.00000  Uiso   1.00
O723   O     0.46034   0.24230   0.64608   0.00000  Uiso   1.00
N724   N     0.57710   0.29375   0.77382   0.00000  Uiso   1.00
O725   O     0.58205   0.29816   0.82126   0.00000  Uiso   1.00
O726   O     0.61342   0.28173   0.73371   0.00000  Uiso   1.00
O727   O     0.79512   0.22775   0.75001   0.00000  Uiso   1.00
O728   O     0.87157   0.22774   0.75001   0.00000  Uiso   1.00
C729   C     0.83350   0.24676   0.75065   0.00000  Uiso   1.00
O730   O     0.77613   0.16666   0.82681   0.00000  Uiso   1.00
O731   O     0.85258   0.16665   0.82681   0.00000  Uiso   1.00
C732   C     0.80740   0.16835   0.85194   0.00000  Uiso   1.00
Zn733  Zn    0.78229   0.16667   0.75000   0.00000  Uiso   1.00
Zn734  Zn    0.88438   0.16666   0.75000   0.00000  Uiso   1.00
O735   O     0.79510   0.10559   0.75000   0.00000  Uiso   1.00
O736   O     0.87154   0.10558   0.75000   0.00000  Uiso   1.00
O737   O     0.81409   0.16668   0.67319   0.00000  Uiso   1.00
O738   O     0.89053   0.16667   0.67319   0.00000  Uiso   1.00
C739   C     0.83307   0.08673   0.75045   0.00000  Uiso   1.00
C740   C     0.85887   0.17348   0.64936   0.00000  Uiso   1.00
C741   C     0.92687   0.21412   0.50923   0.00000  Uiso   1.00
H742   H     0.92949   0.23745   0.90937   0.00000  Uiso   1.00
H743   H     0.96174   0.22523   0.98533   0.00000  Uiso   1.00
C744   C     0.87189   0.19053   0.59445   0.00000  Uiso   1.00
C745   C     0.75203   0.14713   0.93955   0.00000  Uiso   1.00
C746   C     0.74310   0.13973   0.99415   0.00000  Uiso   1.00
C747   C     0.77344   0.15597   0.52045   0.00000  Uiso   1.00
C748   C     0.81213   0.18179   0.99290   0.00000  Uiso   1.00
C749   C     0.82133   0.18945   0.93756   0.00000  Uiso   1.00
C750   C     0.84482   0.19676   0.51785   0.00000  Uiso   1.00
C751   C     0.89017   0.21073   0.98620   0.00000  Uiso   1.00
C752   C     0.89692   0.22226   0.93304   0.00000  Uiso   1.00
C753   C     0.86102   0.21451   0.91032   0.00000  Uiso   1.00
C754   C     0.83431   0.19795   0.57353   0.00000  Uiso   1.00
C755   C     0.91877   0.20189   0.56298   0.00000  Uiso   1.00
C756   C     0.79201   0.17039   0.91062   0.00000  Uiso   1.00
H757   H     0.72953   0.13231   0.91916   0.00000  Uiso   1.00
H758   H     0.76700   0.14753   0.56217   0.00000  Uiso   1.00
H759   H     0.71344   0.12018   0.51582   0.00000  Uiso   1.00
H760   H     0.86573   0.22660   0.87053   0.00000  Uiso   1.00
C761   C     0.87121   0.31331   0.76281   0.00000  Uiso   1.00
C762   C     0.86982   0.02248   0.76319   0.00000  Uiso   1.00
H763   H     0.89826   0.03953   0.77186   0.00000  Uiso   1.00
C764   C     0.83266   0.04275   0.75188   0.00000  Uiso   1.00
C765   C     0.79570   0.02094   0.74156   0.00000  Uiso   1.00
H766   H     0.76657   0.03654   0.73308   0.00000  Uiso   1.00
C767   C     0.79648   0.31181   0.74129   0.00000  Uiso   1.00
H768   H     0.76778   0.29537   0.73251   0.00000  Uiso   1.00
C769   C     0.83415   0.29108   0.75148   0.00000  Uiso   1.00
C770   C     0.98527   0.14113   0.71583   0.00000  Uiso   1.00
C771   C     0.70005   0.14104   0.71590   0.00000  Uiso   1.00
N772   N     0.71426   0.16668   0.75002   0.00000  Uiso   1.00
C773   C     0.68112   0.19240   0.78380   0.00000  Uiso   1.00
C774   C     0.96676   0.19237   0.78341   0.00000  Uiso   1.00
H775   H     0.94129   0.21302   0.80995   0.00000  Uiso   1.00
N776   N     0.95239   0.16665   0.75001   0.00000  Uiso   1.00
N777   N     0.95662   0.20592   0.58599   0.00000  Uiso   1.00
O778   O     0.95001   0.22759   0.62990   0.00000  Uiso   1.00
O779   O     0.99995   0.19716   0.55689   0.00000  Uiso   1.00
C780   C     0.97076   0.11445   0.67927   0.00000  Uiso   1.00
N781   N     0.95942   0.09299   0.64980   0.00000  Uiso   1.00
C782   C     0.73422   0.11380   0.67982   0.00000  Uiso   1.00
N783   N     0.76139   0.09187   0.65065   0.00000  Uiso   1.00
N784   N     0.69416   0.21948   0.82017   0.00000  Uiso   1.00
O785   O     0.69096   0.20607   0.86800   0.00000  Uiso   1.00
O786   O     0.69484   0.25927   0.81209   0.00000  Uiso   1.00
N787   N     0.79155   0.21895   0.60614   0.00000  Uiso   1.00
O788   O     0.75561   0.22448   0.58840   0.00000  Uiso   1.00
O789   O     0.79368   0.24230   0.64608   0.00000  Uiso   1.00
N790   N     0.91043   0.29375   0.77382   0.00000  Uiso   1.00
O791   O     0.91539   0.29816   0.82126   0.00000  Uiso   1.00
O792   O     0.94676   0.28173   0.73371   0.00000  Uiso   1.00
O793   O     0.12846   0.56108   0.75001   0.00000  Uiso   1.00
O794   O     0.20490   0.56107   0.75001   0.00000  Uiso   1.00
C795   C     0.16683   0.58009   0.75065   0.00000  Uiso   1.00
O796   O     0.10947   0.50000   0.82681   0.00000  Uiso   1.00
O797   O     0.18591   0.49999   0.82681   0.00000  Uiso   1.00
C798   C     0.14073   0.50168   0.85194   0.00000  Uiso   1.00
Zn799  Zn    0.11562   0.50001   0.75000   0.00000  Uiso   1.00
Zn800  Zn    0.21771   0.49999   0.75000   0.00000  Uiso   1.00
O801   O     0.12843   0.43893   0.75000   0.00000  Uiso   1.00
O802   O     0.20488   0.43892   0.75000   0.00000  Uiso   1.00
O803   O     0.14742   0.50001   0.67319   0.00000  Uiso   1.00
O804   O     0.22387   0.50000   0.67319   0.00000  Uiso   1.00
C805   C     0.16641   0.42007   0.75045   0.00000  Uiso   1.00
C806   C     0.19221   0.50682   0.64936   0.00000  Uiso   1.00
C807   C     0.26020   0.54746   0.50923   0.00000  Uiso   1.00
H808   H     0.26282   0.57078   0.90937   0.00000  Uiso   1.00
H809   H     0.29507   0.55856   0.98533   0.00000  Uiso   1.00
C810   C     0.20523   0.52387   0.59445   0.00000  Uiso   1.00
C811   C     0.08536   0.48047   0.93955   0.00000  Uiso   1.00
C812   C     0.07643   0.47306   0.99415   0.00000  Uiso   1.00
C813   C     0.10677   0.48931   0.52045   0.00000  Uiso   1.00
C814   C     0.14546   0.51512   0.99290   0.00000  Uiso   1.00
C815   C     0.15466   0.52278   0.93756   0.00000  Uiso   1.00
C816   C     0.17816   0.53010   0.51785   0.00000  Uiso   1.00
C817   C     0.22350   0.54407   0.98620   0.00000  Uiso   1.00
C818   C     0.23025   0.55560   0.93304   0.00000  Uiso   1.00
C819   C     0.19435   0.54784   0.91032   0.00000  Uiso   1.00
C820   C     0.16764   0.53128   0.57353   0.00000  Uiso   1.00
C821   C     0.25210   0.53522   0.56298   0.00000  Uiso   1.00
C822   C     0.12534   0.50372   0.91062   0.00000  Uiso   1.00
H823   H     0.06287   0.46564   0.91916   0.00000  Uiso   1.00
H824   H     0.10033   0.48086   0.56217   0.00000  Uiso   1.00
H825   H     0.04678   0.45351   0.51582   0.00000  Uiso   1.00
H826   H     0.19906   0.55993   0.87053   0.00000  Uiso   1.00
C827   C     0.20454   0.64664   0.76281   0.00000  Uiso   1.00
C828   C     0.20316   0.35582   0.76319   0.00000  Uiso   1.00
H829   H     0.23159   0.37286   0.77186   0.00000  Uiso   1.00
C830   C     0.16600   0.37608   0.75188   0.00000  Uiso   1.00
C831   C     0.12903   0.35427   0.74156   0.00000  Uiso   1.00
H832   H     0.09991   0.36987   0.73308   0.00000  Uiso   1.00
C833   C     0.12981   0.64514   0.74129   0.00000  Uiso   1.00
H834   H     0.10112   0.62871   0.73251   0.00000  Uiso   1.00
C835   C     0.16748   0.62441   0.75148   0.00000  Uiso   1.00
C836   C     0.31860   0.47446   0.71583   0.00000  Uiso   1.00
C837   C     0.03339   0.47438   0.71590   0.00000  Uiso   1.00
N838   N     0.04760   0.50001   0.75002   0.00000  Uiso   1.00
C839   C     0.01445   0.52574   0.78380   0.00000  Uiso   1.00
C840   C     0.30009   0.52570   0.78341   0.00000  Uiso   1.00
H841   H     0.27463   0.54635   0.80995   0.00000  Uiso   1.00
N842   N     0.28573   0.49998   0.75001   0.00000  Uiso   1.00
N843   N     0.28995   0.53926   0.58599   0.00000  Uiso   1.00
O844   O     0.28334   0.56092   0.62990   0.00000  Uiso   1.00
O845   O     0.33329   0.53049   0.55689   0.00000  Uiso   1.00
C846   C     0.30410   0.44779   0.67927   0.00000  Uiso   1.00
N847   N     0.29275   0.42632   0.64980   0.00000  Uiso   1.00
C848   C     0.06756   0.44713   0.67982   0.00000  Uiso   1.00
N849   N     0.09472   0.42520   0.65065   0.00000  Uiso   1.00
N850   N     0.02749   0.55281   0.82017   0.00000  Uiso   1.00
O851   O     0.02430   0.53941   0.86800   0.00000  Uiso   1.00
O852   O     0.02817   0.59260   0.81209   0.00000  Uiso   1.00
N853   N     0.12488   0.55229   0.60614   0.00000  Uiso   1.00
O854   O     0.08895   0.55781   0.58840   0.00000  Uiso   1.00
O855   O     0.12701   0.57563   0.64608   0.00000  Uiso   1.00
N856   N     0.24376   0.62709   0.77382   0.00000  Uiso   1.00
O857   O     0.24872   0.63149   0.82126   0.00000  Uiso   1.00
O858   O     0.28009   0.61507   0.73371   0.00000  Uiso   1.00
O859   O     0.46179   0.56108   0.75001   0.00000  Uiso   1.00
O860   O     0.53823   0.56107   0.75001   0.00000  Uiso   1.00
C861   C     0.50016   0.58009   0.75065   0.00000  Uiso   1.00
O862   O     0.44280   0.50000   0.82681   0.00000  Uiso   1.00
O863   O     0.51924   0.49999   0.82681   0.00000  Uiso   1.00
C864   C     0.47406   0.50168   0.85194   0.00000  Uiso   1.00
Zn865  Zn    0.44896   0.50001   0.75000   0.00000  Uiso   1.00
Zn866  Zn    0.55104   0.49999   0.75000   0.00000  Uiso   1.00
O867   O     0.46177   0.43893   0.75000   0.00000  Uiso   1.00
O868   O     0.53821   0.43892   0.75000   0.00000  Uiso   1.00
O869   O     0.48076   0.50001   0.67319   0.00000  Uiso   1.00
O870   O     0.55720   0.50000   0.67319   0.00000  Uiso   1.00
C871   C     0.49974   0.42007   0.75045   0.00000  Uiso   1.00
C872   C     0.52554   0.50682   0.64936   0.00000  Uiso   1.00
C873   C     0.59353   0.54746   0.50923   0.00000  Uiso   1.00
H874   H     0.59616   0.57078   0.90937   0.00000  Uiso   1.00
H875   H     0.62840   0.55856   0.98533   0.00000  Uiso   1.00
C876   C     0.53856   0.52387   0.59445   0.00000  Uiso   1.00
C877   C     0.41869   0.48047   0.93955   0.00000  Uiso   1.00
C878   C     0.40977   0.47306   0.99415   0.00000  Uiso   1.00
C879   C     0.44010   0.48931   0.52045   0.00000  Uiso   1.00
C880   C     0.47880   0.51512   0.99290   0.00000  Uiso   1.00
C881   C     0.48800   0.52278   0.93756   0.00000  Uiso   1.00
C882   C     0.51149   0.53010   0.51785   0.00000  Uiso   1.00
C883   C     0.55683   0.54407   0.98620   0.00000  Uiso   1.00
C884   C     0.56358   0.55560   0.93304   0.00000  Uiso   1.00
C885   C     0.52768   0.54784   0.91032   0.00000  Uiso   1.00
C886   C     0.50098   0.53128   0.57353   0.00000  Uiso   1.00
C887   C     0.58543   0.53522   0.56298   0.00000  Uiso   1.00
C888   C     0.45868   0.50372   0.91062   0.00000  Uiso   1.00
H889   H     0.39620   0.46564   0.91916   0.00000  Uiso   1.00
H890   H     0.43367   0.48086   0.56217   0.00000  Uiso   1.00
H891   H     0.38011   0.45351   0.51582   0.00000  Uiso   1.00
H892   H     0.53239   0.55993   0.87053   0.00000  Uiso   1.00
C893   C     0.53787   0.64664   0.76281   0.00000  Uiso   1.00
C894   C     0.53649   0.35582   0.76319   0.00000  Uiso   1.00
H895   H     0.56493   0.37286   0.77186   0.00000  Uiso   1.00
C896   C     0.49933   0.37608   0.75188   0.00000  Uiso   1.00
C897   C     0.46237   0.35427   0.74156   0.00000  Uiso   1.00
H898   H     0.43324   0.36987   0.73308   0.00000  Uiso   1.00
C899   C     0.46315   0.64514   0.74129   0.00000  Uiso   1.00
H900   H     0.43445   0.62871   0.73251   0.00000  Uiso   1.00
C901   C     0.50081   0.62441   0.75148   0.00000  Uiso   1.00
C902   C     0.65193   0.47446   0.71583   0.00000  Uiso   1.00
C903   C     0.36672   0.47438   0.71590   0.00000  Uiso   1.00
N904   N     0.38093   0.50001   0.75002   0.00000  Uiso   1.00
C905   C     0.34779   0.52574   0.78380   0.00000  Uiso   1.00
C906   C     0.63342   0.52570   0.78341   0.00000  Uiso   1.00
H907   H     0.60796   0.54635   0.80995   0.00000  Uiso   1.00
N908   N     0.61906   0.49998   0.75001   0.00000  Uiso   1.00
N909   N     0.62329   0.53926   0.58599   0.00000  Uiso   1.00
O910   O     0.61668   0.56092   0.62990   0.00000  Uiso   1.00
O911   O     0.66662   0.53049   0.55689   0.00000  Uiso   1.00
C912   C     0.63743   0.44779   0.67927   0.00000  Uiso   1.00
N913   N     0.62609   0.42632   0.64980   0.00000  Uiso   1.00
C914   C     0.40089   0.44713   0.67982   0.00000  Uiso   1.00
N915   N     0.42805   0.42520   0.65065   0.00000  Uiso   1.00
N916   N     0.36082   0.55281   0.82017   0.00000  Uiso   1.00
O917   O     0.35763   0.53941   0.86800   0.00000  Uiso   1.00
O918   O     0.36151   0.59260   0.81209   0.00000  Uiso   1.00
N919   N     0.45822   0.55229   0.60614   0.00000  Uiso   1.00
O920   O     0.42228   0.55781   0.58840   0.00000  Uiso   1.00
O921   O     0.46034   0.57563   0.64608   0.00000  Uiso   1.00
N922   N     0.57710   0.62709   0.77382   0.00000  Uiso   1.00
O923   O     0.58205   0.63149   0.82126   0.00000  Uiso   1.00
O924   O     0.61342   0.61507   0.73371   0.00000  Uiso   1.00
O925   O     0.79512   0.56108   0.75001   0.00000  Uiso   1.00
O926   O     0.87157   0.56107   0.75001   0.00000  Uiso   1.00
C927   C     0.83350   0.58009   0.75065   0.00000  Uiso   1.00
O928   O     0.77613   0.50000   0.82681   0.00000  Uiso   1.00
O929   O     0.85258   0.49999   0.82681   0.00000  Uiso   1.00
C930   C     0.80740   0.50168   0.85194   0.00000  Uiso   1.00
Zn931  Zn    0.78229   0.50001   0.75000   0.00000  Uiso   1.00
Zn932  Zn    0.88438   0.49999   0.75000   0.00000  Uiso   1.00
O933   O     0.79510   0.43893   0.75000   0.00000  Uiso   1.00
O934   O     0.87154   0.43892   0.75000   0.00000  Uiso   1.00
O935   O     0.81409   0.50001   0.67319   0.00000  Uiso   1.00
O936   O     0.89053   0.50000   0.67319   0.00000  Uiso   1.00
C937   C     0.83307   0.42007   0.75045   0.00000  Uiso   1.00
C938   C     0.85887   0.50682   0.64936   0.00000  Uiso   1.00
C939   C     0.92687   0.54746   0.50923   0.00000  Uiso   1.00
H940   H     0.92949   0.57078   0.90937   0.00000  Uiso   1.00
H941   H     0.96174   0.55856   0.98533   0.00000  Uiso   1.00
C942   C     0.87189   0.52387   0.59445   0.00000  Uiso   1.00
C943   C     0.75203   0.48047   0.93955   0.00000  Uiso   1.00
C944   C     0.74310   0.47306   0.99415   0.00000  Uiso   1.00
C945   C     0.77344   0.48931   0.52045   0.00000  Uiso   1.00
C946   C     0.81213   0.51512   0.99290   0.00000  Uiso   1.00
C947   C     0.82133   0.52278   0.93756   0.00000  Uiso   1.00
C948   C     0.84482   0.53010   0.51785   0.00000  Uiso   1.00
C949   C     0.89017   0.54407   0.98620   0.00000  Uiso   1.00
C950   C     0.89692   0.55560   0.93304   0.00000  Uiso   1.00
C951   C     0.86102   0.54784   0.91032   0.00000  Uiso   1.00
C952   C     0.83431   0.53128   0.57353   0.00000  Uiso   1.00
C953   C     0.91877   0.53522   0.56298   0.00000  Uiso   1.00
C954   C     0.79201   0.50372   0.91062   0.00000  Uiso   1.00
H955   H     0.72953   0.46564   0.91916   0.00000  Uiso   1.00
H956   H     0.76700   0.48086   0.56217   0.00000  Uiso   1.00
H957   H     0.71344   0.45351   0.51582   0.00000  Uiso   1.00
H958   H     0.86573   0.55993   0.87053   0.00000  Uiso   1.00
C959   C     0.87121   0.64664   0.76281   0.00000  Uiso   1.00
C960   C     0.86982   0.35582   0.76319   0.00000  Uiso   1.00
H961   H     0.89826   0.37286   0.77186   0.00000  Uiso   1.00
C962   C     0.83266   0.37608   0.75188   0.00000  Uiso   1.00
C963   C     0.79570   0.35427   0.74156   0.00000  Uiso   1.00
H964   H     0.76657   0.36987   0.73308   0.00000  Uiso   1.00
C965   C     0.79648   0.64514   0.74129   0.00000  Uiso   1.00
H966   H     0.76778   0.62871   0.73251   0.00000  Uiso   1.00
C967   C     0.83415   0.62441   0.75148   0.00000  Uiso   1.00
C968   C     0.98527   0.47446   0.71583   0.00000  Uiso   1.00
C969   C     0.70005   0.47438   0.71590   0.00000  Uiso   1.00
N970   N     0.71426   0.50001   0.75002   0.00000  Uiso   1.00
C971   C     0.68112   0.52574   0.78380   0.00000  Uiso   1.00
C972   C     0.96676   0.52570   0.78341   0.00000  Uiso   1.00
H973   H     0.94129   0.54635   0.80995   0.00000  Uiso   1.00
N974   N     0.95239   0.49998   0.75001   0.00000  Uiso   1.00
N975   N     0.95662   0.53926   0.58599   0.00000  Uiso   1.00
O976   O     0.95001   0.56092   0.62990   0.00000  Uiso   1.00
O977   O     0.99995   0.53049   0.55689   0.00000  Uiso   1.00
C978   C     0.97076   0.44779   0.67927   0.00000  Uiso   1.00
N979   N     0.95942   0.42632   0.64980   0.00000  Uiso   1.00
C980   C     0.73422   0.44713   0.67982   0.00000  Uiso   1.00
N981   N     0.76139   0.42520   0.65065   0.00000  Uiso   1.00
N982   N     0.69416   0.55281   0.82017   0.00000  Uiso   1.00
O983   O     0.69096   0.53941   0.86800   0.00000  Uiso   1.00
O984   O     0.69484   0.59260   0.81209   0.00000  Uiso   1.00
N985   N     0.79155   0.55229   0.60614   0.00000  Uiso   1.00
O986   O     0.75561   0.55781   0.58840   0.00000  Uiso   1.00
O987   O     0.79368   0.57563   0.64608   0.00000  Uiso   1.00
N988   N     0.91043   0.62709   0.77382   0.00000  Uiso   1.00
O989   O     0.91539   0.63149   0.82126   0.00000  Uiso   1.00
O990   O     0.94676   0.61507   0.73371   0.00000  Uiso   1.00
O991   O     0.12846   0.89442   0.75001   0.00000  Uiso   1.00
O992   O     0.20490   0.89441   0.75001   0.00000  Uiso   1.00
C993   C     0.16683   0.91342   0.75065   0.00000  Uiso   1.00
O994   O     0.10947   0.83333   0.82681   0.00000  Uiso   1.00
O995   O     0.18591   0.83332   0.82681   0.00000  Uiso   1.00
C996   C     0.14073   0.83502   0.85194   0.00000  Uiso   1.00
Zn997  Zn    0.11562   0.83334   0.75000   0.00000  Uiso   1.00
Zn998  Zn    0.21771   0.83333   0.75000   0.00000  Uiso   1.00
O999   O     0.12843   0.77226   0.75000   0.00000  Uiso   1.00
O1000  O     0.20488   0.77225   0.75000   0.00000  Uiso   1.00
O1001  O     0.14742   0.83335   0.67319   0.00000  Uiso   1.00
O1002  O     0.22387   0.83334   0.67319   0.00000  Uiso   1.00
C1003  C     0.16641   0.75340   0.75045   0.00000  Uiso   1.00
C1004  C     0.19221   0.84015   0.64936   0.00000  Uiso   1.00
C1005  C     0.26020   0.88079   0.50923   0.00000  Uiso   1.00
H1006  H     0.26282   0.90412   0.90937   0.00000  Uiso   1.00
H1007  H     0.29507   0.89190   0.98533   0.00000  Uiso   1.00
C1008  C     0.20523   0.85720   0.59445   0.00000  Uiso   1.00
C1009  C     0.08536   0.81380   0.93955   0.00000  Uiso   1.00
C1010  C     0.07643   0.80639   0.99415   0.00000  Uiso   1.00
C1011  C     0.10677   0.82264   0.52045   0.00000  Uiso   1.00
C1012  C     0.14546   0.84846   0.99290   0.00000  Uiso   1.00
C1013  C     0.15466   0.85612   0.93756   0.00000  Uiso   1.00
C1014  C     0.17816   0.86343   0.51785   0.00000  Uiso   1.00
C1015  C     0.22350   0.87740   0.98620   0.00000  Uiso   1.00
C1016  C     0.23025   0.88893   0.93304   0.00000  Uiso   1.00
C1017  C     0.19435   0.88117   0.91032   0.00000  Uiso   1.00
C1018  C     0.16764   0.86461   0.57353   0.00000  Uiso   1.00
C1019  C     0.25210   0.86856   0.56298   0.00000  Uiso   1.00
C1020  C     0.12534   0.83705   0.91062   0.00000  Uiso   1.00
H1021  H     0.06287   0.79897   0.91916   0.00000  Uiso   1.00
H1022  H     0.10033   0.81419   0.56217   0.00000  Uiso   1.00
H1023  H     0.04678   0.78685   0.51582   0.00000  Uiso   1.00
H1024  H     0.19906   0.89327   0.87053   0.00000  Uiso   1.00
C1025  C     0.20454   0.97998   0.76281   0.00000  Uiso   1.00
C1026  C     0.20316   0.68915   0.76319   0.00000  Uiso   1.00
H1027  H     0.23159   0.70620   0.77186   0.00000  Uiso   1.00
C1028  C     0.16600   0.70941   0.75188   0.00000  Uiso   1.00
C1029  C     0.12903   0.68760   0.74156   0.00000  Uiso   1.00
H1030  H     0.09991   0.70320   0.73308   0.00000  Uiso   1.00
C1031  C     0.12981   0.97848   0.74129   0.00000  Uiso   1.00
H1032  H     0.10112   0.96204   0.73251   0.00000  Uiso   1.00
C1033  C     0.16748   0.95775   0.75148   0.00000  Uiso   1.00
C1034  C     0.31860   0.80779   0.71583   0.00000  Uiso   1.00
C1035  C     0.03339   0.80771   0.71590   0.00000  Uiso   1.00
N1036  N     0.04760   0.83334   0.75002   0.00000  Uiso   1.00
C1037  C     0.01445   0.85907   0.78380   0.00000  Uiso   1.00
C1038  C     0.30009   0.85904   0.78341   0.00000  Uiso   1.00
H1039  H     0.27463   0.87969   0.80995   0.00000  Uiso   1.00
N1040  N     0.28573   0.83331   0.75001   0.00000  Uiso   1.00
N1041  N     0.28995   0.87259   0.58599   0.00000  Uiso   1.00
O1042  O     0.28334   0.89426   0.62990   0.00000  Uiso   1.00
O1043  O     0.33329   0.86382   0.55689   0.00000  Uiso   1.00
C1044  C     0.30410   0.78112   0.67927   0.00000  Uiso   1.00
N1045  N     0.29275   0.75965   0.64980   0.00000  Uiso   1.00
C1046  C     0.06756   0.78046   0.67982   0.00000  Uiso   1.00
N1047  N     0.09472   0.75853   0.65065   0.00000  Uiso   1.00
N1048  N     0.02749   0.88615   0.82017   0.00000  Uiso   1.00
O1049  O     0.02430   0.87274   0.86800   0.00000  Uiso   1.00
O1050  O     0.02817   0.92593   0.81209   0.00000  Uiso   1.00
N1051  N     0.12488   0.88562   0.60614   0.00000  Uiso   1.00
O1052  O     0.08895   0.89114   0.58840   0.00000  Uiso   1.00
O1053  O     0.12701   0.90896   0.64608   0.00000  Uiso   1.00
N1054  N     0.24376   0.96042   0.77382   0.00000  Uiso   1.00
O1055  O     0.24872   0.96482   0.82126   0.00000  Uiso   1.00
O1056  O     0.28009   0.94840   0.73371   0.00000  Uiso   1.00
O1057  O     0.46179   0.89442   0.75001   0.00000  Uiso   1.00
O1058  O     0.53823   0.89441   0.75001   0.00000  Uiso   1.00
C1059  C     0.50016   0.91342   0.75065   0.00000  Uiso   1.00
O1060  O     0.44280   0.83333   0.82681   0.00000  Uiso   1.00
O1061  O     0.51924   0.83332   0.82681   0.00000  Uiso   1.00
C1062  C     0.47406   0.83502   0.85194   0.00000  Uiso   1.00
Zn1063 Zn    0.44896   0.83334   0.75000   0.00000  Uiso   1.00
Zn1064 Zn    0.55104   0.83333   0.75000   0.00000  Uiso   1.00
O1065  O     0.46177   0.77226   0.75000   0.00000  Uiso   1.00
O1066  O     0.53821   0.77225   0.75000   0.00000  Uiso   1.00
O1067  O     0.48076   0.83335   0.67319   0.00000  Uiso   1.00
O1068  O     0.55720   0.83334   0.67319   0.00000  Uiso   1.00
C1069  C     0.49974   0.75340   0.75045   0.00000  Uiso   1.00
C1070  C     0.52554   0.84015   0.64936   0.00000  Uiso   1.00
C1071  C     0.59353   0.88079   0.50923   0.00000  Uiso   1.00
H1072  H     0.59616   0.90412   0.90937   0.00000  Uiso   1.00
H1073  H     0.62840   0.89190   0.98533   0.00000  Uiso   1.00
C1074  C     0.53856   0.85720   0.59445   0.00000  Uiso   1.00
C1075  C     0.41869   0.81380   0.93955   0.00000  Uiso   1.00
C1076  C     0.40977   0.80639   0.99415   0.00000  Uiso   1.00
C1077  C     0.44010   0.82264   0.52045   0.00000  Uiso   1.00
C1078  C     0.47880   0.84846   0.99290   0.00000  Uiso   1.00
C1079  C     0.48800   0.85612   0.93756   0.00000  Uiso   1.00
C1080  C     0.51149   0.86343   0.51785   0.00000  Uiso   1.00
C1081  C     0.55683   0.87740   0.98620   0.00000  Uiso   1.00
C1082  C     0.56358   0.88893   0.93304   0.00000  Uiso   1.00
C1083  C     0.52768   0.88117   0.91032   0.00000  Uiso   1.00
C1084  C     0.50098   0.86461   0.57353   0.00000  Uiso   1.00
C1085  C     0.58543   0.86856   0.56298   0.00000  Uiso   1.00
C1086  C     0.45868   0.83705   0.91062   0.00000  Uiso   1.00
H1087  H     0.39620   0.79897   0.91916   0.00000  Uiso   1.00
H1088  H     0.43367   0.81419   0.56217   0.00000  Uiso   1.00
H1089  H     0.38011   0.78685   0.51582   0.00000  Uiso   1.00
H1090  H     0.53239   0.89327   0.87053   0.00000  Uiso   1.00
C1091  C     0.53787   0.97998   0.76281   0.00000  Uiso   1.00
C1092  C     0.53649   0.68915   0.76319   0.00000  Uiso   1.00
H1093  H     0.56493   0.70620   0.77186   0.00000  Uiso   1.00
C1094  C     0.49933   0.70941   0.75188   0.00000  Uiso   1.00
C1095  C     0.46237   0.68760   0.74156   0.00000  Uiso   1.00
H1096  H     0.43324   0.70320   0.73308   0.00000  Uiso   1.00
C1097  C     0.46315   0.97848   0.74129   0.00000  Uiso   1.00
H1098  H     0.43445   0.96204   0.73251   0.00000  Uiso   1.00
C1099  C     0.50081   0.95775   0.75148   0.00000  Uiso   1.00
C1100  C     0.65193   0.80779   0.71583   0.00000  Uiso   1.00
C1101  C     0.36672   0.80771   0.71590   0.00000  Uiso   1.00
N1102  N     0.38093   0.83334   0.75002   0.00000  Uiso   1.00
C1103  C     0.34779   0.85907   0.78380   0.00000  Uiso   1.00
C1104  C     0.63342   0.85904   0.78341   0.00000  Uiso   1.00
H1105  H     0.60796   0.87969   0.80995   0.00000  Uiso   1.00
N1106  N     0.61906   0.83331   0.75001   0.00000  Uiso   1.00
N1107  N     0.62329   0.87259   0.58599   0.00000  Uiso   1.00
O1108  O     0.61668   0.89426   0.62990   0.00000  Uiso   1.00
O1109  O     0.66662   0.86382   0.55689   0.00000  Uiso   1.00
C1110  C     0.63743   0.78112   0.67927   0.00000  Uiso   1.00
N1111  N     0.62609   0.75965   0.64980   0.00000  Uiso   1.00
C1112  C     0.40089   0.78046   0.67982   0.00000  Uiso   1.00
N1113  N     0.42805   0.75853   0.65065   0.00000  Uiso   1.00
N1114  N     0.36082   0.88615   0.82017   0.00000  Uiso   1.00
O1115  O     0.35763   0.87274   0.86800   0.00000  Uiso   1.00
O1116  O     0.36151   0.92593   0.81209   0.00000  Uiso   1.00
N1117  N     0.45822   0.88562   0.60614   0.00000  Uiso   1.00
O1118  O     0.42228   0.89114   0.58840   0.00000  Uiso   1.00
O1119  O     0.46034   0.90896   0.64608   0.00000  Uiso   1.00
N1120  N     0.57710   0.96042   0.77382   0.00000  Uiso   1.00
O1121  O     0.58205   0.96482   0.82126   0.00000  Uiso   1.00
O1122  O     0.61342   0.94840   0.73371   0.00000  Uiso   1.00
O1123  O     0.79512   0.89442   0.75001   0.00000  Uiso   1.00
O1124  O     0.87157   0.89441   0.75001   0.00000  Uiso   1.00
C1125  C     0.83350   0.91342   0.75065   0.00000  Uiso   1.00
O1126  O     0.77613   0.83333   0.82681   0.00000  Uiso   1.00
O1127  O     0.85258   0.83332   0.82681   0.00000  Uiso   1.00
C1128  C     0.80740   0.83502   0.85194   0.00000  Uiso   1.00
Zn1129 Zn    0.78229   0.83334   0.75000   0.00000  Uiso   1.00
Zn1130 Zn    0.88438   0.83333   0.75000   0.00000  Uiso   1.00
O1131  O     0.79510   0.77226   0.75000   0.00000  Uiso   1.00
O1132  O     0.87154   0.77225   0.75000   0.00000  Uiso   1.00
O1133  O     0.81409   0.83335   0.67319   0.00000  Uiso   1.00
O1134  O     0.89053   0.83334   0.67319   0.00000  Uiso   1.00
C1135  C     0.83307   0.75340   0.75045   0.00000  Uiso   1.00
C1136  C     0.85887   0.84015   0.64936   0.00000  Uiso   1.00
C1137  C     0.92687   0.88079   0.50923   0.00000  Uiso   1.00
H1138  H     0.92949   0.90412   0.90937   0.00000  Uiso   1.00
H1139  H     0.96174   0.89190   0.98533   0.00000  Uiso   1.00
C1140  C     0.87189   0.85720   0.59445   0.00000  Uiso   1.00
C1141  C     0.75203   0.81380   0.93955   0.00000  Uiso   1.00
C1142  C     0.74310   0.80639   0.99415   0.00000  Uiso   1.00
C1143  C     0.77344   0.82264   0.52045   0.00000  Uiso   1.00
C1144  C     0.81213   0.84846   0.99290   0.00000  Uiso   1.00
C1145  C     0.82133   0.85612   0.93756   0.00000  Uiso   1.00
C1146  C     0.84482   0.86343   0.51785   0.00000  Uiso   1.00
C1147  C     0.89017   0.87740   0.98620   0.00000  Uiso   1.00
C1148  C     0.89692   0.88893   0.93304   0.00000  Uiso   1.00
C1149  C     0.86102   0.88117   0.91032   0.00000  Uiso   1.00
C1150  C     0.83431   0.86461   0.57353   0.00000  Uiso   1.00
C1151  C     0.91877   0.86856   0.56298   0.00000  Uiso   1.00
C1152  C     0.79201   0.83705   0.91062   0.00000  Uiso   1.00
H1153  H     0.72953   0.79897   0.91916   0.00000  Uiso   1.00
H1154  H     0.76700   0.81419   0.56217   0.00000  Uiso   1.00
H1155  H     0.71344   0.78685   0.51582   0.00000  Uiso   1.00
H1156  H     0.86573   0.89327   0.87053   0.00000  Uiso   1.00
C1157  C     0.87121   0.97998   0.76281   0.00000  Uiso   1.00
C1158  C     0.86982   0.68915   0.76319   0.00000  Uiso   1.00
H1159  H     0.89826   0.70620   0.77186   0.00000  Uiso   1.00
C1160  C     0.83266   0.70941   0.75188   0.00000  Uiso   1.00
C1161  C     0.79570   0.68760   0.74156   0.00000  Uiso   1.00
H1162  H     0.76657   0.70320   0.73308   0.00000  Uiso   1.00
C1163  C     0.79648   0.97848   0.74129   0.00000  Uiso   1.00
H1164  H     0.76778   0.96204   0.73251   0.00000  Uiso   1.00
C1165  C     0.83415   0.95775   0.75148   0.00000  Uiso   1.00
C1166  C     0.98527   0.80779   0.71583   0.00000  Uiso   1.00
C1167  C     0.70005   0.80771   0.71590   0.00000  Uiso   1.00
N1168  N     0.71426   0.83334   0.75002   0.00000  Uiso   1.00
C1169  C     0.68112   0.85907   0.78380   0.00000  Uiso   1.00
C1170  C     0.96676   0.85904   0.78341   0.00000  Uiso   1.00
H1171  H     0.94129   0.87969   0.80995   0.00000  Uiso   1.00
N1172  N     0.95239   0.83331   0.75001   0.00000  Uiso   1.00
N1173  N     0.95662   0.87259   0.58599   0.00000  Uiso   1.00
O1174  O     0.95001   0.89426   0.62990   0.00000  Uiso   1.00
O1175  O     0.99995   0.86382   0.55689   0.00000  Uiso   1.00
C1176  C     0.97076   0.78112   0.67927   0.00000  Uiso   1.00
N1177  N     0.95942   0.75965   0.64980   0.00000  Uiso   1.00
C1178  C     0.73422   0.78046   0.67982   0.00000  Uiso   1.00
N1179  N     0.76139   0.75853   0.65065   0.00000  Uiso   1.00
N1180  N     0.69416   0.88615   0.82017   0.00000  Uiso   1.00
O1181  O     0.69096   0.87274   0.86800   0.00000  Uiso   1.00
O1182  O     0.69484   0.92593   0.81209   0.00000  Uiso   1.00
N1183  N     0.79155   0.88562   0.60614   0.00000  Uiso   1.00
O1184  O     0.75561   0.89114   0.58840   0.00000  Uiso   1.00
O1185  O     0.79368   0.90896   0.64608   0.00000  Uiso   1.00
N1186  N     0.91043   0.96042   0.77382   0.00000  Uiso   1.00
O1187  O     0.91539   0.96482   0.82126   0.00000  Uiso   1.00
O1188  O     0.94676   0.94840   0.73371   0.00000  Uiso   1.00
loop_
_geom_bond_atom_site_label_1
_geom_bond_atom_site_label_2
_geom_bond_distance
_geom_bond_site_symmetry_2
_ccdc_geom_bond_type
O1     Zn7     2.003   .     S
O1     C3      1.293   .     A
O2     C3      1.281   .     A
O2     Zn8     2.008   .     S
C3     C43     1.429   .     S
O4     Zn7     1.958   .     S
O4     C6      1.294   .     A
O5     Zn8     1.929   .     S
O5     C6      1.292   .     A
C6     C30     1.457   .     S
Zn7    N46     2.014   .     S
Zn7    O11     1.929   .     S
Zn7    O9      2.008   .     S
Zn8    O12     1.958   .     S
Zn8    N50     2.014   .     S
Zn8    O10     2.003   .     S
O9     C13     1.285   .     A
O10    C13     1.285   .     A
O11    C14     1.292   .     A
O12    C14     1.299   .     A
C13    C38     1.419   .     S
C14    C18     1.472   .     S
C15    C29     1.407   .     A
C15    H611    1.084   1_554 S
C15    C619    1.402   1_554 S
H16    C26     1.083   .     S
H17    C609    1.084   .     S
C18    C28     1.409   .     A
C18    C29     1.419   .     A
C19    H31     1.084   .     S
C19    C30     1.402   .     A
C19    C20     1.389   .     A
C20    C615    1.391   .     S
C20    H627    1.083   .     S
C21    H32     1.082   .     S
C21    C614    1.391   1_554 S
C21    C616    1.414   1_554 S
C22    C23     1.408   .     A
C22    C615    1.414   .     S
C22    C618    1.409   .     S
C23    C27     1.417   .     A
C23    C30     1.415   .     A
C24    C28     1.389   .     A
C24    C616    1.409   1_554 S
C24    C619    1.409   1_554 S
C25    C26     1.392   .     A
C25    C609    1.402   .     S
C25    C618    1.409   .     S
C26    C27     1.393   .     A
C27    H34     1.079   .     S
C28    N61     1.452   .     S
C29    N51     1.435   .     S
H33    C614    1.083   1_554 S
C35    N64     1.432   .     S
C35    C43     1.414   .     A
C35    C234    1.371   .     S
C36    C38     1.393   .     A
C36    H37     1.084   .     S
C36    C431    1.371   1_545 S
C38    C39     1.393   .     A
C39    H40     1.083   .     S
C39    C437    1.369   1_545 S
C41    H42     1.083   .     S
C41    C43     1.400   .     A
C41    C237    1.369   .     S
C44    C54     1.443   .     S
C44    N50     1.368   .     A
C44    C111    1.425   .     S
C45    N46     1.371   .     A
C45    C56     1.443   .     S
C45    C176    1.425   1_455 S
N46    C47     1.372   .     A
C47    N58     1.426   .     S
C47    C180    1.415   1_455 S
C48    N50     1.361   .     A
C48    H49     1.078   .     S
C48    C113    1.415   .     S
N51    O53     1.299   .     A
N51    O52     1.301   .     A
C54    N55     1.157   .     T
C56    N57     1.158   .     T
N58    O60     1.300   .     A
N58    O59     1.300   .     A
N61    O62     1.301   .     A
N61    O63     1.301   .     A
N64    O65     1.301   .     A
N64    O66     1.301   .     A
O67    Zn73    2.003   .     S
O67    C69     1.293   .     A
O68    C69     1.281   .     A
O68    Zn74    2.008   .     S
C69    C109    1.429   .     S
O70    Zn73    1.958   .     S
O70    C72     1.294   .     A
O71    Zn74    1.929   .     S
O71    C72     1.292   .     A
C72    C96     1.457   .     S
Zn73   N112    2.014   .     S
Zn73   O77     1.929   .     S
Zn73   O75     2.008   .     S
Zn74   O78     1.958   .     S
Zn74   N116    2.014   .     S
Zn74   O76     2.003   .     S
O75    C79     1.285   .     A
O76    C79     1.285   .     A
O77    C80     1.292   .     A
O78    C80     1.299   .     A
C79    C104    1.419   .     S
C80    C84     1.472   .     S
C81    C95     1.407   .     A
C81    H677    1.084   1_554 S
C81    C685    1.402   1_554 S
H82    C92     1.083   .     S
H83    C675    1.084   .     S
C84    C94     1.409   .     A
C84    C95     1.419   .     A
C85    H97     1.084   .     S
C85    C96     1.402   .     A
C85    C86     1.389   .     A
C86    C681    1.391   .     S
C86    H693    1.083   .     S
C87    H98     1.082   .     S
C87    C680    1.391   1_554 S
C87    C682    1.414   1_554 S
C88    C89     1.408   .     A
C88    C681    1.414   .     S
C88    C684    1.409   .     S
C89    C93     1.417   .     A
C89    C96     1.415   .     A
C90    C94     1.389   .     A
C90    C682    1.409   1_554 S
C90    C685    1.409   1_554 S
C91    C92     1.392   .     A
C91    C675    1.402   .     S
C91    C684    1.409   .     S
C92    C93     1.393   .     A
C93    H100    1.079   .     S
C94    N127    1.452   .     S
C95    N117    1.435   .     S
H99    C680    1.083   1_554 S
C101   N130    1.432   .     S
C101   C109    1.414   .     A
C101   C300    1.371   .     S
C102   C104    1.393   .     A
C102   H103    1.084   .     S
C102   C497    1.371   1_545 S
C104   C105    1.393   .     A
C105   H106    1.083   .     S
C105   C503    1.369   1_545 S
C107   H108    1.083   .     S
C107   C109    1.400   .     A
C107   C303    1.369   .     S
C110   C120    1.443   .     S
C110   N116    1.368   .     A
C110   C177    1.425   .     S
C111   N112    1.371   .     A
C111   C122    1.443   .     S
N112   C113    1.372   .     A
C113   N124    1.426   .     S
C114   N116    1.361   .     A
C114   H115    1.078   .     S
C114   C179    1.415   .     S
N117   O119    1.299   .     A
N117   O118    1.301   .     A
C120   N121    1.157   .     T
C122   N123    1.158   .     T
N124   O126    1.300   .     A
N124   O125    1.300   .     A
N127   O128    1.301   .     A
N127   O129    1.301   .     A
N130   O131    1.301   .     A
N130   O132    1.301   .     A
O133   Zn139   2.003   .     S
O133   C135    1.293   .     A
O134   C135    1.281   .     A
O134   Zn140   2.008   .     S
C135   C175    1.429   .     S
O136   Zn139   1.958   .     S
O136   C138    1.294   .     A
O137   Zn140   1.929   .     S
O137   C138    1.292   .     A
C138   C162    1.457   .     S
Zn139  N178    2.014   .     S
Zn139  O143    1.929   .     S
Zn139  O141    2.008   .     S
Zn140  O144    1.958   .     S
Zn140  N182    2.014   .     S
Zn140  O142    2.003   .     S
O141   C145    1.285   .     A
O142   C145    1.285   .     A
O143   C146    1.292   .     A
O144   C146    1.299   .     A
C145   C170    1.419   .     S
C146   C150    1.472   .     S
C147   C161    1.407   .     A
C147   H743    1.084   1_554 S
C147   C751    1.402   1_554 S
H148   C158    1.083   .     S
H149   C741    1.084   .     S
C150   C160    1.409   .     A
C150   C161    1.419   .     A
C151   H163    1.084   .     S
C151   C162    1.402   .     A
C151   C152    1.389   .     A
C152   C747    1.391   .     S
C152   H759    1.083   .     S
C153   H164    1.082   .     S
C153   C746    1.391   1_554 S
C153   C748    1.414   1_554 S
C154   C155    1.408   .     A
C154   C747    1.414   .     S
C154   C750    1.409   .     S
C155   C159    1.417   .     A
C155   C162    1.415   .     A
C156   C160    1.389   .     A
C156   C748    1.409   1_554 S
C156   C751    1.409   1_554 S
C157   C158    1.392   .     A
C157   C741    1.402   .     S
C157   C750    1.409   .     S
C158   C159    1.393   .     A
C159   H166    1.079   .     S
C160   N193    1.452   .     S
C161   N183    1.435   .     S
H165   C746    1.083   1_554 S
C167   N196    1.432   .     S
C167   C175    1.414   .     A
C167   C366    1.371   .     S
C168   C170    1.393   .     A
C168   H169    1.084   .     S
C168   C563    1.371   1_545 S
C170   C171    1.393   .     A
C171   H172    1.083   .     S
C171   C569    1.369   1_545 S
C173   H174    1.083   .     S
C173   C175    1.400   .     A
C173   C369    1.369   .     S
C176   C186    1.443   .     S
C176   N182    1.368   .     A
C176   C45     1.425   1_655 S
C177   N178    1.371   .     A
C177   C188    1.443   .     S
N178   C179    1.372   .     A
C179   N190    1.426   .     S
C180   N182    1.361   .     A
C180   H181    1.078   .     S
C180   C47     1.415   1_655 S
N183   O185    1.299   .     A
N183   O184    1.301   .     A
C186   N187    1.157   .     T
C188   N189    1.158   .     T
N190   O192    1.300   .     A
N190   O191    1.300   .     A
N193   O194    1.301   .     A
N193   O195    1.301   .     A
N196   O197    1.301   .     A
N196   O198    1.301   .     A
O199   Zn205   2.003   .     S
O199   C201    1.293   .     A
O200   C201    1.281   .     A
O200   Zn206   2.008   .     S
C201   C241    1.429   .     S
O202   Zn205   1.958   .     S
O202   C204    1.294   .     A
O203   Zn206   1.929   .     S
O203   C204    1.292   .     A
C204   C228    1.457   .     S
Zn205  N244    2.014   .     S
Zn205  O209    1.929   .     S
Zn205  O207    2.008   .     S
Zn206  O210    1.958   .     S
Zn206  N248    2.014   .     S
Zn206  O208    2.003   .     S
O207   C211    1.285   .     A
O208   C211    1.285   .     A
O209   C212    1.292   .     A
O210   C212    1.299   .     A
C211   C236    1.419   .     S
C212   C216    1.472   .     S
C213   C227    1.407   .     A
C213   H809    1.084   1_554 S
C213   C817    1.402   1_554 S
H214   C224    1.083   .     S
H215   C807    1.084   .     S
C216   C226    1.409   .     A
C216   C227    1.419   .     A
C217   H229    1.084   .     S
C217   C228    1.402   .     A
C217   C218    1.389   .     A
C218   C813    1.391   .     S
C218   H825    1.083   .     S
C219   H230    1.082   .     S
C219   C812    1.391   1_554 S
C219   C814    1.414   1_554 S
C220   C221    1.408   .     A
C220   C813    1.414   .     S
C220   C816    1.409   .     S
C221   C225    1.417   .     A
C221   C228    1.415   .     A
C222   C226    1.389   .     A
C222   C814    1.409   1_554 S
C222   C817    1.409   1_554 S
C223   C224    1.392   .     A
C223   C807    1.402   .     S
C223   C816    1.409   .     S
C224   C225    1.393   .     A
C225   H232    1.079   .     S
C226   N259    1.452   .     S
C227   N249    1.435   .     S
H231   C812    1.083   1_554 S
C233   N262    1.432   .     S
C233   C241    1.414   .     A
C233   C432    1.371   .     S
C234   C236    1.393   .     A
C234   H235    1.084   .     S
C236   C237    1.393   .     A
C237   H238    1.083   .     S
C239   H240    1.083   .     S
C239   C241    1.400   .     A
C239   C435    1.369   .     S
C242   C252    1.443   .     S
C242   N248    1.368   .     A
C242   C309    1.425   .     S
C243   N244    1.371   .     A
C243   C254    1.443   .     S
C243   C374    1.425   1_455 S
N244   C245    1.372   .     A
C245   N256    1.426   .     S
C245   C378    1.415   1_455 S
C246   N248    1.361   .     A
C246   H247    1.078   .     S
C246   C311    1.415   .     S
N249   O251    1.299   .     A
N249   O250    1.301   .     A
C252   N253    1.157   .     T
C254   N255    1.158   .     T
N256   O258    1.300   .     A
N256   O257    1.300   .     A
N259   O260    1.301   .     A
N259   O261    1.301   .     A
N262   O263    1.301   .     A
N262   O264    1.301   .     A
O265   Zn271   2.003   .     S
O265   C267    1.293   .     A
O266   C267    1.281   .     A
O266   Zn272   2.008   .     S
C267   C307    1.429   .     S
O268   Zn271   1.958   .     S
O268   C270    1.294   .     A
O269   Zn272   1.929   .     S
O269   C270    1.292   .     A
C270   C294    1.457   .     S
Zn271  N310    2.014   .     S
Zn271  O275    1.929   .     S
Zn271  O273    2.008   .     S
Zn272  O276    1.958   .     S
Zn272  N314    2.014   .     S
Zn272  O274    2.003   .     S
O273   C277    1.285   .     A
O274   C277    1.285   .     A
O275   C278    1.292   .     A
O276   C278    1.299   .     A
C277   C302    1.419   .     S
C278   C282    1.472   .     S
C279   C293    1.407   .     A
C279   H875    1.084   1_554 S
C279   C883    1.402   1_554 S
H280   C290    1.083   .     S
H281   C873    1.084   .     S
C282   C292    1.409   .     A
C282   C293    1.419   .     A
C283   H295    1.084   .     S
C283   C294    1.402   .     A
C283   C284    1.389   .     A
C284   C879    1.391   .     S
C284   H891    1.083   .     S
C285   H296    1.082   .     S
C285   C878    1.391   1_554 S
C285   C880    1.414   1_554 S
C286   C287    1.408   .     A
C286   C879    1.414   .     S
C286   C882    1.409   .     S
C287   C291    1.417   .     A
C287   C294    1.415   .     A
C288   C292    1.389   .     A
C288   C880    1.409   1_554 S
C288   C883    1.409   1_554 S
C289   C290    1.392   .     A
C289   C873    1.402   .     S
C289   C882    1.409   .     S
C290   C291    1.393   .     A
C291   H298    1.079   .     S
C292   N325    1.452   .     S
C293   N315    1.435   .     S
H297   C878    1.083   1_554 S
C299   N328    1.432   .     S
C299   C307    1.414   .     A
C299   C498    1.371   .     S
C300   C302    1.393   .     A
C300   H301    1.084   .     S
C302   C303    1.393   .     A
C303   H304    1.083   .     S
C305   H306    1.083   .     S
C305   C307    1.400   .     A
C305   C501    1.369   .     S
C308   C318    1.443   .     S
C308   N314    1.368   .     A
C308   C375    1.425   .     S
C309   N310    1.371   .     A
C309   C320    1.443   .     S
N310   C311    1.372   .     A
C311   N322    1.426   .     S
C312   N314    1.361   .     A
C312   H313    1.078   .     S
C312   C377    1.415   .     S
N315   O317    1.299   .     A
N315   O316    1.301   .     A
C318   N319    1.157   .     T
C320   N321    1.158   .     T
N322   O324    1.300   .     A
N322   O323    1.300   .     A
N325   O326    1.301   .     A
N325   O327    1.301   .     A
N328   O329    1.301   .     A
N328   O330    1.301   .     A
O331   Zn337   2.003   .     S
O331   C333    1.293   .     A
O332   C333    1.281   .     A
O332   Zn338   2.008   .     S
C333   C373    1.429   .     S
O334   Zn337   1.958   .     S
O334   C336    1.294   .     A
O335   Zn338   1.929   .     S
O335   C336    1.292   .     A
C336   C360    1.457   .     S
Zn337  N376    2.014   .     S
Zn337  O341    1.929   .     S
Zn337  O339    2.008   .     S
Zn338  O342    1.958   .     S
Zn338  N380    2.014   .     S
Zn338  O340    2.003   .     S
O339   C343    1.285   .     A
O340   C343    1.285   .     A
O341   C344    1.292   .     A
O342   C344    1.299   .     A
C343   C368    1.419   .     S
C344   C348    1.472   .     S
C345   C359    1.407   .     A
C345   H941    1.084   1_554 S
C345   C949    1.402   1_554 S
H346   C356    1.083   .     S
H347   C939    1.084   .     S
C348   C358    1.409   .     A
C348   C359    1.419   .     A
C349   H361    1.084   .     S
C349   C360    1.402   .     A
C349   C350    1.389   .     A
C350   C945    1.391   .     S
C350   H957    1.083   .     S
C351   H362    1.082   .     S
C351   C944    1.391   1_554 S
C351   C946    1.414   1_554 S
C352   C353    1.408   .     A
C352   C945    1.414   .     S
C352   C948    1.409   .     S
C353   C357    1.417   .     A
C353   C360    1.415   .     A
C354   C358    1.389   .     A
C354   C946    1.409   1_554 S
C354   C949    1.409   1_554 S
C355   C356    1.392   .     A
C355   C939    1.402   .     S
C355   C948    1.409   .     S
C356   C357    1.393   .     A
C357   H364    1.079   .     S
C358   N391    1.452   .     S
C359   N381    1.435   .     S
H363   C944    1.083   1_554 S
C365   N394    1.432   .     S
C365   C373    1.414   .     A
C365   C564    1.371   .     S
C366   C368    1.393   .     A
C366   H367    1.084   .     S
C368   C369    1.393   .     A
C369   H370    1.083   .     S
C371   H372    1.083   .     S
C371   C373    1.400   .     A
C371   C567    1.369   .     S
C374   C384    1.443   .     S
C374   N380    1.368   .     A
C374   C243    1.425   1_655 S
C375   N376    1.371   .     A
C375   C386    1.443   .     S
N376   C377    1.372   .     A
C377   N388    1.426   .     S
C378   N380    1.361   .     A
C378   H379    1.078   .     S
C378   C245    1.415   1_655 S
N381   O383    1.299   .     A
N381   O382    1.301   .     A
C384   N385    1.157   .     T
C386   N387    1.158   .     T
N388   O390    1.300   .     A
N388   O389    1.300   .     A
N391   O392    1.301   .     A
N391   O393    1.301   .     A
N394   O395    1.301   .     A
N394   O396    1.301   .     A
O397   Zn403   2.003   .     S
O397   C399    1.293   .     A
O398   C399    1.281   .     A
O398   Zn404   2.008   .     S
C399   C439    1.429   .     S
O400   Zn403   1.958   .     S
O400   C402    1.294   .     A
O401   Zn404   1.929   .     S
O401   C402    1.292   .     A
C402   C426    1.457   .     S
Zn403  N442    2.014   .     S
Zn403  O407    1.929   .     S
Zn403  O405    2.008   .     S
Zn404  O408    1.958   .     S
Zn404  N446    2.014   .     S
Zn404  O406    2.003   .     S
O405   C409    1.285   .     A
O406   C409    1.285   .     A
O407   C410    1.292   .     A
O408   C410    1.299   .     A
C409   C434    1.419   .     S
C410   C414    1.472   .     S
C411   C425    1.407   .     A
C411   H1007   1.084   1_554 S
C411   C1015   1.402   1_554 S
H412   C422    1.083   .     S
H413   C1005   1.084   .     S
C414   C424    1.409   .     A
C414   C425    1.419   .     A
C415   H427    1.084   .     S
C415   C426    1.402   .     A
C415   C416    1.389   .     A
C416   C1011   1.391   .     S
C416   H1023   1.083   .     S
C417   H428    1.082   .     S
C417   C1010   1.391   1_554 S
C417   C1012   1.414   1_554 S
C418   C419    1.408   .     A
C418   C1011   1.414   .     S
C418   C1014   1.409   .     S
C419   C423    1.417   .     A
C419   C426    1.415   .     A
C420   C424    1.389   .     A
C420   C1012   1.409   1_554 S
C420   C1015   1.409   1_554 S
C421   C422    1.392   .     A
C421   C1005   1.402   .     S
C421   C1014   1.409   .     S
C422   C423    1.393   .     A
C423   H430    1.079   .     S
C424   N457    1.452   .     S
C425   N447    1.435   .     S
H429   C1010   1.083   1_554 S
C431   N460    1.432   .     S
C431   C439    1.414   .     A
C431   C36     1.371   1_565 S
C432   C434    1.393   .     A
C432   H433    1.084   .     S
C434   C435    1.393   .     A
C435   H436    1.083   .     S
C437   H438    1.083   .     S
C437   C439    1.400   .     A
C437   C39     1.369   1_565 S
C440   C450    1.443   .     S
C440   N446    1.368   .     A
C440   C507    1.425   .     S
C441   N442    1.371   .     A
C441   C452    1.443   .     S
C441   C572    1.425   1_455 S
N442   C443    1.372   .     A
C443   N454    1.426   .     S
C443   C576    1.415   1_455 S
C444   N446    1.361   .     A
C444   H445    1.078   .     S
C444   C509    1.415   .     S
N447   O449    1.299   .     A
N447   O448    1.301   .     A
C450   N451    1.157   .     T
C452   N453    1.158   .     T
N454   O456    1.300   .     A
N454   O455    1.300   .     A
N457   O458    1.301   .     A
N457   O459    1.301   .     A
N460   O461    1.301   .     A
N460   O462    1.301   .     A
O463   Zn469   2.003   .     S
O463   C465    1.293   .     A
O464   C465    1.281   .     A
O464   Zn470   2.008   .     S
C465   C505    1.429   .     S
O466   Zn469   1.958   .     S
O466   C468    1.294   .     A
O467   Zn470   1.929   .     S
O467   C468    1.292   .     A
C468   C492    1.457   .     S
Zn469  N508    2.014   .     S
Zn469  O473    1.929   .     S
Zn469  O471    2.008   .     S
Zn470  O474    1.958   .     S
Zn470  N512    2.014   .     S
Zn470  O472    2.003   .     S
O471   C475    1.285   .     A
O472   C475    1.285   .     A
O473   C476    1.292   .     A
O474   C476    1.299   .     A
C475   C500    1.419   .     S
C476   C480    1.472   .     S
C477   C491    1.407   .     A
C477   H1073   1.084   1_554 S
C477   C1081   1.402   1_554 S
H478   C488    1.083   .     S
H479   C1071   1.084   .     S
C480   C490    1.409   .     A
C480   C491    1.419   .     A
C481   H493    1.084   .     S
C481   C492    1.402   .     A
C481   C482    1.389   .     A
C482   C1077   1.391   .     S
C482   H1089   1.083   .     S
C483   H494    1.082   .     S
C483   C1076   1.391   1_554 S
C483   C1078   1.414   1_554 S
C484   C485    1.408   .     A
C484   C1077   1.414   .     S
C484   C1080   1.409   .     S
C485   C489    1.417   .     A
C485   C492    1.415   .     A
C486   C490    1.389   .     A
C486   C1078   1.409   1_554 S
C486   C1081   1.409   1_554 S
C487   C488    1.392   .     A
C487   C1071   1.402   .     S
C487   C1080   1.409   .     S
C488   C489    1.393   .     A
C489   H496    1.079   .     S
C490   N523    1.452   .     S
C491   N513    1.435   .     S
H495   C1076   1.083   1_554 S
C497   N526    1.432   .     S
C497   C505    1.414   .     A
C497   C102    1.371   1_565 S
C498   C500    1.393   .     A
C498   H499    1.084   .     S
C500   C501    1.393   .     A
C501   H502    1.083   .     S
C503   H504    1.083   .     S
C503   C505    1.400   .     A
C503   C105    1.369   1_565 S
C506   C516    1.443   .     S
C506   N512    1.368   .     A
C506   C573    1.425   .     S
C507   N508    1.371   .     A
C507   C518    1.443   .     S
N508   C509    1.372   .     A
C509   N520    1.426   .     S
C510   N512    1.361   .     A
C510   H511    1.078   .     S
C510   C575    1.415   .     S
N513   O515    1.299   .     A
N513   O514    1.301   .     A
C516   N517    1.157   .     T
C518   N519    1.158   .     T
N520   O522    1.300   .     A
N520   O521    1.300   .     A
N523   O524    1.301   .     A
N523   O525    1.301   .     A
N526   O527    1.301   .     A
N526   O528    1.301   .     A
O529   Zn535   2.003   .     S
O529   C531    1.293   .     A
O530   C531    1.281   .     A
O530   Zn536   2.008   .     S
C531   C571    1.429   .     S
O532   Zn535   1.958   .     S
O532   C534    1.294   .     A
O533   Zn536   1.929   .     S
O533   C534    1.292   .     A
C534   C558    1.457   .     S
Zn535  N574    2.014   .     S
Zn535  O539    1.929   .     S
Zn535  O537    2.008   .     S
Zn536  O540    1.958   .     S
Zn536  N578    2.014   .     S
Zn536  O538    2.003   .     S
O537   C541    1.285   .     A
O538   C541    1.285   .     A
O539   C542    1.292   .     A
O540   C542    1.299   .     A
C541   C566    1.419   .     S
C542   C546    1.472   .     S
C543   C557    1.407   .     A
C543   H1139   1.084   1_554 S
C543   C1147   1.402   1_554 S
H544   C554    1.083   .     S
H545   C1137   1.084   .     S
C546   C556    1.409   .     A
C546   C557    1.419   .     A
C547   H559    1.084   .     S
C547   C558    1.402   .     A
C547   C548    1.389   .     A
C548   C1143   1.391   .     S
C548   H1155   1.083   .     S
C549   H560    1.082   .     S
C549   C1142   1.391   1_554 S
C549   C1144   1.414   1_554 S
C550   C551    1.408   .     A
C550   C1143   1.414   .     S
C550   C1146   1.409   .     S
C551   C555    1.417   .     A
C551   C558    1.415   .     A
C552   C556    1.389   .     A
C552   C1144   1.409   1_554 S
C552   C1147   1.409   1_554 S
C553   C554    1.392   .     A
C553   C1137   1.402   .     S
C553   C1146   1.409   .     S
C554   C555    1.393   .     A
C555   H562    1.079   .     S
C556   N589    1.452   .     S
C557   N579    1.435   .     S
H561   C1142   1.083   1_554 S
C563   N592    1.432   .     S
C563   C571    1.414   .     A
C563   C168    1.371   1_565 S
C564   C566    1.393   .     A
C564   H565    1.084   .     S
C566   C567    1.393   .     A
C567   H568    1.083   .     S
C569   H570    1.083   .     S
C569   C571    1.400   .     A
C569   C171    1.369   1_565 S
C572   C582    1.443   .     S
C572   N578    1.368   .     A
C572   C441    1.425   1_655 S
C573   N574    1.371   .     A
C573   C584    1.443   .     S
N574   C575    1.372   .     A
C575   N586    1.426   .     S
C576   N578    1.361   .     A
C576   H577    1.078   .     S
C576   C443    1.415   1_655 S
N579   O581    1.299   .     A
N579   O580    1.301   .     A
C582   N583    1.157   .     T
C584   N585    1.158   .     T
N586   O588    1.300   .     A
N586   O587    1.300   .     A
N589   O590    1.301   .     A
N589   O591    1.301   .     A
N592   O593    1.301   .     A
N592   O594    1.301   .     A
O595   Zn601   2.003   .     S
O595   C597    1.293   .     A
O596   C597    1.281   .     A
O596   Zn602   2.008   .     S
C597   C637    1.429   .     S
O598   Zn601   1.958   .     S
O598   C600    1.294   .     A
O599   Zn602   1.929   .     S
O599   C600    1.292   .     A
C600   C624    1.457   .     S
Zn601  N640    2.014   .     S
Zn601  O605    1.929   .     S
Zn601  O603    2.008   .     S
Zn602  O606    1.958   .     S
Zn602  N644    2.014   .     S
Zn602  O604    2.003   .     S
O603   C607    1.285   .     A
O604   C607    1.285   .     A
O605   C608    1.292   .     A
O606   C608    1.299   .     A
C607   C632    1.419   .     S
C608   C612    1.472   .     S
C609   C623    1.407   .     A
H610   C620    1.083   .     S
H611   C15     1.084   1_556 S
C612   C622    1.409   .     A
C612   C623    1.419   .     A
C613   H625    1.084   .     S
C613   C624    1.402   .     A
C613   C614    1.389   .     A
C614   C21     1.391   1_556 S
C614   H33     1.083   1_556 S
C615   H626    1.082   .     S
C616   C617    1.408   .     A
C616   C21     1.414   1_556 S
C616   C24     1.409   1_556 S
C617   C621    1.417   .     A
C617   C624    1.415   .     A
C618   C622    1.389   .     A
C619   C620    1.392   .     A
C619   C15     1.402   1_556 S
C619   C24     1.409   1_556 S
C620   C621    1.393   .     A
C621   H628    1.079   .     S
C622   N655    1.452   .     S
C623   N645    1.435   .     S
C629   N658    1.432   .     S
C629   C637    1.414   .     A
C629   C828    1.371   .     S
C630   C632    1.393   .     A
C630   H631    1.084   .     S
C630   C1025   1.371   1_545 S
C632   C633    1.393   .     A
C633   H634    1.083   .     S
C633   C1031   1.369   1_545 S
C635   H636    1.083   .     S
C635   C637    1.400   .     A
C635   C831    1.369   .     S
C638   C648    1.443   .     S
C638   N644    1.368   .     A
C638   C705    1.425   .     S
C639   N640    1.371   .     A
C639   C650    1.443   .     S
C639   C770    1.425   1_455 S
N640   C641    1.372   .     A
C641   N652    1.426   .     S
C641   C774    1.415   1_455 S
C642   N644    1.361   .     A
C642   H643    1.078   .     S
C642   C707    1.415   .     S
N645   O647    1.299   .     A
N645   O646    1.301   .     A
C648   N649    1.157   .     T
C650   N651    1.158   .     T
N652   O654    1.300   .     A
N652   O653    1.300   .     A
N655   O656    1.301   .     A
N655   O657    1.301   .     A
N658   O659    1.301   .     A
N658   O660    1.301   .     A
O661   Zn667   2.003   .     S
O661   C663    1.293   .     A
O662   C663    1.281   .     A
O662   Zn668   2.008   .     S
C663   C703    1.429   .     S
O664   Zn667   1.958   .     S
O664   C666    1.294   .     A
O665   Zn668   1.929   .     S
O665   C666    1.292   .     A
C666   C690    1.457   .     S
Zn667  N706    2.014   .     S
Zn667  O671    1.929   .     S
Zn667  O669    2.008   .     S
Zn668  O672    1.958   .     S
Zn668  N710    2.014   .     S
Zn668  O670    2.003   .     S
O669   C673    1.285   .     A
O670   C673    1.285   .     A
O671   C674    1.292   .     A
O672   C674    1.299   .     A
C673   C698    1.419   .     S
C674   C678    1.472   .     S
C675   C689    1.407   .     A
H676   C686    1.083   .     S
H677   C81     1.084   1_556 S
C678   C688    1.409   .     A
C678   C689    1.419   .     A
C679   H691    1.084   .     S
C679   C690    1.402   .     A
C679   C680    1.389   .     A
C680   C87     1.391   1_556 S
C680   H99     1.083   1_556 S
C681   H692    1.082   .     S
C682   C683    1.408   .     A
C682   C87     1.414   1_556 S
C682   C90     1.409   1_556 S
C683   C687    1.417   .     A
C683   C690    1.415   .     A
C684   C688    1.389   .     A
C685   C686    1.392   .     A
C685   C81     1.402   1_556 S
C685   C90     1.409   1_556 S
C686   C687    1.393   .     A
C687   H694    1.079   .     S
C688   N721    1.452   .     S
C689   N711    1.435   .     S
C695   N724    1.432   .     S
C695   C703    1.414   .     A
C695   C894    1.371   .     S
C696   C698    1.393   .     A
C696   H697    1.084   .     S
C696   C1091   1.371   1_545 S
C698   C699    1.393   .     A
C699   H700    1.083   .     S
C699   C1097   1.369   1_545 S
C701   H702    1.083   .     S
C701   C703    1.400   .     A
C701   C897    1.369   .     S
C704   C714    1.443   .     S
C704   N710    1.368   .     A
C704   C771    1.425   .     S
C705   N706    1.371   .     A
C705   C716    1.443   .     S
N706   C707    1.372   .     A
C707   N718    1.426   .     S
C708   N710    1.361   .     A
C708   H709    1.078   .     S
C708   C773    1.415   .     S
N711   O713    1.299   .     A
N711   O712    1.301   .     A
C714   N715    1.157   .     T
C716   N717    1.158   .     T
N718   O720    1.300   .     A
N718   O719    1.300   .     A
N721   O722    1.301   .     A
N721   O723    1.301   .     A
N724   O725    1.301   .     A
N724   O726    1.301   .     A
O727   Zn733   2.003   .     S
O727   C729    1.293   .     A
O728   C729    1.281   .     A
O728   Zn734   2.008   .     S
C729   C769    1.429   .     S
O730   Zn733   1.958   .     S
O730   C732    1.294   .     A
O731   Zn734   1.929   .     S
O731   C732    1.292   .     A
C732   C756    1.457   .     S
Zn733  N772    2.014   .     S
Zn733  O737    1.929   .     S
Zn733  O735    2.008   .     S
Zn734  O738    1.958   .     S
Zn734  N776    2.014   .     S
Zn734  O736    2.003   .     S
O735   C739    1.285   .     A
O736   C739    1.285   .     A
O737   C740    1.292   .     A
O738   C740    1.299   .     A
C739   C764    1.419   .     S
C740   C744    1.472   .     S
C741   C755    1.407   .     A
H742   C752    1.083   .     S
H743   C147    1.084   1_556 S
C744   C754    1.409   .     A
C744   C755    1.419   .     A
C745   H757    1.084   .     S
C745   C756    1.402   .     A
C745   C746    1.389   .     A
C746   C153    1.391   1_556 S
C746   H165    1.083   1_556 S
C747   H758    1.082   .     S
C748   C749    1.408   .     A
C748   C153    1.414   1_556 S
C748   C156    1.409   1_556 S
C749   C753    1.417   .     A
C749   C756    1.415   .     A
C750   C754    1.389   .     A
C751   C752    1.392   .     A
C751   C147    1.402   1_556 S
C751   C156    1.409   1_556 S
C752   C753    1.393   .     A
C753   H760    1.079   .     S
C754   N787    1.452   .     S
C755   N777    1.435   .     S
C761   N790    1.432   .     S
C761   C769    1.414   .     A
C761   C960    1.371   .     S
C762   C764    1.393   .     A
C762   H763    1.084   .     S
C762   C1157   1.371   1_545 S
C764   C765    1.393   .     A
C765   H766    1.083   .     S
C765   C1163   1.369   1_545 S
C767   H768    1.083   .     S
C767   C769    1.400   .     A
C767   C963    1.369   .     S
C770   C780    1.443   .     S
C770   N776    1.368   .     A
C770   C639    1.425   1_655 S
C771   N772    1.371   .     A
C771   C782    1.443   .     S
N772   C773    1.372   .     A
C773   N784    1.426   .     S
C774   N776    1.361   .     A
C774   H775    1.078   .     S
C774   C641    1.415   1_655 S
N777   O779    1.299   .     A
N777   O778    1.301   .     A
C780   N781    1.157   .     T
C782   N783    1.158   .     T
N784   O786    1.300   .     A
N784   O785    1.300   .     A
N787   O788    1.301   .     A
N787   O789    1.301   .     A
N790   O791    1.301   .     A
N790   O792    1.301   .     A
O793   Zn799   2.003   .     S
O793   C795    1.293   .     A
O794   C795    1.281   .     A
O794   Zn800   2.008   .     S
C795   C835    1.429   .     S
O796   Zn799   1.958   .     S
O796   C798    1.294   .     A
O797   Zn800   1.929   .     S
O797   C798    1.292   .     A
C798   C822    1.457   .     S
Zn799  N838    2.014   .     S
Zn799  O803    1.929   .     S
Zn799  O801    2.008   .     S
Zn800  O804    1.958   .     S
Zn800  N842    2.014   .     S
Zn800  O802    2.003   .     S
O801   C805    1.285   .     A
O802   C805    1.285   .     A
O803   C806    1.292   .     A
O804   C806    1.299   .     A
C805   C830    1.419   .     S
C806   C810    1.472   .     S
C807   C821    1.407   .     A
H808   C818    1.083   .     S
H809   C213    1.084   1_556 S
C810   C820    1.409   .     A
C810   C821    1.419   .     A
C811   H823    1.084   .     S
C811   C822    1.402   .     A
C811   C812    1.389   .     A
C812   C219    1.391   1_556 S
C812   H231    1.083   1_556 S
C813   H824    1.082   .     S
C814   C815    1.408   .     A
C814   C219    1.414   1_556 S
C814   C222    1.409   1_556 S
C815   C819    1.417   .     A
C815   C822    1.415   .     A
C816   C820    1.389   .     A
C817   C818    1.392   .     A
C817   C213    1.402   1_556 S
C817   C222    1.409   1_556 S
C818   C819    1.393   .     A
C819   H826    1.079   .     S
C820   N853    1.452   .     S
C821   N843    1.435   .     S
C827   N856    1.432   .     S
C827   C835    1.414   .     A
C827   C1026   1.371   .     S
C828   C830    1.393   .     A
C828   H829    1.084   .     S
C830   C831    1.393   .     A
C831   H832    1.083   .     S
C833   H834    1.083   .     S
C833   C835    1.400   .     A
C833   C1029   1.369   .     S
C836   C846    1.443   .     S
C836   N842    1.368   .     A
C836   C903    1.425   .     S
C837   N838    1.371   .     A
C837   C848    1.443   .     S
C837   C968    1.425   1_455 S
N838   C839    1.372   .     A
C839   N850    1.426   .     S
C839   C972    1.415   1_455 S
C840   N842    1.361   .     A
C840   H841    1.078   .     S
C840   C905    1.415   .     S
N843   O845    1.299   .     A
N843   O844    1.301   .     A
C846   N847    1.157   .     T
C848   N849    1.158   .     T
N850   O852    1.300   .     A
N850   O851    1.300   .     A
N853   O854    1.301   .     A
N853   O855    1.301   .     A
N856   O857    1.301   .     A
N856   O858    1.301   .     A
O859   Zn865   2.003   .     S
O859   C861    1.293   .     A
O860   C861    1.281   .     A
O860   Zn866   2.008   .     S
C861   C901    1.429   .     S
O862   Zn865   1.958   .     S
O862   C864    1.294   .     A
O863   Zn866   1.929   .     S
O863   C864    1.292   .     A
C864   C888    1.457   .     S
Zn865  N904    2.014   .     S
Zn865  O869    1.929   .     S
Zn865  O867    2.008   .     S
Zn866  O870    1.958   .     S
Zn866  N908    2.014   .     S
Zn866  O868    2.003   .     S
O867   C871    1.285   .     A
O868   C871    1.285   .     A
O869   C872    1.292   .     A
O870   C872    1.299   .     A
C871   C896    1.419   .     S
C872   C876    1.472   .     S
C873   C887    1.407   .     A
H874   C884    1.083   .     S
H875   C279    1.084   1_556 S
C876   C886    1.409   .     A
C876   C887    1.419   .     A
C877   H889    1.084   .     S
C877   C888    1.402   .     A
C877   C878    1.389   .     A
C878   C285    1.391   1_556 S
C878   H297    1.083   1_556 S
C879   H890    1.082   .     S
C880   C881    1.408   .     A
C880   C285    1.414   1_556 S
C880   C288    1.409   1_556 S
C881   C885    1.417   .     A
C881   C888    1.415   .     A
C882   C886    1.389   .     A
C883   C884    1.392   .     A
C883   C279    1.402   1_556 S
C883   C288    1.409   1_556 S
C884   C885    1.393   .     A
C885   H892    1.079   .     S
C886   N919    1.452   .     S
C887   N909    1.435   .     S
C893   N922    1.432   .     S
C893   C901    1.414   .     A
C893   C1092   1.371   .     S
C894   C896    1.393   .     A
C894   H895    1.084   .     S
C896   C897    1.393   .     A
C897   H898    1.083   .     S
C899   H900    1.083   .     S
C899   C901    1.400   .     A
C899   C1095   1.369   .     S
C902   C912    1.443   .     S
C902   N908    1.368   .     A
C902   C969    1.425   .     S
C903   N904    1.371   .     A
C903   C914    1.443   .     S
N904   C905    1.372   .     A
C905   N916    1.426   .     S
C906   N908    1.361   .     A
C906   H907    1.078   .     S
C906   C971    1.415   .     S
N909   O911    1.299   .     A
N909   O910    1.301   .     A
C912   N913    1.157   .     T
C914   N915    1.158   .     T
N916   O918    1.300   .     A
N916   O917    1.300   .     A
N919   O920    1.301   .     A
N919   O921    1.301   .     A
N922   O923    1.301   .     A
N922   O924    1.301   .     A
O925   Zn931   2.003   .     S
O925   C927    1.293   .     A
O926   C927    1.281   .     A
O926   Zn932   2.008   .     S
C927   C967    1.429   .     S
O928   Zn931   1.958   .     S
O928   C930    1.294   .     A
O929   Zn932   1.929   .     S
O929   C930    1.292   .     A
C930   C954    1.457   .     S
Zn931  N970    2.014   .     S
Zn931  O935    1.929   .     S
Zn931  O933    2.008   .     S
Zn932  O936    1.958   .     S
Zn932  N974    2.014   .     S
Zn932  O934    2.003   .     S
O933   C937    1.285   .     A
O934   C937    1.285   .     A
O935   C938    1.292   .     A
O936   C938    1.299   .     A
C937   C962    1.419   .     S
C938   C942    1.472   .     S
C939   C953    1.407   .     A
H940   C950    1.083   .     S
H941   C345    1.084   1_556 S
C942   C952    1.409   .     A
C942   C953    1.419   .     A
C943   H955    1.084   .     S
C943   C954    1.402   .     A
C943   C944    1.389   .     A
C944   C351    1.391   1_556 S
C944   H363    1.083   1_556 S
C945   H956    1.082   .     S
C946   C947    1.408   .     A
C946   C351    1.414   1_556 S
C946   C354    1.409   1_556 S
C947   C951    1.417   .     A
C947   C954    1.415   .     A
C948   C952    1.389   .     A
C949   C950    1.392   .     A
C949   C345    1.402   1_556 S
C949   C354    1.409   1_556 S
C950   C951    1.393   .     A
C951   H958    1.079   .     S
C952   N985    1.452   .     S
C953   N975    1.435   .     S
C959   N988    1.432   .     S
C959   C967    1.414   .     A
C959   C1158   1.371   .     S
C960   C962    1.393   .     A
C960   H961    1.084   .     S
C962   C963    1.393   .     A
C963   H964    1.083   .     S
C965   H966    1.083   .     S
C965   C967    1.400   .     A
C965   C1161   1.369   .     S
C968   C978    1.443   .     S
C968   N974    1.368   .     A
C968   C837    1.425   1_655 S
C969   N970    1.371   .     A
C969   C980    1.443   .     S
N970   C971    1.372   .     A
C971   N982    1.426   .     S
C972   N974    1.361   .     A
C972   H973    1.078   .     S
C972   C839    1.415   1_655 S
N975   O977    1.299   .     A
N975   O976    1.301   .     A
C978   N979    1.157   .     T
C980   N981    1.158   .     T
N982   O984    1.300   .     A
N982   O983    1.300   .     A
N985   O986    1.301   .     A
N985   O987    1.301   .     A
N988   O989    1.301   .     A
N988   O990    1.301   .     A
O991   Zn997   2.003   .     S
O991   C993    1.293   .     A
O992   C993    1.281   .     A
O992   Zn998   2.008   .     S
C993   C1033   1.429   .     S
O994   Zn997   1.958   .     S
O994   C996    1.294   .     A
O995   Zn998   1.929   .     S
O995   C996    1.292   .     A
C996   C1020   1.457   .     S
Zn997  N1036   2.014   .     S
Zn997  O1001   1.929   .     S
Zn997  O999    2.008   .     S
Zn998  O1002   1.958   .     S
Zn998  N1040   2.014   .     S
Zn998  O1000   2.003   .     S
O999   C1003   1.285   .     A
O1000  C1003   1.285   .     A
O1001  C1004   1.292   .     A
O1002  C1004   1.299   .     A
C1003  C1028   1.419   .     S
C1004  C1008   1.472   .     S
C1005  C1019   1.407   .     A
H1006  C1016   1.083   .     S
H1007  C411    1.084   1_556 S
C1008  C1018   1.409   .     A
C1008  C1019   1.419   .     A
C1009  H1021   1.084   .     S
C1009  C1020   1.402   .     A
C1009  C1010   1.389   .     A
C1010  C417    1.391   1_556 S
C1010  H429    1.083   1_556 S
C1011  H1022   1.082   .     S
C1012  C1013   1.408   .     A
C1012  C417    1.414   1_556 S
C1012  C420    1.409   1_556 S
C1013  C1017   1.417   .     A
C1013  C1020   1.415   .     A
C1014  C1018   1.389   .     A
C1015  C1016   1.392   .     A
C1015  C411    1.402   1_556 S
C1015  C420    1.409   1_556 S
C1016  C1017   1.393   .     A
C1017  H1024   1.079   .     S
C1018  N1051   1.452   .     S
C1019  N1041   1.435   .     S
C1025  N1054   1.432   .     S
C1025  C1033   1.414   .     A
C1025  C630    1.371   1_565 S
C1026  C1028   1.393   .     A
C1026  H1027   1.084   .     S
C1028  C1029   1.393   .     A
C1029  H1030   1.083   .     S
C1031  H1032   1.083   .     S
C1031  C1033   1.400   .     A
C1031  C633    1.369   1_565 S
C1034  C1044   1.443   .     S
C1034  N1040   1.368   .     A
C1034  C1101   1.425   .     S
C1035  N1036   1.371   .     A
C1035  C1046   1.443   .     S
C1035  C1166   1.425   1_455 S
N1036  C1037   1.372   .     A
C1037  N1048   1.426   .     S
C1037  C1170   1.415   1_455 S
C1038  N1040   1.361   .     A
C1038  H1039   1.078   .     S
C1038  C1103   1.415   .     S
N1041  O1043   1.299   .     A
N1041  O1042   1.301   .     A
C1044  N1045   1.157   .     T
C1046  N1047   1.158   .     T
N1048  O1050   1.300   .     A
N1048  O1049   1.300   .     A
N1051  O1052   1.301   .     A
N1051  O1053   1.301   .     A
N1054  O1055   1.301   .     A
N1054  O1056   1.301   .     A
O1057  Zn1063  2.003   .     S
O1057  C1059   1.293   .     A
O1058  C1059   1.281   .     A
O1058  Zn1064  2.008   .     S
C1059  C1099   1.429   .     S
O1060  Zn1063  1.958   .     S
O1060  C1062   1.294   .     A
O1061  Zn1064  1.929   .     S
O1061  C1062   1.292   .     A
C1062  C1086   1.457   .     S
Zn1063 N1102   2.014   .     S
Zn1063 O1067   1.929   .     S
Zn1063 O1065   2.008   .     S
Zn1064 O1068   1.958   .     S
Zn1064 N1106   2.014   .     S
Zn1064 O1066   2.003   .     S
O1065  C1069   1.285   .     A
O1066  C1069   1.285   .     A
O1067  C1070   1.292   .     A
O1068  C1070   1.299   .     A
C1069  C1094   1.419   .     S
C1070  C1074   1.472   .     S
C1071  C1085   1.407   .     A
H1072  C1082   1.083   .     S
H1073  C477    1.084   1_556 S
C1074  C1084   1.409   .     A
C1074  C1085   1.419   .     A
C1075  H1087   1.084   .     S
C1075  C1086   1.402   .     A
C1075  C1076   1.389   .     A
C1076  C483    1.391   1_556 S
C1076  H495    1.083   1_556 S
C1077  H1088   1.082   .     S
C1078  C1079   1.408   .     A
C1078  C483    1.414   1_556 S
C1078  C486    1.409   1_556 S
C1079  C1083   1.417   .     A
C1079  C1086   1.415   .     A
C1080  C1084   1.389   .     A
C1081  C1082   1.392   .     A
C1081  C477    1.402   1_556 S
C1081  C486    1.409   1_556 S
C1082  C1083   1.393   .     A
C1083  H1090   1.079   .     S
C1084  N1117   1.452   .     S
C1085  N1107   1.435   .     S
C1091  N1120   1.432   .     S
C1091  C1099   1.414   .     A
C1091  C696    1.371   1_565 S
C1092  C1094   1.393   .     A
C1092  H1093   1.084   .     S
C1094  C1095   1.393   .     A
C1095  H1096   1.083   .     S
C1097  H1098   1.083   .     S
C1097  C1099   1.400   .     A
C1097  C699    1.369   1_565 S
C1100  C1110   1.443   .     S
C1100  N1106   1.368   .     A
C1100  C1167   1.425   .     S
C1101  N1102   1.371   .     A
C1101  C1112   1.443   .     S
N1102  C1103   1.372   .     A
C1103  N1114   1.426   .     S
C1104  N1106   1.361   .     A
C1104  H1105   1.078   .     S
C1104  C1169   1.415   .     S
N1107  O1109   1.299   .     A
N1107  O1108   1.301   .     A
C1110  N1111   1.157   .     T
C1112  N1113   1.158   .     T
N1114  O1116   1.300   .     A
N1114  O1115   1.300   .     A
N1117  O1118   1.301   .     A
N1117  O1119   1.301   .     A
N1120  O1121   1.301   .     A
N1120  O1122   1.301   .     A
O1123  Zn1129  2.003   .     S
O1123  C1125   1.293   .     A
O1124  C1125   1.281   .     A
O1124  Zn1130  2.008   .     S
C1125  C1165   1.429   .     S
O1126  Zn1129  1.958   .     S
O1126  C1128   1.294   .     A
O1127  Zn1130  1.929   .     S
O1127  C1128   1.292   .     A
C1128  C1152   1.457   .     S
Zn1129 N1168   2.014   .     S
Zn1129 O1133   1.929   .     S
Zn1129 O1131   2.008   .     S
Zn1130 O1134   1.958   .     S
Zn1130 N1172   2.014   .     S
Zn1130 O1132   2.003   .     S
O1131  C1135   1.285   .     A
O1132  C1135   1.285   .     A
O1133  C1136   1.292   .     A
O1134  C1136   1.299   .     A
C1135  C1160   1.419   .     S
C1136  C1140   1.472   .     S
C1137  C1151   1.407   .     A
H1138  C1148   1.083   .     S
H1139  C543    1.084   1_556 S
C1140  C1150   1.409   .     A
C1140  C1151   1.419   .     A
C1141  H1153   1.084   .     S
C1141  C1152   1.402   .     A
C1141  C1142   1.389   .     A
C1142  C549    1.391   1_556 S
C1142  H561    1.083   1_556 S
C1143  H1154   1.082   .     S
C1144  C1145   1.408   .     A
C1144  C549    1.414   1_556 S
C1144  C552    1.409   1_556 S
C1145  C1149   1.417   .     A
C1145  C1152   1.415   .     A
C1146  C1150   1.389   .     A
C1147  C1148   1.392   .     A
C1147  C543    1.402   1_556 S
C1147  C552    1.409   1_556 S
C1148  C1149   1.393   .     A
C1149  H1156   1.079   .     S
C1150  N1183   1.452   .     S
C1151  N1173   1.435   .     S
C1157  N1186   1.432   .     S
C1157  C1165   1.414   .     A
C1157  C762    1.371   1_565 S
C1158  C1160   1.393   .     A
C1158  H1159   1.084   .     S
C1160  C1161   1.393   .     A
C1161  H1162   1.083   .     S
C1163  H1164   1.083   .     S
C1163  C1165   1.400   .     A
C1163  C765    1.369   1_565 S
C1166  C1176   1.443   .     S
C1166  N1172   1.368   .     A
C1166  C1035   1.425   1_655 S
C1167  N1168   1.371   .     A
C1167  C1178   1.443   .     S
N1168  C1169   1.372   .     A
C1169  N1180   1.426   .     S
C1170  N1172   1.361   .     A
C1170  H1171   1.078   .     S
C1170  C1037   1.415   1_655 S
N1173  O1175   1.299   .     A
N1173  O1174   1.301   .     A
C1176  N1177   1.157   .     T
C1178  N1179   1.158   .     T
N1180  O1182   1.300   .     A
N1180  O1181   1.300   .     A
N1183  O1184   1.301   .     A
N1183  O1185   1.301   .     A
N1186  O1187   1.301   .     A
N1186  O1188   1.301   .     A
