data_str_m2_o1_o2_pcu_sym.117
_audit_creation_date              2020-01-03
_audit_creation_method            'Materials Studio'
_symmetry_space_group_name_H-M    'P1'
_symmetry_Int_Tables_number       1
_symmetry_cell_setting            triclinic
loop_
_symmetry_equiv_pos_as_xyz
  x,y,z
_cell_length_a                    32.7837
_cell_length_b                    28.8415
_cell_length_c                    30.0763
_cell_angle_alpha                 91.1379
_cell_angle_beta                  88.4325
_cell_angle_gamma                 89.0726
loop_
_atom_site_label
_atom_site_type_symbol
_atom_site_fract_x
_atom_site_fract_y
_atom_site_fract_z
_atom_site_U_iso_or_equiv
_atom_site_adp_type
_atom_site_occupancy
C1     C     0.08744   0.16704   0.24876   0.00000  Uiso   1.00
C2     C     0.24577   0.16629   0.25229   0.00000  Uiso   1.00
C3     C     0.16710   0.16625   0.16499   0.00000  Uiso   1.00
C4     C     0.16677   0.16698   0.33478   0.00000  Uiso   1.00
C5     C     0.18944   0.02375   0.21890   0.00000  Uiso   1.00
C6     C     0.14485   0.30987   0.28186   0.00000  Uiso   1.00
C7     C     0.14226   0.02607   0.27969   0.00000  Uiso   1.00
C8     C     0.18979   0.30728   0.21930   0.00000  Uiso   1.00
C9     C     0.02168   0.12737   0.23519   0.00000  Uiso   1.00
C10    C     0.31086   0.20614   0.26808   0.00000  Uiso   1.00
C11    C     0.31301   0.12513   0.24228   0.00000  Uiso   1.00
C12    C     0.02015   0.20798   0.26269   0.00000  Uiso   1.00
C13    C     0.19436   0.19465   0.04684   0.00000  Uiso   1.00
C14    C     0.13127   0.17361   0.45374   0.00000  Uiso   1.00
C15    C     0.20436   0.15799   0.45033   0.00000  Uiso   1.00
C16    C     0.14303   0.13495   0.04704   0.00000  Uiso   1.00
C17    C     0.19394   0.19492   0.09310   0.00000  Uiso   1.00
C18    C     0.13094   0.17463   0.40753   0.00000  Uiso   1.00
C19    C     0.20384   0.15816   0.40412   0.00000  Uiso   1.00
C20    C     0.14320   0.13467   0.09325   0.00000  Uiso   1.00
C21    C     0.16800   0.16533   0.11651   0.00000  Uiso   1.00
C22    C     0.16728   0.16730   0.38283   0.00000  Uiso   1.00
C23    C     0.16849   0.16509   0.02373   0.00000  Uiso   1.00
C24    C     0.16806   0.16564   0.47525   0.00000  Uiso   1.00
C25    C     0.29045   0.16545   0.25532   0.00000  Uiso   1.00
C26    C     0.04258   0.16784   0.24794   0.00000  Uiso   1.00
Cu27   Cu    0.16667   0.21355   0.25000   0.00000  Uiso   1.00
Cu28   Cu    0.16667   0.11978   0.25000   0.00000  Uiso   1.00
H29    H     0.21443   0.21780   0.02907   0.00000  Uiso   1.00
H30    H     0.10305   0.17951   0.47274   0.00000  Uiso   1.00
H31    H     0.23282   0.15117   0.46666   0.00000  Uiso   1.00
H32    H     0.12341   0.11141   0.02943   0.00000  Uiso   1.00
H33    H     0.21448   0.21742   0.11049   0.00000  Uiso   1.00
H34    H     0.10248   0.18102   0.39103   0.00000  Uiso   1.00
H35    H     0.23179   0.15103   0.38504   0.00000  Uiso   1.00
H36    H     0.12395   0.11064   0.11068   0.00000  Uiso   1.00
N37    N     0.16667   0.28402   0.25000   0.00000  Uiso   1.00
N38    N     0.16667   0.04931   0.25000   0.00000  Uiso   1.00
O39    O     0.10655   0.20625   0.25000   0.00000  Uiso   1.00
O40    O     0.22679   0.12709   0.25001   0.00000  Uiso   1.00
O41    O     0.22679   0.20625   0.25001   0.00000  Uiso   1.00
O42    O     0.10655   0.12709   0.25000   0.00000  Uiso   1.00
O43    O     0.16666   0.20626   0.18573   0.00000  Uiso   1.00
O44    O     0.16667   0.12707   0.31427   0.00000  Uiso   1.00
O45    O     0.16667   0.20626   0.31427   0.00000  Uiso   1.00
O46    O     0.16666   0.12707   0.18573   0.00000  Uiso   1.00
N47    N     0.21183   0.04741   0.18541   0.00000  Uiso   1.00
H48    H     0.24278   0.04192   0.18598   0.00000  Uiso   1.00
C49    C     0.19646   0.04412   0.14075   0.00000  Uiso   1.00
H50    H     0.20973   0.01354   0.12244   0.00000  Uiso   1.00
H51    H     0.20617   0.07498   0.12207   0.00000  Uiso   1.00
H52    H     0.16258   0.04254   0.14128   0.00000  Uiso   1.00
N53    N     0.12585   0.28724   0.31830   0.00000  Uiso   1.00
H54    H     0.09580   0.29687   0.32424   0.00000  Uiso   1.00
C55    C     0.14914   0.28820   0.35877   0.00000  Uiso   1.00
H56    H     0.14885   0.32272   0.37488   0.00000  Uiso   1.00
H57    H     0.18160   0.27826   0.35192   0.00000  Uiso   1.00
H58    H     0.13553   0.26412   0.38298   0.00000  Uiso   1.00
N59    N     0.10888   0.05034   0.30159   0.00000  Uiso   1.00
H60    H     0.08077   0.03727   0.29415   0.00000  Uiso   1.00
C61    C     0.11139   0.06282   0.34824   0.00000  Uiso   1.00
H62    H     0.09341   0.03848   0.36881   0.00000  Uiso   1.00
H63    H     0.09761   0.09789   0.35386   0.00000  Uiso   1.00
H64    H     0.14341   0.06330   0.35923   0.00000  Uiso   1.00
N65    N     0.21239   0.28107   0.18632   0.00000  Uiso   1.00
H66    H     0.19952   0.28022   0.15553   0.00000  Uiso   1.00
C67    C     0.25650   0.28318   0.18601   0.00000  Uiso   1.00
H68    H     0.26777   0.30170   0.15620   0.00000  Uiso   1.00
H69    H     0.26954   0.24745   0.18442   0.00000  Uiso   1.00
H70    H     0.26747   0.30110   0.21620   0.00000  Uiso   1.00
N71    N     0.04152   0.08931   0.21216   0.00000  Uiso   1.00
H72    H     0.06155   0.06937   0.22952   0.00000  Uiso   1.00
C73    C     0.05284   0.09750   0.16630   0.00000  Uiso   1.00
H74    H     0.02526   0.10625   0.14731   0.00000  Uiso   1.00
H75    H     0.06742   0.06571   0.15118   0.00000  Uiso   1.00
H76    H     0.07450   0.12656   0.16420   0.00000  Uiso   1.00
N77    N     0.28847   0.24472   0.28751   0.00000  Uiso   1.00
H78    H     0.29945   0.27706   0.28059   0.00000  Uiso   1.00
C79    C     0.27760   0.23986   0.33406   0.00000  Uiso   1.00
H80    H     0.30553   0.23760   0.35407   0.00000  Uiso   1.00
H81    H     0.25920   0.20838   0.33894   0.00000  Uiso   1.00
H82    H     0.25903   0.27043   0.34586   0.00000  Uiso   1.00
N83    N     0.29370   0.08149   0.23733   0.00000  Uiso   1.00
H84    H     0.30498   0.06094   0.21123   0.00000  Uiso   1.00
C85    C     0.29027   0.05610   0.27827   0.00000  Uiso   1.00
H86    H     0.32090   0.04378   0.28836   0.00000  Uiso   1.00
H87    H     0.27048   0.02573   0.27330   0.00000  Uiso   1.00
H88    H     0.27614   0.07826   0.30535   0.00000  Uiso   1.00
N89    N     0.04042   0.25035   0.27174   0.00000  Uiso   1.00
H90    H     0.03099   0.26740   0.30075   0.00000  Uiso   1.00
C91    C     0.04377   0.28057   0.23392   0.00000  Uiso   1.00
H92    H     0.01324   0.29357   0.22441   0.00000  Uiso   1.00
H93    H     0.05850   0.26189   0.20491   0.00000  Uiso   1.00
H94    H     0.06281   0.31069   0.24245   0.00000  Uiso   1.00
C95    C     0.42077   0.16704   0.24876   0.00000  Uiso   1.00
C96    C     0.57910   0.16629   0.25229   0.00000  Uiso   1.00
C97    C     0.50044   0.16625   0.16499   0.00000  Uiso   1.00
C98    C     0.50010   0.16698   0.33478   0.00000  Uiso   1.00
C99    C     0.52278   0.02375   0.21890   0.00000  Uiso   1.00
C100   C     0.47819   0.30987   0.28186   0.00000  Uiso   1.00
C101   C     0.47560   0.02607   0.27969   0.00000  Uiso   1.00
C102   C     0.52313   0.30728   0.21930   0.00000  Uiso   1.00
C103   C     0.35501   0.12737   0.23519   0.00000  Uiso   1.00
C104   C     0.64420   0.20614   0.26808   0.00000  Uiso   1.00
C105   C     0.64634   0.12513   0.24228   0.00000  Uiso   1.00
C106   C     0.35349   0.20798   0.26269   0.00000  Uiso   1.00
C107   C     0.52769   0.19465   0.04684   0.00000  Uiso   1.00
C108   C     0.46460   0.17361   0.45374   0.00000  Uiso   1.00
C109   C     0.53769   0.15799   0.45033   0.00000  Uiso   1.00
C110   C     0.47636   0.13495   0.04704   0.00000  Uiso   1.00
C111   C     0.52728   0.19492   0.09310   0.00000  Uiso   1.00
C112   C     0.46427   0.17463   0.40753   0.00000  Uiso   1.00
C113   C     0.53717   0.15816   0.40412   0.00000  Uiso   1.00
C114   C     0.47654   0.13467   0.09325   0.00000  Uiso   1.00
C115   C     0.50133   0.16533   0.11651   0.00000  Uiso   1.00
C116   C     0.50061   0.16730   0.38283   0.00000  Uiso   1.00
C117   C     0.50182   0.16509   0.02373   0.00000  Uiso   1.00
C118   C     0.50139   0.16564   0.47525   0.00000  Uiso   1.00
C119   C     0.62378   0.16545   0.25532   0.00000  Uiso   1.00
C120   C     0.37591   0.16784   0.24794   0.00000  Uiso   1.00
Cu121  Cu    0.50000   0.21355   0.25000   0.00000  Uiso   1.00
Cu122  Cu    0.50000   0.11978   0.25000   0.00000  Uiso   1.00
H123   H     0.54777   0.21780   0.02907   0.00000  Uiso   1.00
H124   H     0.43638   0.17951   0.47274   0.00000  Uiso   1.00
H125   H     0.56616   0.15117   0.46666   0.00000  Uiso   1.00
H126   H     0.45674   0.11141   0.02943   0.00000  Uiso   1.00
H127   H     0.54781   0.21742   0.11049   0.00000  Uiso   1.00
H128   H     0.43581   0.18102   0.39103   0.00000  Uiso   1.00
H129   H     0.56512   0.15103   0.38504   0.00000  Uiso   1.00
H130   H     0.45728   0.11064   0.11068   0.00000  Uiso   1.00
N131   N     0.50000   0.28402   0.25000   0.00000  Uiso   1.00
N132   N     0.50000   0.04931   0.25000   0.00000  Uiso   1.00
O133   O     0.43988   0.20625   0.25000   0.00000  Uiso   1.00
O134   O     0.56012   0.12709   0.25001   0.00000  Uiso   1.00
O135   O     0.56012   0.20625   0.25001   0.00000  Uiso   1.00
O136   O     0.43988   0.12709   0.25000   0.00000  Uiso   1.00
O137   O     0.50000   0.20626   0.18573   0.00000  Uiso   1.00
O138   O     0.50000   0.12707   0.31427   0.00000  Uiso   1.00
O139   O     0.50000   0.20626   0.31427   0.00000  Uiso   1.00
O140   O     0.50000   0.12707   0.18573   0.00000  Uiso   1.00
N141   N     0.54516   0.04741   0.18541   0.00000  Uiso   1.00
H142   H     0.57612   0.04192   0.18598   0.00000  Uiso   1.00
C143   C     0.52979   0.04412   0.14075   0.00000  Uiso   1.00
H144   H     0.54306   0.01354   0.12244   0.00000  Uiso   1.00
H145   H     0.53950   0.07498   0.12207   0.00000  Uiso   1.00
H146   H     0.49592   0.04254   0.14128   0.00000  Uiso   1.00
N147   N     0.45918   0.28724   0.31830   0.00000  Uiso   1.00
H148   H     0.42913   0.29687   0.32424   0.00000  Uiso   1.00
C149   C     0.48247   0.28820   0.35877   0.00000  Uiso   1.00
H150   H     0.48218   0.32272   0.37488   0.00000  Uiso   1.00
H151   H     0.51493   0.27826   0.35192   0.00000  Uiso   1.00
H152   H     0.46887   0.26412   0.38298   0.00000  Uiso   1.00
N153   N     0.44222   0.05034   0.30159   0.00000  Uiso   1.00
H154   H     0.41410   0.03727   0.29415   0.00000  Uiso   1.00
C155   C     0.44472   0.06282   0.34824   0.00000  Uiso   1.00
H156   H     0.42674   0.03848   0.36881   0.00000  Uiso   1.00
H157   H     0.43094   0.09789   0.35386   0.00000  Uiso   1.00
H158   H     0.47675   0.06330   0.35923   0.00000  Uiso   1.00
N159   N     0.54573   0.28107   0.18632   0.00000  Uiso   1.00
H160   H     0.53285   0.28022   0.15553   0.00000  Uiso   1.00
C161   C     0.58983   0.28318   0.18601   0.00000  Uiso   1.00
H162   H     0.60110   0.30170   0.15620   0.00000  Uiso   1.00
H163   H     0.60287   0.24745   0.18442   0.00000  Uiso   1.00
H164   H     0.60080   0.30110   0.21620   0.00000  Uiso   1.00
N165   N     0.37485   0.08931   0.21216   0.00000  Uiso   1.00
H166   H     0.39489   0.06937   0.22952   0.00000  Uiso   1.00
C167   C     0.38617   0.09750   0.16630   0.00000  Uiso   1.00
H168   H     0.35859   0.10625   0.14731   0.00000  Uiso   1.00
H169   H     0.40075   0.06571   0.15118   0.00000  Uiso   1.00
H170   H     0.40784   0.12656   0.16420   0.00000  Uiso   1.00
N171   N     0.62180   0.24472   0.28751   0.00000  Uiso   1.00
H172   H     0.63278   0.27706   0.28059   0.00000  Uiso   1.00
C173   C     0.61093   0.23986   0.33406   0.00000  Uiso   1.00
H174   H     0.63886   0.23760   0.35407   0.00000  Uiso   1.00
H175   H     0.59253   0.20838   0.33894   0.00000  Uiso   1.00
H176   H     0.59236   0.27043   0.34586   0.00000  Uiso   1.00
N177   N     0.62704   0.08149   0.23733   0.00000  Uiso   1.00
H178   H     0.63832   0.06094   0.21123   0.00000  Uiso   1.00
C179   C     0.62360   0.05610   0.27827   0.00000  Uiso   1.00
H180   H     0.65423   0.04378   0.28836   0.00000  Uiso   1.00
H181   H     0.60381   0.02573   0.27330   0.00000  Uiso   1.00
H182   H     0.60947   0.07826   0.30535   0.00000  Uiso   1.00
N183   N     0.37375   0.25035   0.27174   0.00000  Uiso   1.00
H184   H     0.36432   0.26740   0.30075   0.00000  Uiso   1.00
C185   C     0.37711   0.28057   0.23392   0.00000  Uiso   1.00
H186   H     0.34658   0.29357   0.22441   0.00000  Uiso   1.00
H187   H     0.39184   0.26189   0.20491   0.00000  Uiso   1.00
H188   H     0.39614   0.31069   0.24245   0.00000  Uiso   1.00
C189   C     0.75410   0.16704   0.24876   0.00000  Uiso   1.00
C190   C     0.91243   0.16629   0.25229   0.00000  Uiso   1.00
C191   C     0.83377   0.16625   0.16499   0.00000  Uiso   1.00
C192   C     0.83344   0.16698   0.33478   0.00000  Uiso   1.00
C193   C     0.85611   0.02375   0.21890   0.00000  Uiso   1.00
C194   C     0.81152   0.30987   0.28186   0.00000  Uiso   1.00
C195   C     0.80893   0.02607   0.27969   0.00000  Uiso   1.00
C196   C     0.85646   0.30728   0.21930   0.00000  Uiso   1.00
C197   C     0.68835   0.12737   0.23519   0.00000  Uiso   1.00
C198   C     0.97753   0.20614   0.26808   0.00000  Uiso   1.00
C199   C     0.97967   0.12513   0.24228   0.00000  Uiso   1.00
C200   C     0.68682   0.20798   0.26269   0.00000  Uiso   1.00
C201   C     0.86102   0.19465   0.04684   0.00000  Uiso   1.00
C202   C     0.79794   0.17361   0.45374   0.00000  Uiso   1.00
C203   C     0.87103   0.15799   0.45033   0.00000  Uiso   1.00
C204   C     0.80970   0.13495   0.04704   0.00000  Uiso   1.00
C205   C     0.86061   0.19492   0.09310   0.00000  Uiso   1.00
C206   C     0.79760   0.17463   0.40753   0.00000  Uiso   1.00
C207   C     0.87050   0.15816   0.40412   0.00000  Uiso   1.00
C208   C     0.80987   0.13467   0.09325   0.00000  Uiso   1.00
C209   C     0.83467   0.16533   0.11651   0.00000  Uiso   1.00
C210   C     0.83395   0.16730   0.38283   0.00000  Uiso   1.00
C211   C     0.83515   0.16509   0.02373   0.00000  Uiso   1.00
C212   C     0.83472   0.16564   0.47525   0.00000  Uiso   1.00
C213   C     0.95711   0.16545   0.25532   0.00000  Uiso   1.00
C214   C     0.70925   0.16784   0.24794   0.00000  Uiso   1.00
Cu215  Cu    0.83333   0.21355   0.25000   0.00000  Uiso   1.00
Cu216  Cu    0.83333   0.11978   0.25000   0.00000  Uiso   1.00
H217   H     0.88110   0.21780   0.02907   0.00000  Uiso   1.00
H218   H     0.76972   0.17951   0.47274   0.00000  Uiso   1.00
H219   H     0.89949   0.15117   0.46666   0.00000  Uiso   1.00
H220   H     0.79007   0.11141   0.02943   0.00000  Uiso   1.00
H221   H     0.88115   0.21742   0.11049   0.00000  Uiso   1.00
H222   H     0.76914   0.18102   0.39103   0.00000  Uiso   1.00
H223   H     0.89846   0.15103   0.38504   0.00000  Uiso   1.00
H224   H     0.79061   0.11064   0.11068   0.00000  Uiso   1.00
N225   N     0.83333   0.28402   0.25000   0.00000  Uiso   1.00
N226   N     0.83333   0.04931   0.25000   0.00000  Uiso   1.00
O227   O     0.77321   0.20625   0.25000   0.00000  Uiso   1.00
O228   O     0.89345   0.12709   0.25001   0.00000  Uiso   1.00
O229   O     0.89345   0.20625   0.25001   0.00000  Uiso   1.00
O230   O     0.77321   0.12709   0.25000   0.00000  Uiso   1.00
O231   O     0.83333   0.20626   0.18573   0.00000  Uiso   1.00
O232   O     0.83334   0.12707   0.31427   0.00000  Uiso   1.00
O233   O     0.83334   0.20626   0.31427   0.00000  Uiso   1.00
O234   O     0.83333   0.12707   0.18573   0.00000  Uiso   1.00
N235   N     0.87850   0.04741   0.18541   0.00000  Uiso   1.00
H236   H     0.90945   0.04192   0.18598   0.00000  Uiso   1.00
C237   C     0.86312   0.04412   0.14075   0.00000  Uiso   1.00
H238   H     0.87639   0.01354   0.12244   0.00000  Uiso   1.00
H239   H     0.87283   0.07498   0.12207   0.00000  Uiso   1.00
H240   H     0.82925   0.04254   0.14128   0.00000  Uiso   1.00
N241   N     0.79252   0.28724   0.31830   0.00000  Uiso   1.00
H242   H     0.76246   0.29687   0.32424   0.00000  Uiso   1.00
C243   C     0.81580   0.28820   0.35877   0.00000  Uiso   1.00
H244   H     0.81551   0.32272   0.37488   0.00000  Uiso   1.00
H245   H     0.84826   0.27826   0.35192   0.00000  Uiso   1.00
H246   H     0.80220   0.26412   0.38298   0.00000  Uiso   1.00
N247   N     0.77555   0.05034   0.30159   0.00000  Uiso   1.00
H248   H     0.74743   0.03727   0.29415   0.00000  Uiso   1.00
C249   C     0.77805   0.06282   0.34824   0.00000  Uiso   1.00
H250   H     0.76007   0.03848   0.36881   0.00000  Uiso   1.00
H251   H     0.76428   0.09789   0.35386   0.00000  Uiso   1.00
H252   H     0.81008   0.06330   0.35923   0.00000  Uiso   1.00
N253   N     0.87906   0.28107   0.18632   0.00000  Uiso   1.00
H254   H     0.86619   0.28022   0.15553   0.00000  Uiso   1.00
C255   C     0.92316   0.28318   0.18601   0.00000  Uiso   1.00
H256   H     0.93443   0.30170   0.15620   0.00000  Uiso   1.00
H257   H     0.93621   0.24745   0.18442   0.00000  Uiso   1.00
H258   H     0.93413   0.30110   0.21620   0.00000  Uiso   1.00
N259   N     0.70818   0.08931   0.21216   0.00000  Uiso   1.00
H260   H     0.72822   0.06937   0.22952   0.00000  Uiso   1.00
C261   C     0.71951   0.09750   0.16630   0.00000  Uiso   1.00
H262   H     0.69192   0.10625   0.14731   0.00000  Uiso   1.00
H263   H     0.73408   0.06571   0.15118   0.00000  Uiso   1.00
H264   H     0.74117   0.12656   0.16420   0.00000  Uiso   1.00
N265   N     0.95513   0.24472   0.28751   0.00000  Uiso   1.00
H266   H     0.96612   0.27706   0.28059   0.00000  Uiso   1.00
C267   C     0.94426   0.23986   0.33406   0.00000  Uiso   1.00
H268   H     0.97220   0.23760   0.35407   0.00000  Uiso   1.00
H269   H     0.92587   0.20838   0.33894   0.00000  Uiso   1.00
H270   H     0.92570   0.27043   0.34586   0.00000  Uiso   1.00
N271   N     0.96037   0.08149   0.23733   0.00000  Uiso   1.00
H272   H     0.97165   0.06094   0.21123   0.00000  Uiso   1.00
C273   C     0.95693   0.05610   0.27827   0.00000  Uiso   1.00
H274   H     0.98757   0.04378   0.28836   0.00000  Uiso   1.00
H275   H     0.93715   0.02573   0.27330   0.00000  Uiso   1.00
H276   H     0.94281   0.07826   0.30535   0.00000  Uiso   1.00
N277   N     0.70708   0.25035   0.27174   0.00000  Uiso   1.00
H278   H     0.69766   0.26740   0.30075   0.00000  Uiso   1.00
C279   C     0.71044   0.28057   0.23392   0.00000  Uiso   1.00
H280   H     0.67991   0.29357   0.22441   0.00000  Uiso   1.00
H281   H     0.72517   0.26189   0.20491   0.00000  Uiso   1.00
H282   H     0.72947   0.31069   0.24245   0.00000  Uiso   1.00
C283   C     0.08744   0.50038   0.24876   0.00000  Uiso   1.00
C284   C     0.24577   0.49962   0.25229   0.00000  Uiso   1.00
C285   C     0.16710   0.49958   0.16499   0.00000  Uiso   1.00
C286   C     0.16677   0.50031   0.33478   0.00000  Uiso   1.00
C287   C     0.18944   0.35708   0.21890   0.00000  Uiso   1.00
C288   C     0.14485   0.64321   0.28186   0.00000  Uiso   1.00
C289   C     0.14226   0.35941   0.27969   0.00000  Uiso   1.00
C290   C     0.18979   0.64061   0.21930   0.00000  Uiso   1.00
C291   C     0.02168   0.46070   0.23519   0.00000  Uiso   1.00
C292   C     0.31086   0.53947   0.26808   0.00000  Uiso   1.00
C293   C     0.31301   0.45846   0.24228   0.00000  Uiso   1.00
C294   C     0.02015   0.54131   0.26269   0.00000  Uiso   1.00
C295   C     0.19436   0.52798   0.04684   0.00000  Uiso   1.00
C296   C     0.13127   0.50694   0.45374   0.00000  Uiso   1.00
C297   C     0.20436   0.49133   0.45033   0.00000  Uiso   1.00
C298   C     0.14303   0.46828   0.04704   0.00000  Uiso   1.00
C299   C     0.19394   0.52825   0.09310   0.00000  Uiso   1.00
C300   C     0.13094   0.50796   0.40753   0.00000  Uiso   1.00
C301   C     0.20384   0.49150   0.40412   0.00000  Uiso   1.00
C302   C     0.14320   0.46800   0.09325   0.00000  Uiso   1.00
C303   C     0.16800   0.49866   0.11651   0.00000  Uiso   1.00
C304   C     0.16728   0.50063   0.38283   0.00000  Uiso   1.00
C305   C     0.16849   0.49842   0.02373   0.00000  Uiso   1.00
C306   C     0.16806   0.49897   0.47525   0.00000  Uiso   1.00
C307   C     0.29045   0.49878   0.25532   0.00000  Uiso   1.00
C308   C     0.04258   0.50117   0.24794   0.00000  Uiso   1.00
Cu309  Cu    0.16667   0.54689   0.25000   0.00000  Uiso   1.00
Cu310  Cu    0.16667   0.45311   0.25000   0.00000  Uiso   1.00
H311   H     0.21443   0.55113   0.02907   0.00000  Uiso   1.00
H312   H     0.10305   0.51284   0.47274   0.00000  Uiso   1.00
H313   H     0.23282   0.48450   0.46666   0.00000  Uiso   1.00
H314   H     0.12341   0.44474   0.02943   0.00000  Uiso   1.00
H315   H     0.21448   0.55075   0.11049   0.00000  Uiso   1.00
H316   H     0.10248   0.51436   0.39103   0.00000  Uiso   1.00
H317   H     0.23179   0.48436   0.38504   0.00000  Uiso   1.00
H318   H     0.12395   0.44397   0.11068   0.00000  Uiso   1.00
N319   N     0.16667   0.61736   0.25000   0.00000  Uiso   1.00
N320   N     0.16667   0.38264   0.25000   0.00000  Uiso   1.00
O321   O     0.10655   0.53958   0.25000   0.00000  Uiso   1.00
O322   O     0.22679   0.46042   0.25001   0.00000  Uiso   1.00
O323   O     0.22679   0.53958   0.25001   0.00000  Uiso   1.00
O324   O     0.10655   0.46042   0.25000   0.00000  Uiso   1.00
O325   O     0.16666   0.53959   0.18573   0.00000  Uiso   1.00
O326   O     0.16667   0.46041   0.31427   0.00000  Uiso   1.00
O327   O     0.16667   0.53959   0.31427   0.00000  Uiso   1.00
O328   O     0.16666   0.46041   0.18573   0.00000  Uiso   1.00
N329   N     0.21183   0.38074   0.18541   0.00000  Uiso   1.00
H330   H     0.24278   0.37526   0.18598   0.00000  Uiso   1.00
C331   C     0.19646   0.37746   0.14075   0.00000  Uiso   1.00
H332   H     0.20973   0.34687   0.12244   0.00000  Uiso   1.00
H333   H     0.20617   0.40832   0.12207   0.00000  Uiso   1.00
H334   H     0.16258   0.37587   0.14128   0.00000  Uiso   1.00
N335   N     0.12585   0.62057   0.31830   0.00000  Uiso   1.00
H336   H     0.09580   0.63020   0.32424   0.00000  Uiso   1.00
C337   C     0.14914   0.62154   0.35877   0.00000  Uiso   1.00
H338   H     0.14885   0.65606   0.37488   0.00000  Uiso   1.00
H339   H     0.18160   0.61159   0.35192   0.00000  Uiso   1.00
H340   H     0.13553   0.59745   0.38298   0.00000  Uiso   1.00
N341   N     0.10888   0.38367   0.30159   0.00000  Uiso   1.00
H342   H     0.08077   0.37060   0.29415   0.00000  Uiso   1.00
C343   C     0.11139   0.39615   0.34824   0.00000  Uiso   1.00
H344   H     0.09341   0.37182   0.36881   0.00000  Uiso   1.00
H345   H     0.09761   0.43122   0.35386   0.00000  Uiso   1.00
H346   H     0.14341   0.39663   0.35923   0.00000  Uiso   1.00
N347   N     0.21239   0.61441   0.18632   0.00000  Uiso   1.00
H348   H     0.19952   0.61356   0.15553   0.00000  Uiso   1.00
C349   C     0.25650   0.61652   0.18601   0.00000  Uiso   1.00
H350   H     0.26777   0.63503   0.15620   0.00000  Uiso   1.00
H351   H     0.26954   0.58078   0.18442   0.00000  Uiso   1.00
H352   H     0.26747   0.63444   0.21620   0.00000  Uiso   1.00
N353   N     0.04152   0.42264   0.21216   0.00000  Uiso   1.00
H354   H     0.06155   0.40271   0.22952   0.00000  Uiso   1.00
C355   C     0.05284   0.43083   0.16630   0.00000  Uiso   1.00
H356   H     0.02526   0.43959   0.14731   0.00000  Uiso   1.00
H357   H     0.06742   0.39905   0.15118   0.00000  Uiso   1.00
H358   H     0.07450   0.45989   0.16420   0.00000  Uiso   1.00
N359   N     0.28847   0.57805   0.28751   0.00000  Uiso   1.00
H360   H     0.29945   0.61039   0.28059   0.00000  Uiso   1.00
C361   C     0.27760   0.57319   0.33406   0.00000  Uiso   1.00
H362   H     0.30553   0.57094   0.35407   0.00000  Uiso   1.00
H363   H     0.25920   0.54171   0.33894   0.00000  Uiso   1.00
H364   H     0.25903   0.60377   0.34586   0.00000  Uiso   1.00
N365   N     0.29370   0.41482   0.23733   0.00000  Uiso   1.00
H366   H     0.30498   0.39427   0.21123   0.00000  Uiso   1.00
C367   C     0.29027   0.38943   0.27827   0.00000  Uiso   1.00
H368   H     0.32090   0.37712   0.28836   0.00000  Uiso   1.00
H369   H     0.27048   0.35906   0.27330   0.00000  Uiso   1.00
H370   H     0.27614   0.41160   0.30535   0.00000  Uiso   1.00
N371   N     0.04042   0.58368   0.27174   0.00000  Uiso   1.00
H372   H     0.03099   0.60073   0.30075   0.00000  Uiso   1.00
C373   C     0.04377   0.61391   0.23392   0.00000  Uiso   1.00
H374   H     0.01324   0.62690   0.22441   0.00000  Uiso   1.00
H375   H     0.05850   0.59522   0.20491   0.00000  Uiso   1.00
H376   H     0.06281   0.64402   0.24245   0.00000  Uiso   1.00
C377   C     0.42077   0.50038   0.24876   0.00000  Uiso   1.00
C378   C     0.57910   0.49962   0.25229   0.00000  Uiso   1.00
C379   C     0.50044   0.49958   0.16499   0.00000  Uiso   1.00
C380   C     0.50010   0.50031   0.33478   0.00000  Uiso   1.00
C381   C     0.52278   0.35708   0.21890   0.00000  Uiso   1.00
C382   C     0.47819   0.64321   0.28186   0.00000  Uiso   1.00
C383   C     0.47560   0.35941   0.27969   0.00000  Uiso   1.00
C384   C     0.52313   0.64061   0.21930   0.00000  Uiso   1.00
C385   C     0.35501   0.46070   0.23519   0.00000  Uiso   1.00
C386   C     0.64420   0.53947   0.26808   0.00000  Uiso   1.00
C387   C     0.64634   0.45846   0.24228   0.00000  Uiso   1.00
C388   C     0.35349   0.54131   0.26269   0.00000  Uiso   1.00
C389   C     0.52769   0.52798   0.04684   0.00000  Uiso   1.00
C390   C     0.46460   0.50694   0.45374   0.00000  Uiso   1.00
C391   C     0.53769   0.49133   0.45033   0.00000  Uiso   1.00
C392   C     0.47636   0.46828   0.04704   0.00000  Uiso   1.00
C393   C     0.52728   0.52825   0.09310   0.00000  Uiso   1.00
C394   C     0.46427   0.50796   0.40753   0.00000  Uiso   1.00
C395   C     0.53717   0.49150   0.40412   0.00000  Uiso   1.00
C396   C     0.47654   0.46800   0.09325   0.00000  Uiso   1.00
C397   C     0.50133   0.49866   0.11651   0.00000  Uiso   1.00
C398   C     0.50061   0.50063   0.38283   0.00000  Uiso   1.00
C399   C     0.50182   0.49842   0.02373   0.00000  Uiso   1.00
C400   C     0.50139   0.49897   0.47525   0.00000  Uiso   1.00
C401   C     0.62378   0.49878   0.25532   0.00000  Uiso   1.00
C402   C     0.37591   0.50117   0.24794   0.00000  Uiso   1.00
Cu403  Cu    0.50000   0.54689   0.25000   0.00000  Uiso   1.00
Cu404  Cu    0.50000   0.45311   0.25000   0.00000  Uiso   1.00
H405   H     0.54777   0.55113   0.02907   0.00000  Uiso   1.00
H406   H     0.43638   0.51284   0.47274   0.00000  Uiso   1.00
H407   H     0.56616   0.48450   0.46666   0.00000  Uiso   1.00
H408   H     0.45674   0.44474   0.02943   0.00000  Uiso   1.00
H409   H     0.54781   0.55075   0.11049   0.00000  Uiso   1.00
H410   H     0.43581   0.51436   0.39103   0.00000  Uiso   1.00
H411   H     0.56512   0.48436   0.38504   0.00000  Uiso   1.00
H412   H     0.45728   0.44397   0.11068   0.00000  Uiso   1.00
N413   N     0.50000   0.61736   0.25000   0.00000  Uiso   1.00
N414   N     0.50000   0.38264   0.25000   0.00000  Uiso   1.00
O415   O     0.43988   0.53958   0.25000   0.00000  Uiso   1.00
O416   O     0.56012   0.46042   0.25001   0.00000  Uiso   1.00
O417   O     0.56012   0.53958   0.25001   0.00000  Uiso   1.00
O418   O     0.43988   0.46042   0.25000   0.00000  Uiso   1.00
O419   O     0.50000   0.53959   0.18573   0.00000  Uiso   1.00
O420   O     0.50000   0.46041   0.31427   0.00000  Uiso   1.00
O421   O     0.50000   0.53959   0.31427   0.00000  Uiso   1.00
O422   O     0.50000   0.46041   0.18573   0.00000  Uiso   1.00
N423   N     0.54516   0.38074   0.18541   0.00000  Uiso   1.00
H424   H     0.57612   0.37526   0.18598   0.00000  Uiso   1.00
C425   C     0.52979   0.37746   0.14075   0.00000  Uiso   1.00
H426   H     0.54306   0.34687   0.12244   0.00000  Uiso   1.00
H427   H     0.53950   0.40832   0.12207   0.00000  Uiso   1.00
H428   H     0.49592   0.37587   0.14128   0.00000  Uiso   1.00
N429   N     0.45918   0.62057   0.31830   0.00000  Uiso   1.00
H430   H     0.42913   0.63020   0.32424   0.00000  Uiso   1.00
C431   C     0.48247   0.62154   0.35877   0.00000  Uiso   1.00
H432   H     0.48218   0.65606   0.37488   0.00000  Uiso   1.00
H433   H     0.51493   0.61159   0.35192   0.00000  Uiso   1.00
H434   H     0.46887   0.59745   0.38298   0.00000  Uiso   1.00
N435   N     0.44222   0.38367   0.30159   0.00000  Uiso   1.00
H436   H     0.41410   0.37060   0.29415   0.00000  Uiso   1.00
C437   C     0.44472   0.39615   0.34824   0.00000  Uiso   1.00
H438   H     0.42674   0.37182   0.36881   0.00000  Uiso   1.00
H439   H     0.43094   0.43122   0.35386   0.00000  Uiso   1.00
H440   H     0.47675   0.39663   0.35923   0.00000  Uiso   1.00
N441   N     0.54573   0.61441   0.18632   0.00000  Uiso   1.00
H442   H     0.53285   0.61356   0.15553   0.00000  Uiso   1.00
C443   C     0.58983   0.61652   0.18601   0.00000  Uiso   1.00
H444   H     0.60110   0.63503   0.15620   0.00000  Uiso   1.00
H445   H     0.60287   0.58078   0.18442   0.00000  Uiso   1.00
H446   H     0.60080   0.63444   0.21620   0.00000  Uiso   1.00
N447   N     0.37485   0.42264   0.21216   0.00000  Uiso   1.00
H448   H     0.39489   0.40271   0.22952   0.00000  Uiso   1.00
C449   C     0.38617   0.43083   0.16630   0.00000  Uiso   1.00
H450   H     0.35859   0.43959   0.14731   0.00000  Uiso   1.00
H451   H     0.40075   0.39905   0.15118   0.00000  Uiso   1.00
H452   H     0.40784   0.45989   0.16420   0.00000  Uiso   1.00
N453   N     0.62180   0.57805   0.28751   0.00000  Uiso   1.00
H454   H     0.63278   0.61039   0.28059   0.00000  Uiso   1.00
C455   C     0.61093   0.57319   0.33406   0.00000  Uiso   1.00
H456   H     0.63886   0.57094   0.35407   0.00000  Uiso   1.00
H457   H     0.59253   0.54171   0.33894   0.00000  Uiso   1.00
H458   H     0.59236   0.60377   0.34586   0.00000  Uiso   1.00
N459   N     0.62704   0.41482   0.23733   0.00000  Uiso   1.00
H460   H     0.63832   0.39427   0.21123   0.00000  Uiso   1.00
C461   C     0.62360   0.38943   0.27827   0.00000  Uiso   1.00
H462   H     0.65423   0.37712   0.28836   0.00000  Uiso   1.00
H463   H     0.60381   0.35906   0.27330   0.00000  Uiso   1.00
H464   H     0.60947   0.41160   0.30535   0.00000  Uiso   1.00
N465   N     0.37375   0.58368   0.27174   0.00000  Uiso   1.00
H466   H     0.36432   0.60073   0.30075   0.00000  Uiso   1.00
C467   C     0.37711   0.61391   0.23392   0.00000  Uiso   1.00
H468   H     0.34658   0.62690   0.22441   0.00000  Uiso   1.00
H469   H     0.39184   0.59522   0.20491   0.00000  Uiso   1.00
H470   H     0.39614   0.64402   0.24245   0.00000  Uiso   1.00
C471   C     0.75410   0.50038   0.24876   0.00000  Uiso   1.00
C472   C     0.91243   0.49962   0.25229   0.00000  Uiso   1.00
C473   C     0.83377   0.49958   0.16499   0.00000  Uiso   1.00
C474   C     0.83344   0.50031   0.33478   0.00000  Uiso   1.00
C475   C     0.85611   0.35708   0.21890   0.00000  Uiso   1.00
C476   C     0.81152   0.64321   0.28186   0.00000  Uiso   1.00
C477   C     0.80893   0.35941   0.27969   0.00000  Uiso   1.00
C478   C     0.85646   0.64061   0.21930   0.00000  Uiso   1.00
C479   C     0.68835   0.46070   0.23519   0.00000  Uiso   1.00
C480   C     0.97753   0.53947   0.26808   0.00000  Uiso   1.00
C481   C     0.97967   0.45846   0.24228   0.00000  Uiso   1.00
C482   C     0.68682   0.54131   0.26269   0.00000  Uiso   1.00
C483   C     0.86102   0.52798   0.04684   0.00000  Uiso   1.00
C484   C     0.79794   0.50694   0.45374   0.00000  Uiso   1.00
C485   C     0.87103   0.49133   0.45033   0.00000  Uiso   1.00
C486   C     0.80970   0.46828   0.04704   0.00000  Uiso   1.00
C487   C     0.86061   0.52825   0.09310   0.00000  Uiso   1.00
C488   C     0.79760   0.50796   0.40753   0.00000  Uiso   1.00
C489   C     0.87050   0.49150   0.40412   0.00000  Uiso   1.00
C490   C     0.80987   0.46800   0.09325   0.00000  Uiso   1.00
C491   C     0.83467   0.49866   0.11651   0.00000  Uiso   1.00
C492   C     0.83395   0.50063   0.38283   0.00000  Uiso   1.00
C493   C     0.83515   0.49842   0.02373   0.00000  Uiso   1.00
C494   C     0.83472   0.49897   0.47525   0.00000  Uiso   1.00
C495   C     0.95711   0.49878   0.25532   0.00000  Uiso   1.00
C496   C     0.70925   0.50117   0.24794   0.00000  Uiso   1.00
Cu497  Cu    0.83333   0.54689   0.25000   0.00000  Uiso   1.00
Cu498  Cu    0.83333   0.45311   0.25000   0.00000  Uiso   1.00
H499   H     0.88110   0.55113   0.02907   0.00000  Uiso   1.00
H500   H     0.76972   0.51284   0.47274   0.00000  Uiso   1.00
H501   H     0.89949   0.48450   0.46666   0.00000  Uiso   1.00
H502   H     0.79007   0.44474   0.02943   0.00000  Uiso   1.00
H503   H     0.88115   0.55075   0.11049   0.00000  Uiso   1.00
H504   H     0.76914   0.51436   0.39103   0.00000  Uiso   1.00
H505   H     0.89846   0.48436   0.38504   0.00000  Uiso   1.00
H506   H     0.79061   0.44397   0.11068   0.00000  Uiso   1.00
N507   N     0.83333   0.61736   0.25000   0.00000  Uiso   1.00
N508   N     0.83333   0.38264   0.25000   0.00000  Uiso   1.00
O509   O     0.77321   0.53958   0.25000   0.00000  Uiso   1.00
O510   O     0.89345   0.46042   0.25001   0.00000  Uiso   1.00
O511   O     0.89345   0.53958   0.25001   0.00000  Uiso   1.00
O512   O     0.77321   0.46042   0.25000   0.00000  Uiso   1.00
O513   O     0.83333   0.53959   0.18573   0.00000  Uiso   1.00
O514   O     0.83334   0.46041   0.31427   0.00000  Uiso   1.00
O515   O     0.83334   0.53959   0.31427   0.00000  Uiso   1.00
O516   O     0.83333   0.46041   0.18573   0.00000  Uiso   1.00
N517   N     0.87850   0.38074   0.18541   0.00000  Uiso   1.00
H518   H     0.90945   0.37526   0.18598   0.00000  Uiso   1.00
C519   C     0.86312   0.37746   0.14075   0.00000  Uiso   1.00
H520   H     0.87639   0.34687   0.12244   0.00000  Uiso   1.00
H521   H     0.87283   0.40832   0.12207   0.00000  Uiso   1.00
H522   H     0.82925   0.37587   0.14128   0.00000  Uiso   1.00
N523   N     0.79252   0.62057   0.31830   0.00000  Uiso   1.00
H524   H     0.76246   0.63020   0.32424   0.00000  Uiso   1.00
C525   C     0.81580   0.62154   0.35877   0.00000  Uiso   1.00
H526   H     0.81551   0.65606   0.37488   0.00000  Uiso   1.00
H527   H     0.84826   0.61159   0.35192   0.00000  Uiso   1.00
H528   H     0.80220   0.59745   0.38298   0.00000  Uiso   1.00
N529   N     0.77555   0.38367   0.30159   0.00000  Uiso   1.00
H530   H     0.74743   0.37060   0.29415   0.00000  Uiso   1.00
C531   C     0.77805   0.39615   0.34824   0.00000  Uiso   1.00
H532   H     0.76007   0.37182   0.36881   0.00000  Uiso   1.00
H533   H     0.76428   0.43122   0.35386   0.00000  Uiso   1.00
H534   H     0.81008   0.39663   0.35923   0.00000  Uiso   1.00
N535   N     0.87906   0.61441   0.18632   0.00000  Uiso   1.00
H536   H     0.86619   0.61356   0.15553   0.00000  Uiso   1.00
C537   C     0.92316   0.61652   0.18601   0.00000  Uiso   1.00
H538   H     0.93443   0.63503   0.15620   0.00000  Uiso   1.00
H539   H     0.93621   0.58078   0.18442   0.00000  Uiso   1.00
H540   H     0.93413   0.63444   0.21620   0.00000  Uiso   1.00
N541   N     0.70818   0.42264   0.21216   0.00000  Uiso   1.00
H542   H     0.72822   0.40271   0.22952   0.00000  Uiso   1.00
C543   C     0.71951   0.43083   0.16630   0.00000  Uiso   1.00
H544   H     0.69192   0.43959   0.14731   0.00000  Uiso   1.00
H545   H     0.73408   0.39905   0.15118   0.00000  Uiso   1.00
H546   H     0.74117   0.45989   0.16420   0.00000  Uiso   1.00
N547   N     0.95513   0.57805   0.28751   0.00000  Uiso   1.00
H548   H     0.96612   0.61039   0.28059   0.00000  Uiso   1.00
C549   C     0.94426   0.57319   0.33406   0.00000  Uiso   1.00
H550   H     0.97220   0.57094   0.35407   0.00000  Uiso   1.00
H551   H     0.92587   0.54171   0.33894   0.00000  Uiso   1.00
H552   H     0.92570   0.60377   0.34586   0.00000  Uiso   1.00
N553   N     0.96037   0.41482   0.23733   0.00000  Uiso   1.00
H554   H     0.97165   0.39427   0.21123   0.00000  Uiso   1.00
C555   C     0.95693   0.38943   0.27827   0.00000  Uiso   1.00
H556   H     0.98757   0.37712   0.28836   0.00000  Uiso   1.00
H557   H     0.93715   0.35906   0.27330   0.00000  Uiso   1.00
H558   H     0.94281   0.41160   0.30535   0.00000  Uiso   1.00
N559   N     0.70708   0.58368   0.27174   0.00000  Uiso   1.00
H560   H     0.69766   0.60073   0.30075   0.00000  Uiso   1.00
C561   C     0.71044   0.61391   0.23392   0.00000  Uiso   1.00
H562   H     0.67991   0.62690   0.22441   0.00000  Uiso   1.00
H563   H     0.72517   0.59522   0.20491   0.00000  Uiso   1.00
H564   H     0.72947   0.64402   0.24245   0.00000  Uiso   1.00
C565   C     0.08744   0.83371   0.24876   0.00000  Uiso   1.00
C566   C     0.24577   0.83295   0.25229   0.00000  Uiso   1.00
C567   C     0.16710   0.83291   0.16499   0.00000  Uiso   1.00
C568   C     0.16677   0.83364   0.33478   0.00000  Uiso   1.00
C569   C     0.18944   0.69041   0.21890   0.00000  Uiso   1.00
C570   C     0.14485   0.97654   0.28186   0.00000  Uiso   1.00
C571   C     0.14226   0.69274   0.27969   0.00000  Uiso   1.00
C572   C     0.18979   0.97394   0.21930   0.00000  Uiso   1.00
C573   C     0.02168   0.79404   0.23519   0.00000  Uiso   1.00
C574   C     0.31086   0.87281   0.26808   0.00000  Uiso   1.00
C575   C     0.31301   0.79179   0.24228   0.00000  Uiso   1.00
C576   C     0.02015   0.87465   0.26269   0.00000  Uiso   1.00
C577   C     0.19436   0.86132   0.04684   0.00000  Uiso   1.00
C578   C     0.13127   0.84027   0.45374   0.00000  Uiso   1.00
C579   C     0.20436   0.82466   0.45033   0.00000  Uiso   1.00
C580   C     0.14303   0.80162   0.04704   0.00000  Uiso   1.00
C581   C     0.19394   0.86159   0.09310   0.00000  Uiso   1.00
C582   C     0.13094   0.84129   0.40753   0.00000  Uiso   1.00
C583   C     0.20384   0.82483   0.40412   0.00000  Uiso   1.00
C584   C     0.14320   0.80133   0.09325   0.00000  Uiso   1.00
C585   C     0.16800   0.83199   0.11651   0.00000  Uiso   1.00
C586   C     0.16728   0.83396   0.38283   0.00000  Uiso   1.00
C587   C     0.16849   0.83175   0.02373   0.00000  Uiso   1.00
C588   C     0.16806   0.83230   0.47525   0.00000  Uiso   1.00
C589   C     0.29045   0.83211   0.25532   0.00000  Uiso   1.00
C590   C     0.04258   0.83451   0.24794   0.00000  Uiso   1.00
Cu591  Cu    0.16667   0.88022   0.25000   0.00000  Uiso   1.00
Cu592  Cu    0.16667   0.78645   0.25000   0.00000  Uiso   1.00
H593   H     0.21443   0.88447   0.02907   0.00000  Uiso   1.00
H594   H     0.10305   0.84618   0.47274   0.00000  Uiso   1.00
H595   H     0.23282   0.81784   0.46666   0.00000  Uiso   1.00
H596   H     0.12341   0.77808   0.02943   0.00000  Uiso   1.00
H597   H     0.21448   0.88409   0.11049   0.00000  Uiso   1.00
H598   H     0.10248   0.84769   0.39103   0.00000  Uiso   1.00
H599   H     0.23179   0.81770   0.38504   0.00000  Uiso   1.00
H600   H     0.12395   0.77731   0.11068   0.00000  Uiso   1.00
N601   N     0.16667   0.95069   0.25000   0.00000  Uiso   1.00
N602   N     0.16667   0.71598   0.25000   0.00000  Uiso   1.00
O603   O     0.10655   0.87291   0.25000   0.00000  Uiso   1.00
O604   O     0.22679   0.79375   0.25001   0.00000  Uiso   1.00
O605   O     0.22679   0.87291   0.25001   0.00000  Uiso   1.00
O606   O     0.10655   0.79375   0.25000   0.00000  Uiso   1.00
O607   O     0.16666   0.87293   0.18573   0.00000  Uiso   1.00
O608   O     0.16667   0.79374   0.31427   0.00000  Uiso   1.00
O609   O     0.16667   0.87293   0.31427   0.00000  Uiso   1.00
O610   O     0.16666   0.79374   0.18573   0.00000  Uiso   1.00
N611   N     0.21183   0.71408   0.18541   0.00000  Uiso   1.00
H612   H     0.24278   0.70859   0.18598   0.00000  Uiso   1.00
C613   C     0.19646   0.71079   0.14075   0.00000  Uiso   1.00
H614   H     0.20973   0.68021   0.12244   0.00000  Uiso   1.00
H615   H     0.20617   0.74165   0.12207   0.00000  Uiso   1.00
H616   H     0.16258   0.70921   0.14128   0.00000  Uiso   1.00
N617   N     0.12585   0.95391   0.31830   0.00000  Uiso   1.00
H618   H     0.09580   0.96354   0.32424   0.00000  Uiso   1.00
C619   C     0.14914   0.95487   0.35877   0.00000  Uiso   1.00
H620   H     0.14885   0.98939   0.37488   0.00000  Uiso   1.00
H621   H     0.18160   0.94492   0.35192   0.00000  Uiso   1.00
H622   H     0.13553   0.93078   0.38298   0.00000  Uiso   1.00
N623   N     0.10888   0.71701   0.30159   0.00000  Uiso   1.00
H624   H     0.08077   0.70394   0.29415   0.00000  Uiso   1.00
C625   C     0.11139   0.72948   0.34824   0.00000  Uiso   1.00
H626   H     0.09341   0.70515   0.36881   0.00000  Uiso   1.00
H627   H     0.09761   0.76455   0.35386   0.00000  Uiso   1.00
H628   H     0.14341   0.72996   0.35923   0.00000  Uiso   1.00
N629   N     0.21239   0.94774   0.18632   0.00000  Uiso   1.00
H630   H     0.19952   0.94689   0.15553   0.00000  Uiso   1.00
C631   C     0.25650   0.94985   0.18601   0.00000  Uiso   1.00
H632   H     0.26777   0.96837   0.15620   0.00000  Uiso   1.00
H633   H     0.26954   0.91411   0.18442   0.00000  Uiso   1.00
H634   H     0.26747   0.96777   0.21620   0.00000  Uiso   1.00
N635   N     0.04152   0.75597   0.21216   0.00000  Uiso   1.00
H636   H     0.06155   0.73604   0.22952   0.00000  Uiso   1.00
C637   C     0.05284   0.76417   0.16630   0.00000  Uiso   1.00
H638   H     0.02526   0.77292   0.14731   0.00000  Uiso   1.00
H639   H     0.06742   0.73238   0.15118   0.00000  Uiso   1.00
H640   H     0.07450   0.79323   0.16420   0.00000  Uiso   1.00
N641   N     0.28847   0.91138   0.28751   0.00000  Uiso   1.00
H642   H     0.29945   0.94372   0.28059   0.00000  Uiso   1.00
C643   C     0.27760   0.90653   0.33406   0.00000  Uiso   1.00
H644   H     0.30553   0.90427   0.35407   0.00000  Uiso   1.00
H645   H     0.25920   0.87505   0.33894   0.00000  Uiso   1.00
H646   H     0.25903   0.93710   0.34586   0.00000  Uiso   1.00
N647   N     0.29370   0.74816   0.23733   0.00000  Uiso   1.00
H648   H     0.30498   0.72761   0.21123   0.00000  Uiso   1.00
C649   C     0.29027   0.72277   0.27827   0.00000  Uiso   1.00
H650   H     0.32090   0.71045   0.28836   0.00000  Uiso   1.00
H651   H     0.27048   0.69239   0.27330   0.00000  Uiso   1.00
H652   H     0.27614   0.74493   0.30535   0.00000  Uiso   1.00
N653   N     0.04042   0.91701   0.27174   0.00000  Uiso   1.00
H654   H     0.03099   0.93406   0.30075   0.00000  Uiso   1.00
C655   C     0.04377   0.94724   0.23392   0.00000  Uiso   1.00
H656   H     0.01324   0.96024   0.22441   0.00000  Uiso   1.00
H657   H     0.05850   0.92855   0.20491   0.00000  Uiso   1.00
H658   H     0.06281   0.97735   0.24245   0.00000  Uiso   1.00
C659   C     0.42077   0.83371   0.24876   0.00000  Uiso   1.00
C660   C     0.57910   0.83295   0.25229   0.00000  Uiso   1.00
C661   C     0.50044   0.83291   0.16499   0.00000  Uiso   1.00
C662   C     0.50010   0.83364   0.33478   0.00000  Uiso   1.00
C663   C     0.52278   0.69041   0.21890   0.00000  Uiso   1.00
C664   C     0.47819   0.97654   0.28186   0.00000  Uiso   1.00
C665   C     0.47560   0.69274   0.27969   0.00000  Uiso   1.00
C666   C     0.52313   0.97394   0.21930   0.00000  Uiso   1.00
C667   C     0.35501   0.79404   0.23519   0.00000  Uiso   1.00
C668   C     0.64420   0.87281   0.26808   0.00000  Uiso   1.00
C669   C     0.64634   0.79179   0.24228   0.00000  Uiso   1.00
C670   C     0.35349   0.87465   0.26269   0.00000  Uiso   1.00
C671   C     0.52769   0.86132   0.04684   0.00000  Uiso   1.00
C672   C     0.46460   0.84027   0.45374   0.00000  Uiso   1.00
C673   C     0.53769   0.82466   0.45033   0.00000  Uiso   1.00
C674   C     0.47636   0.80162   0.04704   0.00000  Uiso   1.00
C675   C     0.52728   0.86159   0.09310   0.00000  Uiso   1.00
C676   C     0.46427   0.84129   0.40753   0.00000  Uiso   1.00
C677   C     0.53717   0.82483   0.40412   0.00000  Uiso   1.00
C678   C     0.47654   0.80133   0.09325   0.00000  Uiso   1.00
C679   C     0.50133   0.83199   0.11651   0.00000  Uiso   1.00
C680   C     0.50061   0.83396   0.38283   0.00000  Uiso   1.00
C681   C     0.50182   0.83175   0.02373   0.00000  Uiso   1.00
C682   C     0.50139   0.83230   0.47525   0.00000  Uiso   1.00
C683   C     0.62378   0.83211   0.25532   0.00000  Uiso   1.00
C684   C     0.37591   0.83451   0.24794   0.00000  Uiso   1.00
Cu685  Cu    0.50000   0.88022   0.25000   0.00000  Uiso   1.00
Cu686  Cu    0.50000   0.78645   0.25000   0.00000  Uiso   1.00
H687   H     0.54777   0.88447   0.02907   0.00000  Uiso   1.00
H688   H     0.43638   0.84618   0.47274   0.00000  Uiso   1.00
H689   H     0.56616   0.81784   0.46666   0.00000  Uiso   1.00
H690   H     0.45674   0.77808   0.02943   0.00000  Uiso   1.00
H691   H     0.54781   0.88409   0.11049   0.00000  Uiso   1.00
H692   H     0.43581   0.84769   0.39103   0.00000  Uiso   1.00
H693   H     0.56512   0.81770   0.38504   0.00000  Uiso   1.00
H694   H     0.45728   0.77731   0.11068   0.00000  Uiso   1.00
N695   N     0.50000   0.95069   0.25000   0.00000  Uiso   1.00
N696   N     0.50000   0.71598   0.25000   0.00000  Uiso   1.00
O697   O     0.43988   0.87291   0.25000   0.00000  Uiso   1.00
O698   O     0.56012   0.79375   0.25001   0.00000  Uiso   1.00
O699   O     0.56012   0.87291   0.25001   0.00000  Uiso   1.00
O700   O     0.43988   0.79375   0.25000   0.00000  Uiso   1.00
O701   O     0.50000   0.87293   0.18573   0.00000  Uiso   1.00
O702   O     0.50000   0.79374   0.31427   0.00000  Uiso   1.00
O703   O     0.50000   0.87293   0.31427   0.00000  Uiso   1.00
O704   O     0.50000   0.79374   0.18573   0.00000  Uiso   1.00
N705   N     0.54516   0.71408   0.18541   0.00000  Uiso   1.00
H706   H     0.57612   0.70859   0.18598   0.00000  Uiso   1.00
C707   C     0.52979   0.71079   0.14075   0.00000  Uiso   1.00
H708   H     0.54306   0.68021   0.12244   0.00000  Uiso   1.00
H709   H     0.53950   0.74165   0.12207   0.00000  Uiso   1.00
H710   H     0.49592   0.70921   0.14128   0.00000  Uiso   1.00
N711   N     0.45918   0.95391   0.31830   0.00000  Uiso   1.00
H712   H     0.42913   0.96354   0.32424   0.00000  Uiso   1.00
C713   C     0.48247   0.95487   0.35877   0.00000  Uiso   1.00
H714   H     0.48218   0.98939   0.37488   0.00000  Uiso   1.00
H715   H     0.51493   0.94492   0.35192   0.00000  Uiso   1.00
H716   H     0.46887   0.93078   0.38298   0.00000  Uiso   1.00
N717   N     0.44222   0.71701   0.30159   0.00000  Uiso   1.00
H718   H     0.41410   0.70394   0.29415   0.00000  Uiso   1.00
C719   C     0.44472   0.72948   0.34824   0.00000  Uiso   1.00
H720   H     0.42674   0.70515   0.36881   0.00000  Uiso   1.00
H721   H     0.43094   0.76455   0.35386   0.00000  Uiso   1.00
H722   H     0.47675   0.72996   0.35923   0.00000  Uiso   1.00
N723   N     0.54573   0.94774   0.18632   0.00000  Uiso   1.00
H724   H     0.53285   0.94689   0.15553   0.00000  Uiso   1.00
C725   C     0.58983   0.94985   0.18601   0.00000  Uiso   1.00
H726   H     0.60110   0.96837   0.15620   0.00000  Uiso   1.00
H727   H     0.60287   0.91411   0.18442   0.00000  Uiso   1.00
H728   H     0.60080   0.96777   0.21620   0.00000  Uiso   1.00
N729   N     0.37485   0.75597   0.21216   0.00000  Uiso   1.00
H730   H     0.39489   0.73604   0.22952   0.00000  Uiso   1.00
C731   C     0.38617   0.76417   0.16630   0.00000  Uiso   1.00
H732   H     0.35859   0.77292   0.14731   0.00000  Uiso   1.00
H733   H     0.40075   0.73238   0.15118   0.00000  Uiso   1.00
H734   H     0.40784   0.79323   0.16420   0.00000  Uiso   1.00
N735   N     0.62180   0.91138   0.28751   0.00000  Uiso   1.00
H736   H     0.63278   0.94372   0.28059   0.00000  Uiso   1.00
C737   C     0.61093   0.90653   0.33406   0.00000  Uiso   1.00
H738   H     0.63886   0.90427   0.35407   0.00000  Uiso   1.00
H739   H     0.59253   0.87505   0.33894   0.00000  Uiso   1.00
H740   H     0.59236   0.93710   0.34586   0.00000  Uiso   1.00
N741   N     0.62704   0.74816   0.23733   0.00000  Uiso   1.00
H742   H     0.63832   0.72761   0.21123   0.00000  Uiso   1.00
C743   C     0.62360   0.72277   0.27827   0.00000  Uiso   1.00
H744   H     0.65423   0.71045   0.28836   0.00000  Uiso   1.00
H745   H     0.60381   0.69239   0.27330   0.00000  Uiso   1.00
H746   H     0.60947   0.74493   0.30535   0.00000  Uiso   1.00
N747   N     0.37375   0.91701   0.27174   0.00000  Uiso   1.00
H748   H     0.36432   0.93406   0.30075   0.00000  Uiso   1.00
C749   C     0.37711   0.94724   0.23392   0.00000  Uiso   1.00
H750   H     0.34658   0.96024   0.22441   0.00000  Uiso   1.00
H751   H     0.39184   0.92855   0.20491   0.00000  Uiso   1.00
H752   H     0.39614   0.97735   0.24245   0.00000  Uiso   1.00
C753   C     0.75410   0.83371   0.24876   0.00000  Uiso   1.00
C754   C     0.91243   0.83295   0.25229   0.00000  Uiso   1.00
C755   C     0.83377   0.83291   0.16499   0.00000  Uiso   1.00
C756   C     0.83344   0.83364   0.33478   0.00000  Uiso   1.00
C757   C     0.85611   0.69041   0.21890   0.00000  Uiso   1.00
C758   C     0.81152   0.97654   0.28186   0.00000  Uiso   1.00
C759   C     0.80893   0.69274   0.27969   0.00000  Uiso   1.00
C760   C     0.85646   0.97394   0.21930   0.00000  Uiso   1.00
C761   C     0.68835   0.79404   0.23519   0.00000  Uiso   1.00
C762   C     0.97753   0.87281   0.26808   0.00000  Uiso   1.00
C763   C     0.97967   0.79179   0.24228   0.00000  Uiso   1.00
C764   C     0.68682   0.87465   0.26269   0.00000  Uiso   1.00
C765   C     0.86102   0.86132   0.04684   0.00000  Uiso   1.00
C766   C     0.79794   0.84027   0.45374   0.00000  Uiso   1.00
C767   C     0.87103   0.82466   0.45033   0.00000  Uiso   1.00
C768   C     0.80970   0.80162   0.04704   0.00000  Uiso   1.00
C769   C     0.86061   0.86159   0.09310   0.00000  Uiso   1.00
C770   C     0.79760   0.84129   0.40753   0.00000  Uiso   1.00
C771   C     0.87050   0.82483   0.40412   0.00000  Uiso   1.00
C772   C     0.80987   0.80133   0.09325   0.00000  Uiso   1.00
C773   C     0.83467   0.83199   0.11651   0.00000  Uiso   1.00
C774   C     0.83395   0.83396   0.38283   0.00000  Uiso   1.00
C775   C     0.83515   0.83175   0.02373   0.00000  Uiso   1.00
C776   C     0.83472   0.83230   0.47525   0.00000  Uiso   1.00
C777   C     0.95711   0.83211   0.25532   0.00000  Uiso   1.00
C778   C     0.70925   0.83451   0.24794   0.00000  Uiso   1.00
Cu779  Cu    0.83333   0.88022   0.25000   0.00000  Uiso   1.00
Cu780  Cu    0.83333   0.78645   0.25000   0.00000  Uiso   1.00
H781   H     0.88110   0.88447   0.02907   0.00000  Uiso   1.00
H782   H     0.76972   0.84618   0.47274   0.00000  Uiso   1.00
H783   H     0.89949   0.81784   0.46666   0.00000  Uiso   1.00
H784   H     0.79007   0.77808   0.02943   0.00000  Uiso   1.00
H785   H     0.88115   0.88409   0.11049   0.00000  Uiso   1.00
H786   H     0.76914   0.84769   0.39103   0.00000  Uiso   1.00
H787   H     0.89846   0.81770   0.38504   0.00000  Uiso   1.00
H788   H     0.79061   0.77731   0.11068   0.00000  Uiso   1.00
N789   N     0.83333   0.95069   0.25000   0.00000  Uiso   1.00
N790   N     0.83333   0.71598   0.25000   0.00000  Uiso   1.00
O791   O     0.77321   0.87291   0.25000   0.00000  Uiso   1.00
O792   O     0.89345   0.79375   0.25001   0.00000  Uiso   1.00
O793   O     0.89345   0.87291   0.25001   0.00000  Uiso   1.00
O794   O     0.77321   0.79375   0.25000   0.00000  Uiso   1.00
O795   O     0.83333   0.87293   0.18573   0.00000  Uiso   1.00
O796   O     0.83334   0.79374   0.31427   0.00000  Uiso   1.00
O797   O     0.83334   0.87293   0.31427   0.00000  Uiso   1.00
O798   O     0.83333   0.79374   0.18573   0.00000  Uiso   1.00
N799   N     0.87850   0.71408   0.18541   0.00000  Uiso   1.00
H800   H     0.90945   0.70859   0.18598   0.00000  Uiso   1.00
C801   C     0.86312   0.71079   0.14075   0.00000  Uiso   1.00
H802   H     0.87639   0.68021   0.12244   0.00000  Uiso   1.00
H803   H     0.87283   0.74165   0.12207   0.00000  Uiso   1.00
H804   H     0.82925   0.70921   0.14128   0.00000  Uiso   1.00
N805   N     0.79252   0.95391   0.31830   0.00000  Uiso   1.00
H806   H     0.76246   0.96354   0.32424   0.00000  Uiso   1.00
C807   C     0.81580   0.95487   0.35877   0.00000  Uiso   1.00
H808   H     0.81551   0.98939   0.37488   0.00000  Uiso   1.00
H809   H     0.84826   0.94492   0.35192   0.00000  Uiso   1.00
H810   H     0.80220   0.93078   0.38298   0.00000  Uiso   1.00
N811   N     0.77555   0.71701   0.30159   0.00000  Uiso   1.00
H812   H     0.74743   0.70394   0.29415   0.00000  Uiso   1.00
C813   C     0.77805   0.72948   0.34824   0.00000  Uiso   1.00
H814   H     0.76007   0.70515   0.36881   0.00000  Uiso   1.00
H815   H     0.76428   0.76455   0.35386   0.00000  Uiso   1.00
H816   H     0.81008   0.72996   0.35923   0.00000  Uiso   1.00
N817   N     0.87906   0.94774   0.18632   0.00000  Uiso   1.00
H818   H     0.86619   0.94689   0.15553   0.00000  Uiso   1.00
C819   C     0.92316   0.94985   0.18601   0.00000  Uiso   1.00
H820   H     0.93443   0.96837   0.15620   0.00000  Uiso   1.00
H821   H     0.93621   0.91411   0.18442   0.00000  Uiso   1.00
H822   H     0.93413   0.96777   0.21620   0.00000  Uiso   1.00
N823   N     0.70818   0.75597   0.21216   0.00000  Uiso   1.00
H824   H     0.72822   0.73604   0.22952   0.00000  Uiso   1.00
C825   C     0.71951   0.76417   0.16630   0.00000  Uiso   1.00
H826   H     0.69192   0.77292   0.14731   0.00000  Uiso   1.00
H827   H     0.73408   0.73238   0.15118   0.00000  Uiso   1.00
H828   H     0.74117   0.79323   0.16420   0.00000  Uiso   1.00
N829   N     0.95513   0.91138   0.28751   0.00000  Uiso   1.00
H830   H     0.96612   0.94372   0.28059   0.00000  Uiso   1.00
C831   C     0.94426   0.90653   0.33406   0.00000  Uiso   1.00
H832   H     0.97220   0.90427   0.35407   0.00000  Uiso   1.00
H833   H     0.92587   0.87505   0.33894   0.00000  Uiso   1.00
H834   H     0.92570   0.93710   0.34586   0.00000  Uiso   1.00
N835   N     0.96037   0.74816   0.23733   0.00000  Uiso   1.00
H836   H     0.97165   0.72761   0.21123   0.00000  Uiso   1.00
C837   C     0.95693   0.72277   0.27827   0.00000  Uiso   1.00
H838   H     0.98757   0.71045   0.28836   0.00000  Uiso   1.00
H839   H     0.93715   0.69239   0.27330   0.00000  Uiso   1.00
H840   H     0.94281   0.74493   0.30535   0.00000  Uiso   1.00
N841   N     0.70708   0.91701   0.27174   0.00000  Uiso   1.00
H842   H     0.69766   0.93406   0.30075   0.00000  Uiso   1.00
C843   C     0.71044   0.94724   0.23392   0.00000  Uiso   1.00
H844   H     0.67991   0.96024   0.22441   0.00000  Uiso   1.00
H845   H     0.72517   0.92855   0.20491   0.00000  Uiso   1.00
H846   H     0.72947   0.97735   0.24245   0.00000  Uiso   1.00
C847   C     0.08744   0.16704   0.74876   0.00000  Uiso   1.00
C848   C     0.24577   0.16629   0.75229   0.00000  Uiso   1.00
C849   C     0.16710   0.16625   0.66499   0.00000  Uiso   1.00
C850   C     0.16677   0.16698   0.83478   0.00000  Uiso   1.00
C851   C     0.18944   0.02375   0.71890   0.00000  Uiso   1.00
C852   C     0.14485   0.30987   0.78186   0.00000  Uiso   1.00
C853   C     0.14226   0.02607   0.77969   0.00000  Uiso   1.00
C854   C     0.18979   0.30728   0.71930   0.00000  Uiso   1.00
C855   C     0.02168   0.12737   0.73519   0.00000  Uiso   1.00
C856   C     0.31086   0.20614   0.76808   0.00000  Uiso   1.00
C857   C     0.31301   0.12513   0.74228   0.00000  Uiso   1.00
C858   C     0.02015   0.20798   0.76269   0.00000  Uiso   1.00
C859   C     0.19436   0.19465   0.54684   0.00000  Uiso   1.00
C860   C     0.13127   0.17361   0.95374   0.00000  Uiso   1.00
C861   C     0.20436   0.15799   0.95033   0.00000  Uiso   1.00
C862   C     0.14303   0.13495   0.54704   0.00000  Uiso   1.00
C863   C     0.19394   0.19492   0.59310   0.00000  Uiso   1.00
C864   C     0.13094   0.17463   0.90753   0.00000  Uiso   1.00
C865   C     0.20384   0.15816   0.90412   0.00000  Uiso   1.00
C866   C     0.14320   0.13467   0.59325   0.00000  Uiso   1.00
C867   C     0.16800   0.16533   0.61651   0.00000  Uiso   1.00
C868   C     0.16728   0.16730   0.88283   0.00000  Uiso   1.00
C869   C     0.16849   0.16509   0.52373   0.00000  Uiso   1.00
C870   C     0.16806   0.16564   0.97525   0.00000  Uiso   1.00
C871   C     0.29045   0.16545   0.75532   0.00000  Uiso   1.00
C872   C     0.04258   0.16784   0.74794   0.00000  Uiso   1.00
Cu873  Cu    0.16667   0.21355   0.75000   0.00000  Uiso   1.00
Cu874  Cu    0.16667   0.11978   0.75000   0.00000  Uiso   1.00
H875   H     0.21443   0.21780   0.52907   0.00000  Uiso   1.00
H876   H     0.10305   0.17951   0.97274   0.00000  Uiso   1.00
H877   H     0.23282   0.15117   0.96666   0.00000  Uiso   1.00
H878   H     0.12341   0.11141   0.52943   0.00000  Uiso   1.00
H879   H     0.21448   0.21742   0.61049   0.00000  Uiso   1.00
H880   H     0.10248   0.18102   0.89103   0.00000  Uiso   1.00
H881   H     0.23179   0.15103   0.88504   0.00000  Uiso   1.00
H882   H     0.12395   0.11064   0.61068   0.00000  Uiso   1.00
N883   N     0.16667   0.28402   0.75000   0.00000  Uiso   1.00
N884   N     0.16667   0.04931   0.75000   0.00000  Uiso   1.00
O885   O     0.10655   0.20625   0.75000   0.00000  Uiso   1.00
O886   O     0.22679   0.12709   0.75001   0.00000  Uiso   1.00
O887   O     0.22679   0.20625   0.75001   0.00000  Uiso   1.00
O888   O     0.10655   0.12709   0.75000   0.00000  Uiso   1.00
O889   O     0.16666   0.20626   0.68573   0.00000  Uiso   1.00
O890   O     0.16667   0.12707   0.81427   0.00000  Uiso   1.00
O891   O     0.16667   0.20626   0.81427   0.00000  Uiso   1.00
O892   O     0.16666   0.12707   0.68573   0.00000  Uiso   1.00
N893   N     0.21183   0.04741   0.68541   0.00000  Uiso   1.00
H894   H     0.24278   0.04192   0.68598   0.00000  Uiso   1.00
C895   C     0.19646   0.04412   0.64075   0.00000  Uiso   1.00
H896   H     0.20973   0.01354   0.62244   0.00000  Uiso   1.00
H897   H     0.20617   0.07498   0.62207   0.00000  Uiso   1.00
H898   H     0.16258   0.04254   0.64128   0.00000  Uiso   1.00
N899   N     0.12585   0.28724   0.81830   0.00000  Uiso   1.00
H900   H     0.09580   0.29687   0.82424   0.00000  Uiso   1.00
C901   C     0.14914   0.28820   0.85877   0.00000  Uiso   1.00
H902   H     0.14885   0.32272   0.87488   0.00000  Uiso   1.00
H903   H     0.18160   0.27826   0.85192   0.00000  Uiso   1.00
H904   H     0.13553   0.26412   0.88298   0.00000  Uiso   1.00
N905   N     0.10888   0.05034   0.80159   0.00000  Uiso   1.00
H906   H     0.08077   0.03727   0.79415   0.00000  Uiso   1.00
C907   C     0.11139   0.06282   0.84824   0.00000  Uiso   1.00
H908   H     0.09341   0.03848   0.86881   0.00000  Uiso   1.00
H909   H     0.09761   0.09789   0.85386   0.00000  Uiso   1.00
H910   H     0.14341   0.06330   0.85923   0.00000  Uiso   1.00
N911   N     0.21239   0.28107   0.68632   0.00000  Uiso   1.00
H912   H     0.19952   0.28022   0.65553   0.00000  Uiso   1.00
C913   C     0.25650   0.28318   0.68601   0.00000  Uiso   1.00
H914   H     0.26777   0.30170   0.65620   0.00000  Uiso   1.00
H915   H     0.26954   0.24745   0.68442   0.00000  Uiso   1.00
H916   H     0.26747   0.30110   0.71620   0.00000  Uiso   1.00
N917   N     0.04152   0.08931   0.71216   0.00000  Uiso   1.00
H918   H     0.06155   0.06937   0.72952   0.00000  Uiso   1.00
C919   C     0.05284   0.09750   0.66630   0.00000  Uiso   1.00
H920   H     0.02526   0.10625   0.64731   0.00000  Uiso   1.00
H921   H     0.06742   0.06571   0.65118   0.00000  Uiso   1.00
H922   H     0.07450   0.12656   0.66420   0.00000  Uiso   1.00
N923   N     0.28847   0.24472   0.78751   0.00000  Uiso   1.00
H924   H     0.29945   0.27706   0.78059   0.00000  Uiso   1.00
C925   C     0.27760   0.23986   0.83406   0.00000  Uiso   1.00
H926   H     0.30553   0.23760   0.85407   0.00000  Uiso   1.00
H927   H     0.25920   0.20838   0.83894   0.00000  Uiso   1.00
H928   H     0.25903   0.27043   0.84586   0.00000  Uiso   1.00
N929   N     0.29370   0.08149   0.73733   0.00000  Uiso   1.00
H930   H     0.30498   0.06094   0.71123   0.00000  Uiso   1.00
C931   C     0.29027   0.05610   0.77827   0.00000  Uiso   1.00
H932   H     0.32090   0.04378   0.78836   0.00000  Uiso   1.00
H933   H     0.27048   0.02573   0.77330   0.00000  Uiso   1.00
H934   H     0.27614   0.07826   0.80535   0.00000  Uiso   1.00
N935   N     0.04042   0.25035   0.77174   0.00000  Uiso   1.00
H936   H     0.03099   0.26740   0.80075   0.00000  Uiso   1.00
C937   C     0.04377   0.28057   0.73392   0.00000  Uiso   1.00
H938   H     0.01324   0.29357   0.72441   0.00000  Uiso   1.00
H939   H     0.05850   0.26189   0.70491   0.00000  Uiso   1.00
H940   H     0.06281   0.31069   0.74245   0.00000  Uiso   1.00
C941   C     0.42077   0.16704   0.74876   0.00000  Uiso   1.00
C942   C     0.57910   0.16629   0.75229   0.00000  Uiso   1.00
C943   C     0.50044   0.16625   0.66499   0.00000  Uiso   1.00
C944   C     0.50010   0.16698   0.83478   0.00000  Uiso   1.00
C945   C     0.52278   0.02375   0.71890   0.00000  Uiso   1.00
C946   C     0.47819   0.30987   0.78186   0.00000  Uiso   1.00
C947   C     0.47560   0.02607   0.77969   0.00000  Uiso   1.00
C948   C     0.52313   0.30728   0.71930   0.00000  Uiso   1.00
C949   C     0.35501   0.12737   0.73519   0.00000  Uiso   1.00
C950   C     0.64420   0.20614   0.76808   0.00000  Uiso   1.00
C951   C     0.64634   0.12513   0.74228   0.00000  Uiso   1.00
C952   C     0.35349   0.20798   0.76269   0.00000  Uiso   1.00
C953   C     0.52769   0.19465   0.54684   0.00000  Uiso   1.00
C954   C     0.46460   0.17361   0.95374   0.00000  Uiso   1.00
C955   C     0.53769   0.15799   0.95033   0.00000  Uiso   1.00
C956   C     0.47636   0.13495   0.54704   0.00000  Uiso   1.00
C957   C     0.52728   0.19492   0.59310   0.00000  Uiso   1.00
C958   C     0.46427   0.17463   0.90753   0.00000  Uiso   1.00
C959   C     0.53717   0.15816   0.90412   0.00000  Uiso   1.00
C960   C     0.47654   0.13467   0.59325   0.00000  Uiso   1.00
C961   C     0.50133   0.16533   0.61651   0.00000  Uiso   1.00
C962   C     0.50061   0.16730   0.88283   0.00000  Uiso   1.00
C963   C     0.50182   0.16509   0.52373   0.00000  Uiso   1.00
C964   C     0.50139   0.16564   0.97525   0.00000  Uiso   1.00
C965   C     0.62378   0.16545   0.75532   0.00000  Uiso   1.00
C966   C     0.37591   0.16784   0.74794   0.00000  Uiso   1.00
Cu967  Cu    0.50000   0.21355   0.75000   0.00000  Uiso   1.00
Cu968  Cu    0.50000   0.11978   0.75000   0.00000  Uiso   1.00
H969   H     0.54777   0.21780   0.52907   0.00000  Uiso   1.00
H970   H     0.43638   0.17951   0.97274   0.00000  Uiso   1.00
H971   H     0.56616   0.15117   0.96666   0.00000  Uiso   1.00
H972   H     0.45674   0.11141   0.52943   0.00000  Uiso   1.00
H973   H     0.54781   0.21742   0.61049   0.00000  Uiso   1.00
H974   H     0.43581   0.18102   0.89103   0.00000  Uiso   1.00
H975   H     0.56512   0.15103   0.88504   0.00000  Uiso   1.00
H976   H     0.45728   0.11064   0.61068   0.00000  Uiso   1.00
N977   N     0.50000   0.28402   0.75000   0.00000  Uiso   1.00
N978   N     0.50000   0.04931   0.75000   0.00000  Uiso   1.00
O979   O     0.43988   0.20625   0.75000   0.00000  Uiso   1.00
O980   O     0.56012   0.12709   0.75001   0.00000  Uiso   1.00
O981   O     0.56012   0.20625   0.75001   0.00000  Uiso   1.00
O982   O     0.43988   0.12709   0.75000   0.00000  Uiso   1.00
O983   O     0.50000   0.20626   0.68573   0.00000  Uiso   1.00
O984   O     0.50000   0.12707   0.81427   0.00000  Uiso   1.00
O985   O     0.50000   0.20626   0.81427   0.00000  Uiso   1.00
O986   O     0.50000   0.12707   0.68573   0.00000  Uiso   1.00
N987   N     0.54516   0.04741   0.68541   0.00000  Uiso   1.00
H988   H     0.57612   0.04192   0.68598   0.00000  Uiso   1.00
C989   C     0.52979   0.04412   0.64075   0.00000  Uiso   1.00
H990   H     0.54306   0.01354   0.62244   0.00000  Uiso   1.00
H991   H     0.53950   0.07498   0.62207   0.00000  Uiso   1.00
H992   H     0.49592   0.04254   0.64128   0.00000  Uiso   1.00
N993   N     0.45918   0.28724   0.81830   0.00000  Uiso   1.00
H994   H     0.42913   0.29687   0.82424   0.00000  Uiso   1.00
C995   C     0.48247   0.28820   0.85877   0.00000  Uiso   1.00
H996   H     0.48218   0.32272   0.87488   0.00000  Uiso   1.00
H997   H     0.51493   0.27826   0.85192   0.00000  Uiso   1.00
H998   H     0.46887   0.26412   0.88298   0.00000  Uiso   1.00
N999   N     0.44222   0.05034   0.80159   0.00000  Uiso   1.00
H1000  H     0.41410   0.03727   0.79415   0.00000  Uiso   1.00
C1001  C     0.44472   0.06282   0.84824   0.00000  Uiso   1.00
H1002  H     0.42674   0.03848   0.86881   0.00000  Uiso   1.00
H1003  H     0.43094   0.09789   0.85386   0.00000  Uiso   1.00
H1004  H     0.47675   0.06330   0.85923   0.00000  Uiso   1.00
N1005  N     0.54573   0.28107   0.68632   0.00000  Uiso   1.00
H1006  H     0.53285   0.28022   0.65553   0.00000  Uiso   1.00
C1007  C     0.58983   0.28318   0.68601   0.00000  Uiso   1.00
H1008  H     0.60110   0.30170   0.65620   0.00000  Uiso   1.00
H1009  H     0.60287   0.24745   0.68442   0.00000  Uiso   1.00
H1010  H     0.60080   0.30110   0.71620   0.00000  Uiso   1.00
N1011  N     0.37485   0.08931   0.71216   0.00000  Uiso   1.00
H1012  H     0.39489   0.06937   0.72952   0.00000  Uiso   1.00
C1013  C     0.38617   0.09750   0.66630   0.00000  Uiso   1.00
H1014  H     0.35859   0.10625   0.64731   0.00000  Uiso   1.00
H1015  H     0.40075   0.06571   0.65118   0.00000  Uiso   1.00
H1016  H     0.40784   0.12656   0.66420   0.00000  Uiso   1.00
N1017  N     0.62180   0.24472   0.78751   0.00000  Uiso   1.00
H1018  H     0.63278   0.27706   0.78059   0.00000  Uiso   1.00
C1019  C     0.61093   0.23986   0.83406   0.00000  Uiso   1.00
H1020  H     0.63886   0.23760   0.85407   0.00000  Uiso   1.00
H1021  H     0.59253   0.20838   0.83894   0.00000  Uiso   1.00
H1022  H     0.59236   0.27043   0.84586   0.00000  Uiso   1.00
N1023  N     0.62704   0.08149   0.73733   0.00000  Uiso   1.00
H1024  H     0.63832   0.06094   0.71123   0.00000  Uiso   1.00
C1025  C     0.62360   0.05610   0.77827   0.00000  Uiso   1.00
H1026  H     0.65423   0.04378   0.78836   0.00000  Uiso   1.00
H1027  H     0.60381   0.02573   0.77330   0.00000  Uiso   1.00
H1028  H     0.60947   0.07826   0.80535   0.00000  Uiso   1.00
N1029  N     0.37375   0.25035   0.77174   0.00000  Uiso   1.00
H1030  H     0.36432   0.26740   0.80075   0.00000  Uiso   1.00
C1031  C     0.37711   0.28057   0.73392   0.00000  Uiso   1.00
H1032  H     0.34658   0.29357   0.72441   0.00000  Uiso   1.00
H1033  H     0.39184   0.26189   0.70491   0.00000  Uiso   1.00
H1034  H     0.39614   0.31069   0.74245   0.00000  Uiso   1.00
C1035  C     0.75410   0.16704   0.74876   0.00000  Uiso   1.00
C1036  C     0.91243   0.16629   0.75229   0.00000  Uiso   1.00
C1037  C     0.83377   0.16625   0.66499   0.00000  Uiso   1.00
C1038  C     0.83344   0.16698   0.83478   0.00000  Uiso   1.00
C1039  C     0.85611   0.02375   0.71890   0.00000  Uiso   1.00
C1040  C     0.81152   0.30987   0.78186   0.00000  Uiso   1.00
C1041  C     0.80893   0.02607   0.77969   0.00000  Uiso   1.00
C1042  C     0.85646   0.30728   0.71930   0.00000  Uiso   1.00
C1043  C     0.68835   0.12737   0.73519   0.00000  Uiso   1.00
C1044  C     0.97753   0.20614   0.76808   0.00000  Uiso   1.00
C1045  C     0.97967   0.12513   0.74228   0.00000  Uiso   1.00
C1046  C     0.68682   0.20798   0.76269   0.00000  Uiso   1.00
C1047  C     0.86102   0.19465   0.54684   0.00000  Uiso   1.00
C1048  C     0.79794   0.17361   0.95374   0.00000  Uiso   1.00
C1049  C     0.87103   0.15799   0.95033   0.00000  Uiso   1.00
C1050  C     0.80970   0.13495   0.54704   0.00000  Uiso   1.00
C1051  C     0.86061   0.19492   0.59310   0.00000  Uiso   1.00
C1052  C     0.79760   0.17463   0.90753   0.00000  Uiso   1.00
C1053  C     0.87050   0.15816   0.90412   0.00000  Uiso   1.00
C1054  C     0.80987   0.13467   0.59325   0.00000  Uiso   1.00
C1055  C     0.83467   0.16533   0.61651   0.00000  Uiso   1.00
C1056  C     0.83395   0.16730   0.88283   0.00000  Uiso   1.00
C1057  C     0.83515   0.16509   0.52373   0.00000  Uiso   1.00
C1058  C     0.83472   0.16564   0.97525   0.00000  Uiso   1.00
C1059  C     0.95711   0.16545   0.75532   0.00000  Uiso   1.00
C1060  C     0.70925   0.16784   0.74794   0.00000  Uiso   1.00
Cu1061 Cu    0.83333   0.21355   0.75000   0.00000  Uiso   1.00
Cu1062 Cu    0.83333   0.11978   0.75000   0.00000  Uiso   1.00
H1063  H     0.88110   0.21780   0.52907   0.00000  Uiso   1.00
H1064  H     0.76972   0.17951   0.97274   0.00000  Uiso   1.00
H1065  H     0.89949   0.15117   0.96666   0.00000  Uiso   1.00
H1066  H     0.79007   0.11141   0.52943   0.00000  Uiso   1.00
H1067  H     0.88115   0.21742   0.61049   0.00000  Uiso   1.00
H1068  H     0.76914   0.18102   0.89103   0.00000  Uiso   1.00
H1069  H     0.89846   0.15103   0.88504   0.00000  Uiso   1.00
H1070  H     0.79061   0.11064   0.61068   0.00000  Uiso   1.00
N1071  N     0.83333   0.28402   0.75000   0.00000  Uiso   1.00
N1072  N     0.83333   0.04931   0.75000   0.00000  Uiso   1.00
O1073  O     0.77321   0.20625   0.75000   0.00000  Uiso   1.00
O1074  O     0.89345   0.12709   0.75001   0.00000  Uiso   1.00
O1075  O     0.89345   0.20625   0.75001   0.00000  Uiso   1.00
O1076  O     0.77321   0.12709   0.75000   0.00000  Uiso   1.00
O1077  O     0.83333   0.20626   0.68573   0.00000  Uiso   1.00
O1078  O     0.83334   0.12707   0.81427   0.00000  Uiso   1.00
O1079  O     0.83334   0.20626   0.81427   0.00000  Uiso   1.00
O1080  O     0.83333   0.12707   0.68573   0.00000  Uiso   1.00
N1081  N     0.87850   0.04741   0.68541   0.00000  Uiso   1.00
H1082  H     0.90945   0.04192   0.68598   0.00000  Uiso   1.00
C1083  C     0.86312   0.04412   0.64075   0.00000  Uiso   1.00
H1084  H     0.87639   0.01354   0.62244   0.00000  Uiso   1.00
H1085  H     0.87283   0.07498   0.62207   0.00000  Uiso   1.00
H1086  H     0.82925   0.04254   0.64128   0.00000  Uiso   1.00
N1087  N     0.79252   0.28724   0.81830   0.00000  Uiso   1.00
H1088  H     0.76246   0.29687   0.82424   0.00000  Uiso   1.00
C1089  C     0.81580   0.28820   0.85877   0.00000  Uiso   1.00
H1090  H     0.81551   0.32272   0.87488   0.00000  Uiso   1.00
H1091  H     0.84826   0.27826   0.85192   0.00000  Uiso   1.00
H1092  H     0.80220   0.26412   0.88298   0.00000  Uiso   1.00
N1093  N     0.77555   0.05034   0.80159   0.00000  Uiso   1.00
H1094  H     0.74743   0.03727   0.79415   0.00000  Uiso   1.00
C1095  C     0.77805   0.06282   0.84824   0.00000  Uiso   1.00
H1096  H     0.76007   0.03848   0.86881   0.00000  Uiso   1.00
H1097  H     0.76428   0.09789   0.85386   0.00000  Uiso   1.00
H1098  H     0.81008   0.06330   0.85923   0.00000  Uiso   1.00
N1099  N     0.87906   0.28107   0.68632   0.00000  Uiso   1.00
H1100  H     0.86619   0.28022   0.65553   0.00000  Uiso   1.00
C1101  C     0.92316   0.28318   0.68601   0.00000  Uiso   1.00
H1102  H     0.93443   0.30170   0.65620   0.00000  Uiso   1.00
H1103  H     0.93621   0.24745   0.68442   0.00000  Uiso   1.00
H1104  H     0.93413   0.30110   0.71620   0.00000  Uiso   1.00
N1105  N     0.70818   0.08931   0.71216   0.00000  Uiso   1.00
H1106  H     0.72822   0.06937   0.72952   0.00000  Uiso   1.00
C1107  C     0.71951   0.09750   0.66630   0.00000  Uiso   1.00
H1108  H     0.69192   0.10625   0.64731   0.00000  Uiso   1.00
H1109  H     0.73408   0.06571   0.65118   0.00000  Uiso   1.00
H1110  H     0.74117   0.12656   0.66420   0.00000  Uiso   1.00
N1111  N     0.95513   0.24472   0.78751   0.00000  Uiso   1.00
H1112  H     0.96612   0.27706   0.78059   0.00000  Uiso   1.00
C1113  C     0.94426   0.23986   0.83406   0.00000  Uiso   1.00
H1114  H     0.97220   0.23760   0.85407   0.00000  Uiso   1.00
H1115  H     0.92587   0.20838   0.83894   0.00000  Uiso   1.00
H1116  H     0.92570   0.27043   0.84586   0.00000  Uiso   1.00
N1117  N     0.96037   0.08149   0.73733   0.00000  Uiso   1.00
H1118  H     0.97165   0.06094   0.71123   0.00000  Uiso   1.00
C1119  C     0.95693   0.05610   0.77827   0.00000  Uiso   1.00
H1120  H     0.98757   0.04378   0.78836   0.00000  Uiso   1.00
H1121  H     0.93715   0.02573   0.77330   0.00000  Uiso   1.00
H1122  H     0.94281   0.07826   0.80535   0.00000  Uiso   1.00
N1123  N     0.70708   0.25035   0.77174   0.00000  Uiso   1.00
H1124  H     0.69766   0.26740   0.80075   0.00000  Uiso   1.00
C1125  C     0.71044   0.28057   0.73392   0.00000  Uiso   1.00
H1126  H     0.67991   0.29357   0.72441   0.00000  Uiso   1.00
H1127  H     0.72517   0.26189   0.70491   0.00000  Uiso   1.00
H1128  H     0.72947   0.31069   0.74245   0.00000  Uiso   1.00
C1129  C     0.08744   0.50038   0.74876   0.00000  Uiso   1.00
C1130  C     0.24577   0.49962   0.75229   0.00000  Uiso   1.00
C1131  C     0.16710   0.49958   0.66499   0.00000  Uiso   1.00
C1132  C     0.16677   0.50031   0.83478   0.00000  Uiso   1.00
C1133  C     0.18944   0.35708   0.71890   0.00000  Uiso   1.00
C1134  C     0.14485   0.64321   0.78186   0.00000  Uiso   1.00
C1135  C     0.14226   0.35941   0.77969   0.00000  Uiso   1.00
C1136  C     0.18979   0.64061   0.71930   0.00000  Uiso   1.00
C1137  C     0.02168   0.46070   0.73519   0.00000  Uiso   1.00
C1138  C     0.31086   0.53947   0.76808   0.00000  Uiso   1.00
C1139  C     0.31301   0.45846   0.74228   0.00000  Uiso   1.00
C1140  C     0.02015   0.54131   0.76269   0.00000  Uiso   1.00
C1141  C     0.19436   0.52798   0.54684   0.00000  Uiso   1.00
C1142  C     0.13127   0.50694   0.95374   0.00000  Uiso   1.00
C1143  C     0.20436   0.49133   0.95033   0.00000  Uiso   1.00
C1144  C     0.14303   0.46828   0.54704   0.00000  Uiso   1.00
C1145  C     0.19394   0.52825   0.59310   0.00000  Uiso   1.00
C1146  C     0.13094   0.50796   0.90753   0.00000  Uiso   1.00
C1147  C     0.20384   0.49150   0.90412   0.00000  Uiso   1.00
C1148  C     0.14320   0.46800   0.59325   0.00000  Uiso   1.00
C1149  C     0.16800   0.49866   0.61651   0.00000  Uiso   1.00
C1150  C     0.16728   0.50063   0.88283   0.00000  Uiso   1.00
C1151  C     0.16849   0.49842   0.52373   0.00000  Uiso   1.00
C1152  C     0.16806   0.49897   0.97525   0.00000  Uiso   1.00
C1153  C     0.29045   0.49878   0.75532   0.00000  Uiso   1.00
C1154  C     0.04258   0.50117   0.74794   0.00000  Uiso   1.00
Cu1155 Cu    0.16667   0.54689   0.75000   0.00000  Uiso   1.00
Cu1156 Cu    0.16667   0.45311   0.75000   0.00000  Uiso   1.00
H1157  H     0.21443   0.55113   0.52907   0.00000  Uiso   1.00
H1158  H     0.10305   0.51284   0.97274   0.00000  Uiso   1.00
H1159  H     0.23282   0.48450   0.96666   0.00000  Uiso   1.00
H1160  H     0.12341   0.44474   0.52943   0.00000  Uiso   1.00
H1161  H     0.21448   0.55075   0.61049   0.00000  Uiso   1.00
H1162  H     0.10248   0.51436   0.89103   0.00000  Uiso   1.00
H1163  H     0.23179   0.48436   0.88504   0.00000  Uiso   1.00
H1164  H     0.12395   0.44397   0.61068   0.00000  Uiso   1.00
N1165  N     0.16667   0.61736   0.75000   0.00000  Uiso   1.00
N1166  N     0.16667   0.38264   0.75000   0.00000  Uiso   1.00
O1167  O     0.10655   0.53958   0.75000   0.00000  Uiso   1.00
O1168  O     0.22679   0.46042   0.75001   0.00000  Uiso   1.00
O1169  O     0.22679   0.53958   0.75001   0.00000  Uiso   1.00
O1170  O     0.10655   0.46042   0.75000   0.00000  Uiso   1.00
O1171  O     0.16666   0.53959   0.68573   0.00000  Uiso   1.00
O1172  O     0.16667   0.46041   0.81427   0.00000  Uiso   1.00
O1173  O     0.16667   0.53959   0.81427   0.00000  Uiso   1.00
O1174  O     0.16666   0.46041   0.68573   0.00000  Uiso   1.00
N1175  N     0.21183   0.38074   0.68541   0.00000  Uiso   1.00
H1176  H     0.24278   0.37526   0.68598   0.00000  Uiso   1.00
C1177  C     0.19646   0.37746   0.64075   0.00000  Uiso   1.00
H1178  H     0.20973   0.34687   0.62244   0.00000  Uiso   1.00
H1179  H     0.20617   0.40832   0.62207   0.00000  Uiso   1.00
H1180  H     0.16258   0.37587   0.64128   0.00000  Uiso   1.00
N1181  N     0.12585   0.62057   0.81830   0.00000  Uiso   1.00
H1182  H     0.09580   0.63020   0.82424   0.00000  Uiso   1.00
C1183  C     0.14914   0.62154   0.85877   0.00000  Uiso   1.00
H1184  H     0.14885   0.65606   0.87488   0.00000  Uiso   1.00
H1185  H     0.18160   0.61159   0.85192   0.00000  Uiso   1.00
H1186  H     0.13553   0.59745   0.88298   0.00000  Uiso   1.00
N1187  N     0.10888   0.38367   0.80159   0.00000  Uiso   1.00
H1188  H     0.08077   0.37060   0.79415   0.00000  Uiso   1.00
C1189  C     0.11139   0.39615   0.84824   0.00000  Uiso   1.00
H1190  H     0.09341   0.37182   0.86881   0.00000  Uiso   1.00
H1191  H     0.09761   0.43122   0.85386   0.00000  Uiso   1.00
H1192  H     0.14341   0.39663   0.85923   0.00000  Uiso   1.00
N1193  N     0.21239   0.61441   0.68632   0.00000  Uiso   1.00
H1194  H     0.19952   0.61356   0.65553   0.00000  Uiso   1.00
C1195  C     0.25650   0.61652   0.68601   0.00000  Uiso   1.00
H1196  H     0.26777   0.63503   0.65620   0.00000  Uiso   1.00
H1197  H     0.26954   0.58078   0.68442   0.00000  Uiso   1.00
H1198  H     0.26747   0.63444   0.71620   0.00000  Uiso   1.00
N1199  N     0.04152   0.42264   0.71216   0.00000  Uiso   1.00
H1200  H     0.06155   0.40271   0.72952   0.00000  Uiso   1.00
C1201  C     0.05284   0.43083   0.66630   0.00000  Uiso   1.00
H1202  H     0.02526   0.43959   0.64731   0.00000  Uiso   1.00
H1203  H     0.06742   0.39905   0.65118   0.00000  Uiso   1.00
H1204  H     0.07450   0.45989   0.66420   0.00000  Uiso   1.00
N1205  N     0.28847   0.57805   0.78751   0.00000  Uiso   1.00
H1206  H     0.29945   0.61039   0.78059   0.00000  Uiso   1.00
C1207  C     0.27760   0.57319   0.83406   0.00000  Uiso   1.00
H1208  H     0.30553   0.57094   0.85407   0.00000  Uiso   1.00
H1209  H     0.25920   0.54171   0.83894   0.00000  Uiso   1.00
H1210  H     0.25903   0.60377   0.84586   0.00000  Uiso   1.00
N1211  N     0.29370   0.41482   0.73733   0.00000  Uiso   1.00
H1212  H     0.30498   0.39427   0.71123   0.00000  Uiso   1.00
C1213  C     0.29027   0.38943   0.77827   0.00000  Uiso   1.00
H1214  H     0.32090   0.37712   0.78836   0.00000  Uiso   1.00
H1215  H     0.27048   0.35906   0.77330   0.00000  Uiso   1.00
H1216  H     0.27614   0.41160   0.80535   0.00000  Uiso   1.00
N1217  N     0.04042   0.58368   0.77174   0.00000  Uiso   1.00
H1218  H     0.03099   0.60073   0.80075   0.00000  Uiso   1.00
C1219  C     0.04377   0.61391   0.73392   0.00000  Uiso   1.00
H1220  H     0.01324   0.62690   0.72441   0.00000  Uiso   1.00
H1221  H     0.05850   0.59522   0.70491   0.00000  Uiso   1.00
H1222  H     0.06281   0.64402   0.74245   0.00000  Uiso   1.00
C1223  C     0.42077   0.50038   0.74876   0.00000  Uiso   1.00
C1224  C     0.57910   0.49962   0.75229   0.00000  Uiso   1.00
C1225  C     0.50044   0.49958   0.66499   0.00000  Uiso   1.00
C1226  C     0.50010   0.50031   0.83478   0.00000  Uiso   1.00
C1227  C     0.52278   0.35708   0.71890   0.00000  Uiso   1.00
C1228  C     0.47819   0.64321   0.78186   0.00000  Uiso   1.00
C1229  C     0.47560   0.35941   0.77969   0.00000  Uiso   1.00
C1230  C     0.52313   0.64061   0.71930   0.00000  Uiso   1.00
C1231  C     0.35501   0.46070   0.73519   0.00000  Uiso   1.00
C1232  C     0.64420   0.53947   0.76808   0.00000  Uiso   1.00
C1233  C     0.64634   0.45846   0.74228   0.00000  Uiso   1.00
C1234  C     0.35349   0.54131   0.76269   0.00000  Uiso   1.00
C1235  C     0.52769   0.52798   0.54684   0.00000  Uiso   1.00
C1236  C     0.46460   0.50694   0.95374   0.00000  Uiso   1.00
C1237  C     0.53769   0.49133   0.95033   0.00000  Uiso   1.00
C1238  C     0.47636   0.46828   0.54704   0.00000  Uiso   1.00
C1239  C     0.52728   0.52825   0.59310   0.00000  Uiso   1.00
C1240  C     0.46427   0.50796   0.90753   0.00000  Uiso   1.00
C1241  C     0.53717   0.49150   0.90412   0.00000  Uiso   1.00
C1242  C     0.47654   0.46800   0.59325   0.00000  Uiso   1.00
C1243  C     0.50133   0.49866   0.61651   0.00000  Uiso   1.00
C1244  C     0.50061   0.50063   0.88283   0.00000  Uiso   1.00
C1245  C     0.50182   0.49842   0.52373   0.00000  Uiso   1.00
C1246  C     0.50139   0.49897   0.97525   0.00000  Uiso   1.00
C1247  C     0.62378   0.49878   0.75532   0.00000  Uiso   1.00
C1248  C     0.37591   0.50117   0.74794   0.00000  Uiso   1.00
Cu1249 Cu    0.50000   0.54689   0.75000   0.00000  Uiso   1.00
Cu1250 Cu    0.50000   0.45311   0.75000   0.00000  Uiso   1.00
H1251  H     0.54777   0.55113   0.52907   0.00000  Uiso   1.00
H1252  H     0.43638   0.51284   0.97274   0.00000  Uiso   1.00
H1253  H     0.56616   0.48450   0.96666   0.00000  Uiso   1.00
H1254  H     0.45674   0.44474   0.52943   0.00000  Uiso   1.00
H1255  H     0.54781   0.55075   0.61049   0.00000  Uiso   1.00
H1256  H     0.43581   0.51436   0.89103   0.00000  Uiso   1.00
H1257  H     0.56512   0.48436   0.88504   0.00000  Uiso   1.00
H1258  H     0.45728   0.44397   0.61068   0.00000  Uiso   1.00
N1259  N     0.50000   0.61736   0.75000   0.00000  Uiso   1.00
N1260  N     0.50000   0.38264   0.75000   0.00000  Uiso   1.00
O1261  O     0.43988   0.53958   0.75000   0.00000  Uiso   1.00
O1262  O     0.56012   0.46042   0.75001   0.00000  Uiso   1.00
O1263  O     0.56012   0.53958   0.75001   0.00000  Uiso   1.00
O1264  O     0.43988   0.46042   0.75000   0.00000  Uiso   1.00
O1265  O     0.50000   0.53959   0.68573   0.00000  Uiso   1.00
O1266  O     0.50000   0.46041   0.81427   0.00000  Uiso   1.00
O1267  O     0.50000   0.53959   0.81427   0.00000  Uiso   1.00
O1268  O     0.50000   0.46041   0.68573   0.00000  Uiso   1.00
N1269  N     0.54516   0.38074   0.68541   0.00000  Uiso   1.00
H1270  H     0.57612   0.37526   0.68598   0.00000  Uiso   1.00
C1271  C     0.52979   0.37746   0.64075   0.00000  Uiso   1.00
H1272  H     0.54306   0.34687   0.62244   0.00000  Uiso   1.00
H1273  H     0.53950   0.40832   0.62207   0.00000  Uiso   1.00
H1274  H     0.49592   0.37587   0.64128   0.00000  Uiso   1.00
N1275  N     0.45918   0.62057   0.81830   0.00000  Uiso   1.00
H1276  H     0.42913   0.63020   0.82424   0.00000  Uiso   1.00
C1277  C     0.48247   0.62154   0.85877   0.00000  Uiso   1.00
H1278  H     0.48218   0.65606   0.87488   0.00000  Uiso   1.00
H1279  H     0.51493   0.61159   0.85192   0.00000  Uiso   1.00
H1280  H     0.46887   0.59745   0.88298   0.00000  Uiso   1.00
N1281  N     0.44222   0.38367   0.80159   0.00000  Uiso   1.00
H1282  H     0.41410   0.37060   0.79415   0.00000  Uiso   1.00
C1283  C     0.44472   0.39615   0.84824   0.00000  Uiso   1.00
H1284  H     0.42674   0.37182   0.86881   0.00000  Uiso   1.00
H1285  H     0.43094   0.43122   0.85386   0.00000  Uiso   1.00
H1286  H     0.47675   0.39663   0.85923   0.00000  Uiso   1.00
N1287  N     0.54573   0.61441   0.68632   0.00000  Uiso   1.00
H1288  H     0.53285   0.61356   0.65553   0.00000  Uiso   1.00
C1289  C     0.58983   0.61652   0.68601   0.00000  Uiso   1.00
H1290  H     0.60110   0.63503   0.65620   0.00000  Uiso   1.00
H1291  H     0.60287   0.58078   0.68442   0.00000  Uiso   1.00
H1292  H     0.60080   0.63444   0.71620   0.00000  Uiso   1.00
N1293  N     0.37485   0.42264   0.71216   0.00000  Uiso   1.00
H1294  H     0.39489   0.40271   0.72952   0.00000  Uiso   1.00
C1295  C     0.38617   0.43083   0.66630   0.00000  Uiso   1.00
H1296  H     0.35859   0.43959   0.64731   0.00000  Uiso   1.00
H1297  H     0.40075   0.39905   0.65118   0.00000  Uiso   1.00
H1298  H     0.40784   0.45989   0.66420   0.00000  Uiso   1.00
N1299  N     0.62180   0.57805   0.78751   0.00000  Uiso   1.00
H1300  H     0.63278   0.61039   0.78059   0.00000  Uiso   1.00
C1301  C     0.61093   0.57319   0.83406   0.00000  Uiso   1.00
H1302  H     0.63886   0.57094   0.85407   0.00000  Uiso   1.00
H1303  H     0.59253   0.54171   0.83894   0.00000  Uiso   1.00
H1304  H     0.59236   0.60377   0.84586   0.00000  Uiso   1.00
N1305  N     0.62704   0.41482   0.73733   0.00000  Uiso   1.00
H1306  H     0.63832   0.39427   0.71123   0.00000  Uiso   1.00
C1307  C     0.62360   0.38943   0.77827   0.00000  Uiso   1.00
H1308  H     0.65423   0.37712   0.78836   0.00000  Uiso   1.00
H1309  H     0.60381   0.35906   0.77330   0.00000  Uiso   1.00
H1310  H     0.60947   0.41160   0.80535   0.00000  Uiso   1.00
N1311  N     0.37375   0.58368   0.77174   0.00000  Uiso   1.00
H1312  H     0.36432   0.60073   0.80075   0.00000  Uiso   1.00
C1313  C     0.37711   0.61391   0.73392   0.00000  Uiso   1.00
H1314  H     0.34658   0.62690   0.72441   0.00000  Uiso   1.00
H1315  H     0.39184   0.59522   0.70491   0.00000  Uiso   1.00
H1316  H     0.39614   0.64402   0.74245   0.00000  Uiso   1.00
C1317  C     0.75410   0.50038   0.74876   0.00000  Uiso   1.00
C1318  C     0.91243   0.49962   0.75229   0.00000  Uiso   1.00
C1319  C     0.83377   0.49958   0.66499   0.00000  Uiso   1.00
C1320  C     0.83344   0.50031   0.83478   0.00000  Uiso   1.00
C1321  C     0.85611   0.35708   0.71890   0.00000  Uiso   1.00
C1322  C     0.81152   0.64321   0.78186   0.00000  Uiso   1.00
C1323  C     0.80893   0.35941   0.77969   0.00000  Uiso   1.00
C1324  C     0.85646   0.64061   0.71930   0.00000  Uiso   1.00
C1325  C     0.68835   0.46070   0.73519   0.00000  Uiso   1.00
C1326  C     0.97753   0.53947   0.76808   0.00000  Uiso   1.00
C1327  C     0.97967   0.45846   0.74228   0.00000  Uiso   1.00
C1328  C     0.68682   0.54131   0.76269   0.00000  Uiso   1.00
C1329  C     0.86102   0.52798   0.54684   0.00000  Uiso   1.00
C1330  C     0.79794   0.50694   0.95374   0.00000  Uiso   1.00
C1331  C     0.87103   0.49133   0.95033   0.00000  Uiso   1.00
C1332  C     0.80970   0.46828   0.54704   0.00000  Uiso   1.00
C1333  C     0.86061   0.52825   0.59310   0.00000  Uiso   1.00
C1334  C     0.79760   0.50796   0.90753   0.00000  Uiso   1.00
C1335  C     0.87050   0.49150   0.90412   0.00000  Uiso   1.00
C1336  C     0.80987   0.46800   0.59325   0.00000  Uiso   1.00
C1337  C     0.83467   0.49866   0.61651   0.00000  Uiso   1.00
C1338  C     0.83395   0.50063   0.88283   0.00000  Uiso   1.00
C1339  C     0.83515   0.49842   0.52373   0.00000  Uiso   1.00
C1340  C     0.83472   0.49897   0.97525   0.00000  Uiso   1.00
C1341  C     0.95711   0.49878   0.75532   0.00000  Uiso   1.00
C1342  C     0.70925   0.50117   0.74794   0.00000  Uiso   1.00
Cu1343 Cu    0.83333   0.54689   0.75000   0.00000  Uiso   1.00
Cu1344 Cu    0.83333   0.45311   0.75000   0.00000  Uiso   1.00
H1345  H     0.88110   0.55113   0.52907   0.00000  Uiso   1.00
H1346  H     0.76972   0.51284   0.97274   0.00000  Uiso   1.00
H1347  H     0.89949   0.48450   0.96666   0.00000  Uiso   1.00
H1348  H     0.79007   0.44474   0.52943   0.00000  Uiso   1.00
H1349  H     0.88115   0.55075   0.61049   0.00000  Uiso   1.00
H1350  H     0.76914   0.51436   0.89103   0.00000  Uiso   1.00
H1351  H     0.89846   0.48436   0.88504   0.00000  Uiso   1.00
H1352  H     0.79061   0.44397   0.61068   0.00000  Uiso   1.00
N1353  N     0.83333   0.61736   0.75000   0.00000  Uiso   1.00
N1354  N     0.83333   0.38264   0.75000   0.00000  Uiso   1.00
O1355  O     0.77321   0.53958   0.75000   0.00000  Uiso   1.00
O1356  O     0.89345   0.46042   0.75001   0.00000  Uiso   1.00
O1357  O     0.89345   0.53958   0.75001   0.00000  Uiso   1.00
O1358  O     0.77321   0.46042   0.75000   0.00000  Uiso   1.00
O1359  O     0.83333   0.53959   0.68573   0.00000  Uiso   1.00
O1360  O     0.83334   0.46041   0.81427   0.00000  Uiso   1.00
O1361  O     0.83334   0.53959   0.81427   0.00000  Uiso   1.00
O1362  O     0.83333   0.46041   0.68573   0.00000  Uiso   1.00
N1363  N     0.87850   0.38074   0.68541   0.00000  Uiso   1.00
H1364  H     0.90945   0.37526   0.68598   0.00000  Uiso   1.00
C1365  C     0.86312   0.37746   0.64075   0.00000  Uiso   1.00
H1366  H     0.87639   0.34687   0.62244   0.00000  Uiso   1.00
H1367  H     0.87283   0.40832   0.62207   0.00000  Uiso   1.00
H1368  H     0.82925   0.37587   0.64128   0.00000  Uiso   1.00
N1369  N     0.79252   0.62057   0.81830   0.00000  Uiso   1.00
H1370  H     0.76246   0.63020   0.82424   0.00000  Uiso   1.00
C1371  C     0.81580   0.62154   0.85877   0.00000  Uiso   1.00
H1372  H     0.81551   0.65606   0.87488   0.00000  Uiso   1.00
H1373  H     0.84826   0.61159   0.85192   0.00000  Uiso   1.00
H1374  H     0.80220   0.59745   0.88298   0.00000  Uiso   1.00
N1375  N     0.77555   0.38367   0.80159   0.00000  Uiso   1.00
H1376  H     0.74743   0.37060   0.79415   0.00000  Uiso   1.00
C1377  C     0.77805   0.39615   0.84824   0.00000  Uiso   1.00
H1378  H     0.76007   0.37182   0.86881   0.00000  Uiso   1.00
H1379  H     0.76428   0.43122   0.85386   0.00000  Uiso   1.00
H1380  H     0.81008   0.39663   0.85923   0.00000  Uiso   1.00
N1381  N     0.87906   0.61441   0.68632   0.00000  Uiso   1.00
H1382  H     0.86619   0.61356   0.65553   0.00000  Uiso   1.00
C1383  C     0.92316   0.61652   0.68601   0.00000  Uiso   1.00
H1384  H     0.93443   0.63503   0.65620   0.00000  Uiso   1.00
H1385  H     0.93621   0.58078   0.68442   0.00000  Uiso   1.00
H1386  H     0.93413   0.63444   0.71620   0.00000  Uiso   1.00
N1387  N     0.70818   0.42264   0.71216   0.00000  Uiso   1.00
H1388  H     0.72822   0.40271   0.72952   0.00000  Uiso   1.00
C1389  C     0.71951   0.43083   0.66630   0.00000  Uiso   1.00
H1390  H     0.69192   0.43959   0.64731   0.00000  Uiso   1.00
H1391  H     0.73408   0.39905   0.65118   0.00000  Uiso   1.00
H1392  H     0.74117   0.45989   0.66420   0.00000  Uiso   1.00
N1393  N     0.95513   0.57805   0.78751   0.00000  Uiso   1.00
H1394  H     0.96612   0.61039   0.78059   0.00000  Uiso   1.00
C1395  C     0.94426   0.57319   0.83406   0.00000  Uiso   1.00
H1396  H     0.97220   0.57094   0.85407   0.00000  Uiso   1.00
H1397  H     0.92587   0.54171   0.83894   0.00000  Uiso   1.00
H1398  H     0.92570   0.60377   0.84586   0.00000  Uiso   1.00
N1399  N     0.96037   0.41482   0.73733   0.00000  Uiso   1.00
H1400  H     0.97165   0.39427   0.71123   0.00000  Uiso   1.00
C1401  C     0.95693   0.38943   0.77827   0.00000  Uiso   1.00
H1402  H     0.98757   0.37712   0.78836   0.00000  Uiso   1.00
H1403  H     0.93715   0.35906   0.77330   0.00000  Uiso   1.00
H1404  H     0.94281   0.41160   0.80535   0.00000  Uiso   1.00
N1405  N     0.70708   0.58368   0.77174   0.00000  Uiso   1.00
H1406  H     0.69766   0.60073   0.80075   0.00000  Uiso   1.00
C1407  C     0.71044   0.61391   0.73392   0.00000  Uiso   1.00
H1408  H     0.67991   0.62690   0.72441   0.00000  Uiso   1.00
H1409  H     0.72517   0.59522   0.70491   0.00000  Uiso   1.00
H1410  H     0.72947   0.64402   0.74245   0.00000  Uiso   1.00
C1411  C     0.08744   0.83371   0.74876   0.00000  Uiso   1.00
C1412  C     0.24577   0.83295   0.75229   0.00000  Uiso   1.00
C1413  C     0.16710   0.83291   0.66499   0.00000  Uiso   1.00
C1414  C     0.16677   0.83364   0.83478   0.00000  Uiso   1.00
C1415  C     0.18944   0.69041   0.71890   0.00000  Uiso   1.00
C1416  C     0.14485   0.97654   0.78186   0.00000  Uiso   1.00
C1417  C     0.14226   0.69274   0.77969   0.00000  Uiso   1.00
C1418  C     0.18979   0.97394   0.71930   0.00000  Uiso   1.00
C1419  C     0.02168   0.79404   0.73519   0.00000  Uiso   1.00
C1420  C     0.31086   0.87281   0.76808   0.00000  Uiso   1.00
C1421  C     0.31301   0.79179   0.74228   0.00000  Uiso   1.00
C1422  C     0.02015   0.87465   0.76269   0.00000  Uiso   1.00
C1423  C     0.19436   0.86132   0.54684   0.00000  Uiso   1.00
C1424  C     0.13127   0.84027   0.95374   0.00000  Uiso   1.00
C1425  C     0.20436   0.82466   0.95033   0.00000  Uiso   1.00
C1426  C     0.14303   0.80162   0.54704   0.00000  Uiso   1.00
C1427  C     0.19394   0.86159   0.59310   0.00000  Uiso   1.00
C1428  C     0.13094   0.84129   0.90753   0.00000  Uiso   1.00
C1429  C     0.20384   0.82483   0.90412   0.00000  Uiso   1.00
C1430  C     0.14320   0.80133   0.59325   0.00000  Uiso   1.00
C1431  C     0.16800   0.83199   0.61651   0.00000  Uiso   1.00
C1432  C     0.16728   0.83396   0.88283   0.00000  Uiso   1.00
C1433  C     0.16849   0.83175   0.52373   0.00000  Uiso   1.00
C1434  C     0.16806   0.83230   0.97525   0.00000  Uiso   1.00
C1435  C     0.29045   0.83211   0.75532   0.00000  Uiso   1.00
C1436  C     0.04258   0.83451   0.74794   0.00000  Uiso   1.00
Cu1437 Cu    0.16667   0.88022   0.75000   0.00000  Uiso   1.00
Cu1438 Cu    0.16667   0.78645   0.75000   0.00000  Uiso   1.00
H1439  H     0.21443   0.88447   0.52907   0.00000  Uiso   1.00
H1440  H     0.10305   0.84618   0.97274   0.00000  Uiso   1.00
H1441  H     0.23282   0.81784   0.96666   0.00000  Uiso   1.00
H1442  H     0.12341   0.77808   0.52943   0.00000  Uiso   1.00
H1443  H     0.21448   0.88409   0.61049   0.00000  Uiso   1.00
H1444  H     0.10248   0.84769   0.89103   0.00000  Uiso   1.00
H1445  H     0.23179   0.81770   0.88504   0.00000  Uiso   1.00
H1446  H     0.12395   0.77731   0.61068   0.00000  Uiso   1.00
N1447  N     0.16667   0.95069   0.75000   0.00000  Uiso   1.00
N1448  N     0.16667   0.71598   0.75000   0.00000  Uiso   1.00
O1449  O     0.10655   0.87291   0.75000   0.00000  Uiso   1.00
O1450  O     0.22679   0.79375   0.75001   0.00000  Uiso   1.00
O1451  O     0.22679   0.87291   0.75001   0.00000  Uiso   1.00
O1452  O     0.10655   0.79375   0.75000   0.00000  Uiso   1.00
O1453  O     0.16666   0.87293   0.68573   0.00000  Uiso   1.00
O1454  O     0.16667   0.79374   0.81427   0.00000  Uiso   1.00
O1455  O     0.16667   0.87293   0.81427   0.00000  Uiso   1.00
O1456  O     0.16666   0.79374   0.68573   0.00000  Uiso   1.00
N1457  N     0.21183   0.71408   0.68541   0.00000  Uiso   1.00
H1458  H     0.24278   0.70859   0.68598   0.00000  Uiso   1.00
C1459  C     0.19646   0.71079   0.64075   0.00000  Uiso   1.00
H1460  H     0.20973   0.68021   0.62244   0.00000  Uiso   1.00
H1461  H     0.20617   0.74165   0.62207   0.00000  Uiso   1.00
H1462  H     0.16258   0.70921   0.64128   0.00000  Uiso   1.00
N1463  N     0.12585   0.95391   0.81830   0.00000  Uiso   1.00
H1464  H     0.09580   0.96354   0.82424   0.00000  Uiso   1.00
C1465  C     0.14914   0.95487   0.85877   0.00000  Uiso   1.00
H1466  H     0.14885   0.98939   0.87488   0.00000  Uiso   1.00
H1467  H     0.18160   0.94492   0.85192   0.00000  Uiso   1.00
H1468  H     0.13553   0.93078   0.88298   0.00000  Uiso   1.00
N1469  N     0.10888   0.71701   0.80159   0.00000  Uiso   1.00
H1470  H     0.08077   0.70394   0.79415   0.00000  Uiso   1.00
C1471  C     0.11139   0.72948   0.84824   0.00000  Uiso   1.00
H1472  H     0.09341   0.70515   0.86881   0.00000  Uiso   1.00
H1473  H     0.09761   0.76455   0.85386   0.00000  Uiso   1.00
H1474  H     0.14341   0.72996   0.85923   0.00000  Uiso   1.00
N1475  N     0.21239   0.94774   0.68632   0.00000  Uiso   1.00
H1476  H     0.19952   0.94689   0.65553   0.00000  Uiso   1.00
C1477  C     0.25650   0.94985   0.68601   0.00000  Uiso   1.00
H1478  H     0.26777   0.96837   0.65620   0.00000  Uiso   1.00
H1479  H     0.26954   0.91411   0.68442   0.00000  Uiso   1.00
H1480  H     0.26747   0.96777   0.71620   0.00000  Uiso   1.00
N1481  N     0.04152   0.75597   0.71216   0.00000  Uiso   1.00
H1482  H     0.06155   0.73604   0.72952   0.00000  Uiso   1.00
C1483  C     0.05284   0.76417   0.66630   0.00000  Uiso   1.00
H1484  H     0.02526   0.77292   0.64731   0.00000  Uiso   1.00
H1485  H     0.06742   0.73238   0.65118   0.00000  Uiso   1.00
H1486  H     0.07450   0.79323   0.66420   0.00000  Uiso   1.00
N1487  N     0.28847   0.91138   0.78751   0.00000  Uiso   1.00
H1488  H     0.29945   0.94372   0.78059   0.00000  Uiso   1.00
C1489  C     0.27760   0.90653   0.83406   0.00000  Uiso   1.00
H1490  H     0.30553   0.90427   0.85407   0.00000  Uiso   1.00
H1491  H     0.25920   0.87505   0.83894   0.00000  Uiso   1.00
H1492  H     0.25903   0.93710   0.84586   0.00000  Uiso   1.00
N1493  N     0.29370   0.74816   0.73733   0.00000  Uiso   1.00
H1494  H     0.30498   0.72761   0.71123   0.00000  Uiso   1.00
C1495  C     0.29027   0.72277   0.77827   0.00000  Uiso   1.00
H1496  H     0.32090   0.71045   0.78836   0.00000  Uiso   1.00
H1497  H     0.27048   0.69239   0.77330   0.00000  Uiso   1.00
H1498  H     0.27614   0.74493   0.80535   0.00000  Uiso   1.00
N1499  N     0.04042   0.91701   0.77174   0.00000  Uiso   1.00
H1500  H     0.03099   0.93406   0.80075   0.00000  Uiso   1.00
C1501  C     0.04377   0.94724   0.73392   0.00000  Uiso   1.00
H1502  H     0.01324   0.96024   0.72441   0.00000  Uiso   1.00
H1503  H     0.05850   0.92855   0.70491   0.00000  Uiso   1.00
H1504  H     0.06281   0.97735   0.74245   0.00000  Uiso   1.00
C1505  C     0.42077   0.83371   0.74876   0.00000  Uiso   1.00
C1506  C     0.57910   0.83295   0.75229   0.00000  Uiso   1.00
C1507  C     0.50044   0.83291   0.66499   0.00000  Uiso   1.00
C1508  C     0.50010   0.83364   0.83478   0.00000  Uiso   1.00
C1509  C     0.52278   0.69041   0.71890   0.00000  Uiso   1.00
C1510  C     0.47819   0.97654   0.78186   0.00000  Uiso   1.00
C1511  C     0.47560   0.69274   0.77969   0.00000  Uiso   1.00
C1512  C     0.52313   0.97394   0.71930   0.00000  Uiso   1.00
C1513  C     0.35501   0.79404   0.73519   0.00000  Uiso   1.00
C1514  C     0.64420   0.87281   0.76808   0.00000  Uiso   1.00
C1515  C     0.64634   0.79179   0.74228   0.00000  Uiso   1.00
C1516  C     0.35349   0.87465   0.76269   0.00000  Uiso   1.00
C1517  C     0.52769   0.86132   0.54684   0.00000  Uiso   1.00
C1518  C     0.46460   0.84027   0.95374   0.00000  Uiso   1.00
C1519  C     0.53769   0.82466   0.95033   0.00000  Uiso   1.00
C1520  C     0.47636   0.80162   0.54704   0.00000  Uiso   1.00
C1521  C     0.52728   0.86159   0.59310   0.00000  Uiso   1.00
C1522  C     0.46427   0.84129   0.90753   0.00000  Uiso   1.00
C1523  C     0.53717   0.82483   0.90412   0.00000  Uiso   1.00
C1524  C     0.47654   0.80133   0.59325   0.00000  Uiso   1.00
C1525  C     0.50133   0.83199   0.61651   0.00000  Uiso   1.00
C1526  C     0.50061   0.83396   0.88283   0.00000  Uiso   1.00
C1527  C     0.50182   0.83175   0.52373   0.00000  Uiso   1.00
C1528  C     0.50139   0.83230   0.97525   0.00000  Uiso   1.00
C1529  C     0.62378   0.83211   0.75532   0.00000  Uiso   1.00
C1530  C     0.37591   0.83451   0.74794   0.00000  Uiso   1.00
Cu1531 Cu    0.50000   0.88022   0.75000   0.00000  Uiso   1.00
Cu1532 Cu    0.50000   0.78645   0.75000   0.00000  Uiso   1.00
H1533  H     0.54777   0.88447   0.52907   0.00000  Uiso   1.00
H1534  H     0.43638   0.84618   0.97274   0.00000  Uiso   1.00
H1535  H     0.56616   0.81784   0.96666   0.00000  Uiso   1.00
H1536  H     0.45674   0.77808   0.52943   0.00000  Uiso   1.00
H1537  H     0.54781   0.88409   0.61049   0.00000  Uiso   1.00
H1538  H     0.43581   0.84769   0.89103   0.00000  Uiso   1.00
H1539  H     0.56512   0.81770   0.88504   0.00000  Uiso   1.00
H1540  H     0.45728   0.77731   0.61068   0.00000  Uiso   1.00
N1541  N     0.50000   0.95069   0.75000   0.00000  Uiso   1.00
N1542  N     0.50000   0.71598   0.75000   0.00000  Uiso   1.00
O1543  O     0.43988   0.87291   0.75000   0.00000  Uiso   1.00
O1544  O     0.56012   0.79375   0.75001   0.00000  Uiso   1.00
O1545  O     0.56012   0.87291   0.75001   0.00000  Uiso   1.00
O1546  O     0.43988   0.79375   0.75000   0.00000  Uiso   1.00
O1547  O     0.50000   0.87293   0.68573   0.00000  Uiso   1.00
O1548  O     0.50000   0.79374   0.81427   0.00000  Uiso   1.00
O1549  O     0.50000   0.87293   0.81427   0.00000  Uiso   1.00
O1550  O     0.50000   0.79374   0.68573   0.00000  Uiso   1.00
N1551  N     0.54516   0.71408   0.68541   0.00000  Uiso   1.00
H1552  H     0.57612   0.70859   0.68598   0.00000  Uiso   1.00
C1553  C     0.52979   0.71079   0.64075   0.00000  Uiso   1.00
H1554  H     0.54306   0.68021   0.62244   0.00000  Uiso   1.00
H1555  H     0.53950   0.74165   0.62207   0.00000  Uiso   1.00
H1556  H     0.49592   0.70921   0.64128   0.00000  Uiso   1.00
N1557  N     0.45918   0.95391   0.81830   0.00000  Uiso   1.00
H1558  H     0.42913   0.96354   0.82424   0.00000  Uiso   1.00
C1559  C     0.48247   0.95487   0.85877   0.00000  Uiso   1.00
H1560  H     0.48218   0.98939   0.87488   0.00000  Uiso   1.00
H1561  H     0.51493   0.94492   0.85192   0.00000  Uiso   1.00
H1562  H     0.46887   0.93078   0.88298   0.00000  Uiso   1.00
N1563  N     0.44222   0.71701   0.80159   0.00000  Uiso   1.00
H1564  H     0.41410   0.70394   0.79415   0.00000  Uiso   1.00
C1565  C     0.44472   0.72948   0.84824   0.00000  Uiso   1.00
H1566  H     0.42674   0.70515   0.86881   0.00000  Uiso   1.00
H1567  H     0.43094   0.76455   0.85386   0.00000  Uiso   1.00
H1568  H     0.47675   0.72996   0.85923   0.00000  Uiso   1.00
N1569  N     0.54573   0.94774   0.68632   0.00000  Uiso   1.00
H1570  H     0.53285   0.94689   0.65553   0.00000  Uiso   1.00
C1571  C     0.58983   0.94985   0.68601   0.00000  Uiso   1.00
H1572  H     0.60110   0.96837   0.65620   0.00000  Uiso   1.00
H1573  H     0.60287   0.91411   0.68442   0.00000  Uiso   1.00
H1574  H     0.60080   0.96777   0.71620   0.00000  Uiso   1.00
N1575  N     0.37485   0.75597   0.71216   0.00000  Uiso   1.00
H1576  H     0.39489   0.73604   0.72952   0.00000  Uiso   1.00
C1577  C     0.38617   0.76417   0.66630   0.00000  Uiso   1.00
H1578  H     0.35859   0.77292   0.64731   0.00000  Uiso   1.00
H1579  H     0.40075   0.73238   0.65118   0.00000  Uiso   1.00
H1580  H     0.40784   0.79323   0.66420   0.00000  Uiso   1.00
N1581  N     0.62180   0.91138   0.78751   0.00000  Uiso   1.00
H1582  H     0.63278   0.94372   0.78059   0.00000  Uiso   1.00
C1583  C     0.61093   0.90653   0.83406   0.00000  Uiso   1.00
H1584  H     0.63886   0.90427   0.85407   0.00000  Uiso   1.00
H1585  H     0.59253   0.87505   0.83894   0.00000  Uiso   1.00
H1586  H     0.59236   0.93710   0.84586   0.00000  Uiso   1.00
N1587  N     0.62704   0.74816   0.73733   0.00000  Uiso   1.00
H1588  H     0.63832   0.72761   0.71123   0.00000  Uiso   1.00
C1589  C     0.62360   0.72277   0.77827   0.00000  Uiso   1.00
H1590  H     0.65423   0.71045   0.78836   0.00000  Uiso   1.00
H1591  H     0.60381   0.69239   0.77330   0.00000  Uiso   1.00
H1592  H     0.60947   0.74493   0.80535   0.00000  Uiso   1.00
N1593  N     0.37375   0.91701   0.77174   0.00000  Uiso   1.00
H1594  H     0.36432   0.93406   0.80075   0.00000  Uiso   1.00
C1595  C     0.37711   0.94724   0.73392   0.00000  Uiso   1.00
H1596  H     0.34658   0.96024   0.72441   0.00000  Uiso   1.00
H1597  H     0.39184   0.92855   0.70491   0.00000  Uiso   1.00
H1598  H     0.39614   0.97735   0.74245   0.00000  Uiso   1.00
C1599  C     0.75410   0.83371   0.74876   0.00000  Uiso   1.00
C1600  C     0.91243   0.83295   0.75229   0.00000  Uiso   1.00
C1601  C     0.83377   0.83291   0.66499   0.00000  Uiso   1.00
C1602  C     0.83344   0.83364   0.83478   0.00000  Uiso   1.00
C1603  C     0.85611   0.69041   0.71890   0.00000  Uiso   1.00
C1604  C     0.81152   0.97654   0.78186   0.00000  Uiso   1.00
C1605  C     0.80893   0.69274   0.77969   0.00000  Uiso   1.00
C1606  C     0.85646   0.97394   0.71930   0.00000  Uiso   1.00
C1607  C     0.68835   0.79404   0.73519   0.00000  Uiso   1.00
C1608  C     0.97753   0.87281   0.76808   0.00000  Uiso   1.00
C1609  C     0.97967   0.79179   0.74228   0.00000  Uiso   1.00
C1610  C     0.68682   0.87465   0.76269   0.00000  Uiso   1.00
C1611  C     0.86102   0.86132   0.54684   0.00000  Uiso   1.00
C1612  C     0.79794   0.84027   0.95374   0.00000  Uiso   1.00
C1613  C     0.87103   0.82466   0.95033   0.00000  Uiso   1.00
C1614  C     0.80970   0.80162   0.54704   0.00000  Uiso   1.00
C1615  C     0.86061   0.86159   0.59310   0.00000  Uiso   1.00
C1616  C     0.79760   0.84129   0.90753   0.00000  Uiso   1.00
C1617  C     0.87050   0.82483   0.90412   0.00000  Uiso   1.00
C1618  C     0.80987   0.80133   0.59325   0.00000  Uiso   1.00
C1619  C     0.83467   0.83199   0.61651   0.00000  Uiso   1.00
C1620  C     0.83395   0.83396   0.88283   0.00000  Uiso   1.00
C1621  C     0.83515   0.83175   0.52373   0.00000  Uiso   1.00
C1622  C     0.83472   0.83230   0.97525   0.00000  Uiso   1.00
C1623  C     0.95711   0.83211   0.75532   0.00000  Uiso   1.00
C1624  C     0.70925   0.83451   0.74794   0.00000  Uiso   1.00
Cu1625 Cu    0.83333   0.88022   0.75000   0.00000  Uiso   1.00
Cu1626 Cu    0.83333   0.78645   0.75000   0.00000  Uiso   1.00
H1627  H     0.88110   0.88447   0.52907   0.00000  Uiso   1.00
H1628  H     0.76972   0.84618   0.97274   0.00000  Uiso   1.00
H1629  H     0.89949   0.81784   0.96666   0.00000  Uiso   1.00
H1630  H     0.79007   0.77808   0.52943   0.00000  Uiso   1.00
H1631  H     0.88115   0.88409   0.61049   0.00000  Uiso   1.00
H1632  H     0.76914   0.84769   0.89103   0.00000  Uiso   1.00
H1633  H     0.89846   0.81770   0.88504   0.00000  Uiso   1.00
H1634  H     0.79061   0.77731   0.61068   0.00000  Uiso   1.00
N1635  N     0.83333   0.95069   0.75000   0.00000  Uiso   1.00
N1636  N     0.83333   0.71598   0.75000   0.00000  Uiso   1.00
O1637  O     0.77321   0.87291   0.75000   0.00000  Uiso   1.00
O1638  O     0.89345   0.79375   0.75001   0.00000  Uiso   1.00
O1639  O     0.89345   0.87291   0.75001   0.00000  Uiso   1.00
O1640  O     0.77321   0.79375   0.75000   0.00000  Uiso   1.00
O1641  O     0.83333   0.87293   0.68573   0.00000  Uiso   1.00
O1642  O     0.83334   0.79374   0.81427   0.00000  Uiso   1.00
O1643  O     0.83334   0.87293   0.81427   0.00000  Uiso   1.00
O1644  O     0.83333   0.79374   0.68573   0.00000  Uiso   1.00
N1645  N     0.87850   0.71408   0.68541   0.00000  Uiso   1.00
H1646  H     0.90945   0.70859   0.68598   0.00000  Uiso   1.00
C1647  C     0.86312   0.71079   0.64075   0.00000  Uiso   1.00
H1648  H     0.87639   0.68021   0.62244   0.00000  Uiso   1.00
H1649  H     0.87283   0.74165   0.62207   0.00000  Uiso   1.00
H1650  H     0.82925   0.70921   0.64128   0.00000  Uiso   1.00
N1651  N     0.79252   0.95391   0.81830   0.00000  Uiso   1.00
H1652  H     0.76246   0.96354   0.82424   0.00000  Uiso   1.00
C1653  C     0.81580   0.95487   0.85877   0.00000  Uiso   1.00
H1654  H     0.81551   0.98939   0.87488   0.00000  Uiso   1.00
H1655  H     0.84826   0.94492   0.85192   0.00000  Uiso   1.00
H1656  H     0.80220   0.93078   0.88298   0.00000  Uiso   1.00
N1657  N     0.77555   0.71701   0.80159   0.00000  Uiso   1.00
H1658  H     0.74743   0.70394   0.79415   0.00000  Uiso   1.00
C1659  C     0.77805   0.72948   0.84824   0.00000  Uiso   1.00
H1660  H     0.76007   0.70515   0.86881   0.00000  Uiso   1.00
H1661  H     0.76428   0.76455   0.85386   0.00000  Uiso   1.00
H1662  H     0.81008   0.72996   0.85923   0.00000  Uiso   1.00
N1663  N     0.87906   0.94774   0.68632   0.00000  Uiso   1.00
H1664  H     0.86619   0.94689   0.65553   0.00000  Uiso   1.00
C1665  C     0.92316   0.94985   0.68601   0.00000  Uiso   1.00
H1666  H     0.93443   0.96837   0.65620   0.00000  Uiso   1.00
H1667  H     0.93621   0.91411   0.68442   0.00000  Uiso   1.00
H1668  H     0.93413   0.96777   0.71620   0.00000  Uiso   1.00
N1669  N     0.70818   0.75597   0.71216   0.00000  Uiso   1.00
H1670  H     0.72822   0.73604   0.72952   0.00000  Uiso   1.00
C1671  C     0.71951   0.76417   0.66630   0.00000  Uiso   1.00
H1672  H     0.69192   0.77292   0.64731   0.00000  Uiso   1.00
H1673  H     0.73408   0.73238   0.65118   0.00000  Uiso   1.00
H1674  H     0.74117   0.79323   0.66420   0.00000  Uiso   1.00
N1675  N     0.95513   0.91138   0.78751   0.00000  Uiso   1.00
H1676  H     0.96612   0.94372   0.78059   0.00000  Uiso   1.00
C1677  C     0.94426   0.90653   0.83406   0.00000  Uiso   1.00
H1678  H     0.97220   0.90427   0.85407   0.00000  Uiso   1.00
H1679  H     0.92587   0.87505   0.83894   0.00000  Uiso   1.00
H1680  H     0.92570   0.93710   0.84586   0.00000  Uiso   1.00
N1681  N     0.96037   0.74816   0.73733   0.00000  Uiso   1.00
H1682  H     0.97165   0.72761   0.71123   0.00000  Uiso   1.00
C1683  C     0.95693   0.72277   0.77827   0.00000  Uiso   1.00
H1684  H     0.98757   0.71045   0.78836   0.00000  Uiso   1.00
H1685  H     0.93715   0.69239   0.77330   0.00000  Uiso   1.00
H1686  H     0.94281   0.74493   0.80535   0.00000  Uiso   1.00
N1687  N     0.70708   0.91701   0.77174   0.00000  Uiso   1.00
H1688  H     0.69766   0.93406   0.80075   0.00000  Uiso   1.00
C1689  C     0.71044   0.94724   0.73392   0.00000  Uiso   1.00
H1690  H     0.67991   0.96024   0.72441   0.00000  Uiso   1.00
H1691  H     0.72517   0.92855   0.70491   0.00000  Uiso   1.00
H1692  H     0.72947   0.97735   0.74245   0.00000  Uiso   1.00
loop_
_geom_bond_atom_site_label_1
_geom_bond_atom_site_label_2
_geom_bond_distance
_geom_bond_site_symmetry_2
_ccdc_geom_bond_type
C1     C26     1.471   .     S
C1     O39     1.302   .     A
C1     O42     1.304   .     A
C2     O41     1.305   .     A
C2     C25     1.470   .     S
C2     O40     1.301   .     A
C3     O43     1.300   .     A
C3     C21     1.458   .     S
C3     O46     1.301   .     A
C4     C22     1.445   .     S
C4     O45     1.301   .     A
C4     O44     1.295   .     A
C5     N47     1.422   .     S
C5     N38     1.376   .     A
C5     C572    1.437   1_545 S
C6     N37     1.379   .     A
C6     N53     1.421   .     S
C6     C289    1.433   .     S
C7     N59     1.428   .     S
C7     N38     1.374   .     A
C7     C570    1.433   1_545 S
C8     N65     1.420   .     S
C8     N37     1.371   .     A
C8     C287    1.437   .     S
C9     C26     1.415   .     A
C9     N71     1.425   .     S
C9     C199    1.390   1_455 S
C10    N77     1.429   .     S
C10    C25     1.412   .     A
C10    C106    1.404   .     S
C11    N83     1.425   .     S
C11    C25     1.411   .     A
C11    C103    1.390   .     S
C12    N89     1.425   .     S
C12    C26     1.418   .     A
C12    C198    1.404   1_455 S
C13    H29     1.083   .     S
C13    C23     1.400   .     A
C13    C17     1.391   .     A
C14    C18     1.391   .     A
C14    C24     1.402   .     A
C14    H30     1.083   .     S
C15    C19     1.391   .     A
C15    C24     1.401   .     A
C15    H31     1.083   .     S
C16    C20     1.390   .     A
C16    C23     1.400   .     A
C16    H32     1.083   .     S
C17    H33     1.081   .     S
C17    C21     1.401   .     A
C18    H34     1.084   .     S
C18    C22     1.398   .     A
C19    C22     1.398   .     A
C19    H35     1.082   .     S
C20    H36     1.079   .     S
C20    C21     1.401   .     A
C23    C870    1.459   1_554 S
C24    C869    1.459   .     S
Cu27   O39     1.986   .     S
Cu27   O45     1.949   .     S
Cu27   O43     1.940   .     S
Cu27   O41     1.979   .     S
Cu27   N37     2.032   .     S
Cu27   Cu28    2.705   .     S
Cu28   O46     1.949   .     S
Cu28   O40     1.986   .     S
Cu28   O44     1.940   .     S
Cu28   N38     2.032   .     S
Cu28   O42     1.979   .     S
N47    C49     1.449   .     S
N47    H48     1.025   .     S
C49    H51     1.108   .     S
C49    H52     1.112   .     S
C49    H50     1.107   .     S
N53    C55     1.454   .     S
N53    H54     1.029   .     S
C55    H56     1.098   .     S
C55    H57     1.110   .     S
C55    H58     1.106   .     S
N59    C61     1.446   .     S
N59    H60     1.030   .     S
C61    H63     1.109   .     S
C61    H64     1.110   .     S
C61    H62     1.111   .     S
N65    C67     1.448   .     S
N65    H66     1.028   .     S
C67    H68     1.110   .     S
C67    H69     1.109   .     S
C67    H70     1.107   .     S
N71    C73     1.444   .     S
N71    H72     1.026   .     S
C73    H74     1.111   .     S
C73    H75     1.110   .     S
C73    H76     1.109   .     S
N77    H78     1.028   .     S
N77    C79     1.445   .     S
C79    H81     1.108   .     S
C79    H82     1.110   .     S
C79    H80     1.111   .     S
N83    H84     1.031   .     S
N83    C85     1.448   .     S
C85    H87     1.109   .     S
C85    H86     1.112   .     S
C85    H88     1.112   .     S
N89    C91     1.450   .     S
N89    H90     1.031   .     S
C91    H93     1.111   .     S
C91    H92     1.110   .     S
C91    H94     1.108   .     S
C95    C120    1.471   .     S
C95    O133    1.302   .     A
C95    O136    1.304   .     A
C96    O135    1.305   .     A
C96    C119    1.470   .     S
C96    O134    1.301   .     A
C97    O137    1.300   .     A
C97    C115    1.458   .     S
C97    O140    1.301   .     A
C98    C116    1.445   .     S
C98    O139    1.301   .     A
C98    O138    1.295   .     A
C99    N141    1.422   .     S
C99    N132    1.376   .     A
C99    C666    1.437   1_545 S
C100   N131    1.379   .     A
C100   N147    1.421   .     S
C100   C383    1.433   .     S
C101   N153    1.428   .     S
C101   N132    1.374   .     A
C101   C664    1.433   1_545 S
C102   N159    1.420   .     S
C102   N131    1.371   .     A
C102   C381    1.437   .     S
C103   C120    1.415   .     A
C103   N165    1.425   .     S
C104   N171    1.429   .     S
C104   C119    1.412   .     A
C104   C200    1.404   .     S
C105   N177    1.425   .     S
C105   C119    1.411   .     A
C105   C197    1.390   .     S
C106   N183    1.425   .     S
C106   C120    1.418   .     A
C107   H123    1.083   .     S
C107   C117    1.400   .     A
C107   C111    1.391   .     A
C108   C112    1.391   .     A
C108   C118    1.402   .     A
C108   H124    1.083   .     S
C109   C113    1.391   .     A
C109   C118    1.401   .     A
C109   H125    1.083   .     S
C110   C114    1.390   .     A
C110   C117    1.400   .     A
C110   H126    1.083   .     S
C111   H127    1.081   .     S
C111   C115    1.401   .     A
C112   H128    1.084   .     S
C112   C116    1.398   .     A
C113   C116    1.398   .     A
C113   H129    1.082   .     S
C114   H130    1.079   .     S
C114   C115    1.401   .     A
C117   C964    1.459   1_554 S
C118   C963    1.459   .     S
Cu121  O133    1.986   .     S
Cu121  O139    1.949   .     S
Cu121  O137    1.940   .     S
Cu121  O135    1.979   .     S
Cu121  N131    2.032   .     S
Cu121  Cu122   2.705   .     S
Cu122  O140    1.949   .     S
Cu122  O134    1.986   .     S
Cu122  O138    1.940   .     S
Cu122  N132    2.032   .     S
Cu122  O136    1.979   .     S
N141   C143    1.449   .     S
N141   H142    1.025   .     S
C143   H145    1.108   .     S
C143   H146    1.112   .     S
C143   H144    1.107   .     S
N147   C149    1.454   .     S
N147   H148    1.029   .     S
C149   H150    1.098   .     S
C149   H151    1.110   .     S
C149   H152    1.106   .     S
N153   C155    1.446   .     S
N153   H154    1.030   .     S
C155   H157    1.109   .     S
C155   H158    1.110   .     S
C155   H156    1.111   .     S
N159   C161    1.448   .     S
N159   H160    1.028   .     S
C161   H162    1.110   .     S
C161   H163    1.109   .     S
C161   H164    1.107   .     S
N165   C167    1.444   .     S
N165   H166    1.026   .     S
C167   H168    1.111   .     S
C167   H169    1.110   .     S
C167   H170    1.109   .     S
N171   H172    1.028   .     S
N171   C173    1.445   .     S
C173   H175    1.108   .     S
C173   H176    1.110   .     S
C173   H174    1.111   .     S
N177   H178    1.031   .     S
N177   C179    1.448   .     S
C179   H181    1.109   .     S
C179   H180    1.112   .     S
C179   H182    1.112   .     S
N183   C185    1.450   .     S
N183   H184    1.031   .     S
C185   H187    1.111   .     S
C185   H186    1.110   .     S
C185   H188    1.108   .     S
C189   C214    1.471   .     S
C189   O227    1.302   .     A
C189   O230    1.304   .     A
C190   O229    1.305   .     A
C190   C213    1.470   .     S
C190   O228    1.301   .     A
C191   O231    1.300   .     A
C191   C209    1.458   .     S
C191   O234    1.301   .     A
C192   C210    1.445   .     S
C192   O233    1.301   .     A
C192   O232    1.295   .     A
C193   N235    1.422   .     S
C193   N226    1.376   .     A
C193   C760    1.437   1_545 S
C194   N225    1.379   .     A
C194   N241    1.421   .     S
C194   C477    1.433   .     S
C195   N247    1.428   .     S
C195   N226    1.374   .     A
C195   C758    1.433   1_545 S
C196   N253    1.420   .     S
C196   N225    1.371   .     A
C196   C475    1.437   .     S
C197   C214    1.415   .     A
C197   N259    1.425   .     S
C198   N265    1.429   .     S
C198   C213    1.412   .     A
C198   C12     1.404   1_655 S
C199   N271    1.425   .     S
C199   C213    1.411   .     A
C199   C9      1.390   1_655 S
C200   N277    1.425   .     S
C200   C214    1.418   .     A
C201   H217    1.083   .     S
C201   C211    1.400   .     A
C201   C205    1.391   .     A
C202   C206    1.391   .     A
C202   C212    1.402   .     A
C202   H218    1.083   .     S
C203   C207    1.391   .     A
C203   C212    1.401   .     A
C203   H219    1.083   .     S
C204   C208    1.390   .     A
C204   C211    1.400   .     A
C204   H220    1.083   .     S
C205   H221    1.081   .     S
C205   C209    1.401   .     A
C206   H222    1.084   .     S
C206   C210    1.398   .     A
C207   C210    1.398   .     A
C207   H223    1.082   .     S
C208   H224    1.079   .     S
C208   C209    1.401   .     A
C211   C1058   1.459   1_554 S
C212   C1057   1.459   .     S
Cu215  O227    1.986   .     S
Cu215  O233    1.949   .     S
Cu215  O231    1.940   .     S
Cu215  O229    1.979   .     S
Cu215  N225    2.032   .     S
Cu215  Cu216   2.705   .     S
Cu216  O234    1.949   .     S
Cu216  O228    1.986   .     S
Cu216  O232    1.940   .     S
Cu216  N226    2.032   .     S
Cu216  O230    1.979   .     S
N235   C237    1.449   .     S
N235   H236    1.025   .     S
C237   H239    1.108   .     S
C237   H240    1.112   .     S
C237   H238    1.107   .     S
N241   C243    1.454   .     S
N241   H242    1.029   .     S
C243   H244    1.098   .     S
C243   H245    1.110   .     S
C243   H246    1.106   .     S
N247   C249    1.446   .     S
N247   H248    1.030   .     S
C249   H251    1.109   .     S
C249   H252    1.110   .     S
C249   H250    1.111   .     S
N253   C255    1.448   .     S
N253   H254    1.028   .     S
C255   H256    1.110   .     S
C255   H257    1.109   .     S
C255   H258    1.107   .     S
N259   C261    1.444   .     S
N259   H260    1.026   .     S
C261   H262    1.111   .     S
C261   H263    1.110   .     S
C261   H264    1.109   .     S
N265   H266    1.028   .     S
N265   C267    1.445   .     S
C267   H269    1.108   .     S
C267   H270    1.110   .     S
C267   H268    1.111   .     S
N271   H272    1.031   .     S
N271   C273    1.448   .     S
C273   H275    1.109   .     S
C273   H274    1.112   .     S
C273   H276    1.112   .     S
N277   C279    1.450   .     S
N277   H278    1.031   .     S
C279   H281    1.111   .     S
C279   H280    1.110   .     S
C279   H282    1.108   .     S
C283   C308    1.471   .     S
C283   O321    1.302   .     A
C283   O324    1.304   .     A
C284   O323    1.305   .     A
C284   C307    1.470   .     S
C284   O322    1.301   .     A
C285   O325    1.300   .     A
C285   C303    1.458   .     S
C285   O328    1.301   .     A
C286   C304    1.445   .     S
C286   O327    1.301   .     A
C286   O326    1.295   .     A
C287   N329    1.422   .     S
C287   N320    1.376   .     A
C288   N319    1.379   .     A
C288   N335    1.421   .     S
C288   C571    1.433   .     S
C289   N341    1.428   .     S
C289   N320    1.374   .     A
C290   N347    1.420   .     S
C290   N319    1.371   .     A
C290   C569    1.437   .     S
C291   C308    1.415   .     A
C291   N353    1.425   .     S
C291   C481    1.390   1_455 S
C292   N359    1.429   .     S
C292   C307    1.412   .     A
C292   C388    1.404   .     S
C293   N365    1.425   .     S
C293   C307    1.411   .     A
C293   C385    1.390   .     S
C294   N371    1.425   .     S
C294   C308    1.418   .     A
C294   C480    1.404   1_455 S
C295   H311    1.083   .     S
C295   C305    1.400   .     A
C295   C299    1.391   .     A
C296   C300    1.391   .     A
C296   C306    1.402   .     A
C296   H312    1.083   .     S
C297   C301    1.391   .     A
C297   C306    1.401   .     A
C297   H313    1.083   .     S
C298   C302    1.390   .     A
C298   C305    1.400   .     A
C298   H314    1.083   .     S
C299   H315    1.081   .     S
C299   C303    1.401   .     A
C300   H316    1.084   .     S
C300   C304    1.398   .     A
C301   C304    1.398   .     A
C301   H317    1.082   .     S
C302   H318    1.079   .     S
C302   C303    1.401   .     A
C305   C1152   1.459   1_554 S
C306   C1151   1.459   .     S
Cu309  O321    1.986   .     S
Cu309  O327    1.949   .     S
Cu309  O325    1.940   .     S
Cu309  O323    1.979   .     S
Cu309  N319    2.032   .     S
Cu309  Cu310   2.705   .     S
Cu310  O328    1.949   .     S
Cu310  O322    1.986   .     S
Cu310  O326    1.940   .     S
Cu310  N320    2.032   .     S
Cu310  O324    1.979   .     S
N329   C331    1.449   .     S
N329   H330    1.025   .     S
C331   H333    1.108   .     S
C331   H334    1.112   .     S
C331   H332    1.107   .     S
N335   C337    1.454   .     S
N335   H336    1.029   .     S
C337   H338    1.098   .     S
C337   H339    1.110   .     S
C337   H340    1.106   .     S
N341   C343    1.446   .     S
N341   H342    1.030   .     S
C343   H345    1.109   .     S
C343   H346    1.110   .     S
C343   H344    1.111   .     S
N347   C349    1.448   .     S
N347   H348    1.028   .     S
C349   H350    1.110   .     S
C349   H351    1.109   .     S
C349   H352    1.107   .     S
N353   C355    1.444   .     S
N353   H354    1.026   .     S
C355   H356    1.111   .     S
C355   H357    1.110   .     S
C355   H358    1.109   .     S
N359   H360    1.028   .     S
N359   C361    1.445   .     S
C361   H363    1.108   .     S
C361   H364    1.110   .     S
C361   H362    1.111   .     S
N365   H366    1.031   .     S
N365   C367    1.448   .     S
C367   H369    1.109   .     S
C367   H368    1.112   .     S
C367   H370    1.112   .     S
N371   C373    1.450   .     S
N371   H372    1.031   .     S
C373   H375    1.111   .     S
C373   H374    1.110   .     S
C373   H376    1.108   .     S
C377   C402    1.471   .     S
C377   O415    1.302   .     A
C377   O418    1.304   .     A
C378   O417    1.305   .     A
C378   C401    1.470   .     S
C378   O416    1.301   .     A
C379   O419    1.300   .     A
C379   C397    1.458   .     S
C379   O422    1.301   .     A
C380   C398    1.445   .     S
C380   O421    1.301   .     A
C380   O420    1.295   .     A
C381   N423    1.422   .     S
C381   N414    1.376   .     A
C382   N413    1.379   .     A
C382   N429    1.421   .     S
C382   C665    1.433   .     S
C383   N435    1.428   .     S
C383   N414    1.374   .     A
C384   N441    1.420   .     S
C384   N413    1.371   .     A
C384   C663    1.437   .     S
C385   C402    1.415   .     A
C385   N447    1.425   .     S
C386   N453    1.429   .     S
C386   C401    1.412   .     A
C386   C482    1.404   .     S
C387   N459    1.425   .     S
C387   C401    1.411   .     A
C387   C479    1.390   .     S
C388   N465    1.425   .     S
C388   C402    1.418   .     A
C389   H405    1.083   .     S
C389   C399    1.400   .     A
C389   C393    1.391   .     A
C390   C394    1.391   .     A
C390   C400    1.402   .     A
C390   H406    1.083   .     S
C391   C395    1.391   .     A
C391   C400    1.401   .     A
C391   H407    1.083   .     S
C392   C396    1.390   .     A
C392   C399    1.400   .     A
C392   H408    1.083   .     S
C393   H409    1.081   .     S
C393   C397    1.401   .     A
C394   H410    1.084   .     S
C394   C398    1.398   .     A
C395   C398    1.398   .     A
C395   H411    1.082   .     S
C396   H412    1.079   .     S
C396   C397    1.401   .     A
C399   C1246   1.459   1_554 S
C400   C1245   1.459   .     S
Cu403  O415    1.986   .     S
Cu403  O421    1.949   .     S
Cu403  O419    1.940   .     S
Cu403  O417    1.979   .     S
Cu403  N413    2.032   .     S
Cu403  Cu404   2.705   .     S
Cu404  O422    1.949   .     S
Cu404  O416    1.986   .     S
Cu404  O420    1.940   .     S
Cu404  N414    2.032   .     S
Cu404  O418    1.979   .     S
N423   C425    1.449   .     S
N423   H424    1.025   .     S
C425   H427    1.108   .     S
C425   H428    1.112   .     S
C425   H426    1.107   .     S
N429   C431    1.454   .     S
N429   H430    1.029   .     S
C431   H432    1.098   .     S
C431   H433    1.110   .     S
C431   H434    1.106   .     S
N435   C437    1.446   .     S
N435   H436    1.030   .     S
C437   H439    1.109   .     S
C437   H440    1.110   .     S
C437   H438    1.111   .     S
N441   C443    1.448   .     S
N441   H442    1.028   .     S
C443   H444    1.110   .     S
C443   H445    1.109   .     S
C443   H446    1.107   .     S
N447   C449    1.444   .     S
N447   H448    1.026   .     S
C449   H450    1.111   .     S
C449   H451    1.110   .     S
C449   H452    1.109   .     S
N453   H454    1.028   .     S
N453   C455    1.445   .     S
C455   H457    1.108   .     S
C455   H458    1.110   .     S
C455   H456    1.111   .     S
N459   H460    1.031   .     S
N459   C461    1.448   .     S
C461   H463    1.109   .     S
C461   H462    1.112   .     S
C461   H464    1.112   .     S
N465   C467    1.450   .     S
N465   H466    1.031   .     S
C467   H469    1.111   .     S
C467   H468    1.110   .     S
C467   H470    1.108   .     S
C471   C496    1.471   .     S
C471   O509    1.302   .     A
C471   O512    1.304   .     A
C472   O511    1.305   .     A
C472   C495    1.470   .     S
C472   O510    1.301   .     A
C473   O513    1.300   .     A
C473   C491    1.458   .     S
C473   O516    1.301   .     A
C474   C492    1.445   .     S
C474   O515    1.301   .     A
C474   O514    1.295   .     A
C475   N517    1.422   .     S
C475   N508    1.376   .     A
C476   N507    1.379   .     A
C476   N523    1.421   .     S
C476   C759    1.433   .     S
C477   N529    1.428   .     S
C477   N508    1.374   .     A
C478   N535    1.420   .     S
C478   N507    1.371   .     A
C478   C757    1.437   .     S
C479   C496    1.415   .     A
C479   N541    1.425   .     S
C480   N547    1.429   .     S
C480   C495    1.412   .     A
C480   C294    1.404   1_655 S
C481   N553    1.425   .     S
C481   C495    1.411   .     A
C481   C291    1.390   1_655 S
C482   N559    1.425   .     S
C482   C496    1.418   .     A
C483   H499    1.083   .     S
C483   C493    1.400   .     A
C483   C487    1.391   .     A
C484   C488    1.391   .     A
C484   C494    1.402   .     A
C484   H500    1.083   .     S
C485   C489    1.391   .     A
C485   C494    1.401   .     A
C485   H501    1.083   .     S
C486   C490    1.390   .     A
C486   C493    1.400   .     A
C486   H502    1.083   .     S
C487   H503    1.081   .     S
C487   C491    1.401   .     A
C488   H504    1.084   .     S
C488   C492    1.398   .     A
C489   C492    1.398   .     A
C489   H505    1.082   .     S
C490   H506    1.079   .     S
C490   C491    1.401   .     A
C493   C1340   1.459   1_554 S
C494   C1339   1.459   .     S
Cu497  O509    1.986   .     S
Cu497  O515    1.949   .     S
Cu497  O513    1.940   .     S
Cu497  O511    1.979   .     S
Cu497  N507    2.032   .     S
Cu497  Cu498   2.705   .     S
Cu498  O516    1.949   .     S
Cu498  O510    1.986   .     S
Cu498  O514    1.940   .     S
Cu498  N508    2.032   .     S
Cu498  O512    1.979   .     S
N517   C519    1.449   .     S
N517   H518    1.025   .     S
C519   H521    1.108   .     S
C519   H522    1.112   .     S
C519   H520    1.107   .     S
N523   C525    1.454   .     S
N523   H524    1.029   .     S
C525   H526    1.098   .     S
C525   H527    1.110   .     S
C525   H528    1.106   .     S
N529   C531    1.446   .     S
N529   H530    1.030   .     S
C531   H533    1.109   .     S
C531   H534    1.110   .     S
C531   H532    1.111   .     S
N535   C537    1.448   .     S
N535   H536    1.028   .     S
C537   H538    1.110   .     S
C537   H539    1.109   .     S
C537   H540    1.107   .     S
N541   C543    1.444   .     S
N541   H542    1.026   .     S
C543   H544    1.111   .     S
C543   H545    1.110   .     S
C543   H546    1.109   .     S
N547   H548    1.028   .     S
N547   C549    1.445   .     S
C549   H551    1.108   .     S
C549   H552    1.110   .     S
C549   H550    1.111   .     S
N553   H554    1.031   .     S
N553   C555    1.448   .     S
C555   H557    1.109   .     S
C555   H556    1.112   .     S
C555   H558    1.112   .     S
N559   C561    1.450   .     S
N559   H560    1.031   .     S
C561   H563    1.111   .     S
C561   H562    1.110   .     S
C561   H564    1.108   .     S
C565   C590    1.471   .     S
C565   O603    1.302   .     A
C565   O606    1.304   .     A
C566   O605    1.305   .     A
C566   C589    1.470   .     S
C566   O604    1.301   .     A
C567   O607    1.300   .     A
C567   C585    1.458   .     S
C567   O610    1.301   .     A
C568   C586    1.445   .     S
C568   O609    1.301   .     A
C568   O608    1.295   .     A
C569   N611    1.422   .     S
C569   N602    1.376   .     A
C570   N601    1.379   .     A
C570   N617    1.421   .     S
C570   C7      1.433   1_565 S
C571   N623    1.428   .     S
C571   N602    1.374   .     A
C572   N629    1.420   .     S
C572   N601    1.371   .     A
C572   C5      1.437   1_565 S
C573   C590    1.415   .     A
C573   N635    1.425   .     S
C573   C763    1.390   1_455 S
C574   N641    1.429   .     S
C574   C589    1.412   .     A
C574   C670    1.404   .     S
C575   N647    1.425   .     S
C575   C589    1.411   .     A
C575   C667    1.390   .     S
C576   N653    1.425   .     S
C576   C590    1.418   .     A
C576   C762    1.404   1_455 S
C577   H593    1.083   .     S
C577   C587    1.400   .     A
C577   C581    1.391   .     A
C578   C582    1.391   .     A
C578   C588    1.402   .     A
C578   H594    1.083   .     S
C579   C583    1.391   .     A
C579   C588    1.401   .     A
C579   H595    1.083   .     S
C580   C584    1.390   .     A
C580   C587    1.400   .     A
C580   H596    1.083   .     S
C581   H597    1.081   .     S
C581   C585    1.401   .     A
C582   H598    1.084   .     S
C582   C586    1.398   .     A
C583   C586    1.398   .     A
C583   H599    1.082   .     S
C584   H600    1.079   .     S
C584   C585    1.401   .     A
C587   C1434   1.459   1_554 S
C588   C1433   1.459   .     S
Cu591  O603    1.986   .     S
Cu591  O609    1.949   .     S
Cu591  O607    1.940   .     S
Cu591  O605    1.979   .     S
Cu591  N601    2.032   .     S
Cu591  Cu592   2.705   .     S
Cu592  O610    1.949   .     S
Cu592  O604    1.986   .     S
Cu592  O608    1.940   .     S
Cu592  N602    2.032   .     S
Cu592  O606    1.979   .     S
N611   C613    1.449   .     S
N611   H612    1.025   .     S
C613   H615    1.108   .     S
C613   H616    1.112   .     S
C613   H614    1.107   .     S
N617   C619    1.454   .     S
N617   H618    1.029   .     S
C619   H620    1.098   .     S
C619   H621    1.110   .     S
C619   H622    1.106   .     S
N623   C625    1.446   .     S
N623   H624    1.030   .     S
C625   H627    1.109   .     S
C625   H628    1.110   .     S
C625   H626    1.111   .     S
N629   C631    1.448   .     S
N629   H630    1.028   .     S
C631   H632    1.110   .     S
C631   H633    1.109   .     S
C631   H634    1.107   .     S
N635   C637    1.444   .     S
N635   H636    1.026   .     S
C637   H638    1.111   .     S
C637   H639    1.110   .     S
C637   H640    1.109   .     S
N641   H642    1.028   .     S
N641   C643    1.445   .     S
C643   H645    1.108   .     S
C643   H646    1.110   .     S
C643   H644    1.111   .     S
N647   H648    1.031   .     S
N647   C649    1.448   .     S
C649   H651    1.109   .     S
C649   H650    1.112   .     S
C649   H652    1.112   .     S
N653   C655    1.450   .     S
N653   H654    1.031   .     S
C655   H657    1.111   .     S
C655   H656    1.110   .     S
C655   H658    1.108   .     S
C659   C684    1.471   .     S
C659   O697    1.302   .     A
C659   O700    1.304   .     A
C660   O699    1.305   .     A
C660   C683    1.470   .     S
C660   O698    1.301   .     A
C661   O701    1.300   .     A
C661   C679    1.458   .     S
C661   O704    1.301   .     A
C662   C680    1.445   .     S
C662   O703    1.301   .     A
C662   O702    1.295   .     A
C663   N705    1.422   .     S
C663   N696    1.376   .     A
C664   N695    1.379   .     A
C664   N711    1.421   .     S
C664   C101    1.433   1_565 S
C665   N717    1.428   .     S
C665   N696    1.374   .     A
C666   N723    1.420   .     S
C666   N695    1.371   .     A
C666   C99     1.437   1_565 S
C667   C684    1.415   .     A
C667   N729    1.425   .     S
C668   N735    1.429   .     S
C668   C683    1.412   .     A
C668   C764    1.404   .     S
C669   N741    1.425   .     S
C669   C683    1.411   .     A
C669   C761    1.390   .     S
C670   N747    1.425   .     S
C670   C684    1.418   .     A
C671   H687    1.083   .     S
C671   C681    1.400   .     A
C671   C675    1.391   .     A
C672   C676    1.391   .     A
C672   C682    1.402   .     A
C672   H688    1.083   .     S
C673   C677    1.391   .     A
C673   C682    1.401   .     A
C673   H689    1.083   .     S
C674   C678    1.390   .     A
C674   C681    1.400   .     A
C674   H690    1.083   .     S
C675   H691    1.081   .     S
C675   C679    1.401   .     A
C676   H692    1.084   .     S
C676   C680    1.398   .     A
C677   C680    1.398   .     A
C677   H693    1.082   .     S
C678   H694    1.079   .     S
C678   C679    1.401   .     A
C681   C1528   1.459   1_554 S
C682   C1527   1.459   .     S
Cu685  O697    1.986   .     S
Cu685  O703    1.949   .     S
Cu685  O701    1.940   .     S
Cu685  O699    1.979   .     S
Cu685  N695    2.032   .     S
Cu685  Cu686   2.705   .     S
Cu686  O704    1.949   .     S
Cu686  O698    1.986   .     S
Cu686  O702    1.940   .     S
Cu686  N696    2.032   .     S
Cu686  O700    1.979   .     S
N705   C707    1.449   .     S
N705   H706    1.025   .     S
C707   H709    1.108   .     S
C707   H710    1.112   .     S
C707   H708    1.107   .     S
N711   C713    1.454   .     S
N711   H712    1.029   .     S
C713   H714    1.098   .     S
C713   H715    1.110   .     S
C713   H716    1.106   .     S
N717   C719    1.446   .     S
N717   H718    1.030   .     S
C719   H721    1.109   .     S
C719   H722    1.110   .     S
C719   H720    1.111   .     S
N723   C725    1.448   .     S
N723   H724    1.028   .     S
C725   H726    1.110   .     S
C725   H727    1.109   .     S
C725   H728    1.107   .     S
N729   C731    1.444   .     S
N729   H730    1.026   .     S
C731   H732    1.111   .     S
C731   H733    1.110   .     S
C731   H734    1.109   .     S
N735   H736    1.028   .     S
N735   C737    1.445   .     S
C737   H739    1.108   .     S
C737   H740    1.110   .     S
C737   H738    1.111   .     S
N741   H742    1.031   .     S
N741   C743    1.448   .     S
C743   H745    1.109   .     S
C743   H744    1.112   .     S
C743   H746    1.112   .     S
N747   C749    1.450   .     S
N747   H748    1.031   .     S
C749   H751    1.111   .     S
C749   H750    1.110   .     S
C749   H752    1.108   .     S
C753   C778    1.471   .     S
C753   O791    1.302   .     A
C753   O794    1.304   .     A
C754   O793    1.305   .     A
C754   C777    1.470   .     S
C754   O792    1.301   .     A
C755   O795    1.300   .     A
C755   C773    1.458   .     S
C755   O798    1.301   .     A
C756   C774    1.445   .     S
C756   O797    1.301   .     A
C756   O796    1.295   .     A
C757   N799    1.422   .     S
C757   N790    1.376   .     A
C758   N789    1.379   .     A
C758   N805    1.421   .     S
C758   C195    1.433   1_565 S
C759   N811    1.428   .     S
C759   N790    1.374   .     A
C760   N817    1.420   .     S
C760   N789    1.371   .     A
C760   C193    1.437   1_565 S
C761   C778    1.415   .     A
C761   N823    1.425   .     S
C762   N829    1.429   .     S
C762   C777    1.412   .     A
C762   C576    1.404   1_655 S
C763   N835    1.425   .     S
C763   C777    1.411   .     A
C763   C573    1.390   1_655 S
C764   N841    1.425   .     S
C764   C778    1.418   .     A
C765   H781    1.083   .     S
C765   C775    1.400   .     A
C765   C769    1.391   .     A
C766   C770    1.391   .     A
C766   C776    1.402   .     A
C766   H782    1.083   .     S
C767   C771    1.391   .     A
C767   C776    1.401   .     A
C767   H783    1.083   .     S
C768   C772    1.390   .     A
C768   C775    1.400   .     A
C768   H784    1.083   .     S
C769   H785    1.081   .     S
C769   C773    1.401   .     A
C770   H786    1.084   .     S
C770   C774    1.398   .     A
C771   C774    1.398   .     A
C771   H787    1.082   .     S
C772   H788    1.079   .     S
C772   C773    1.401   .     A
C775   C1622   1.459   1_554 S
C776   C1621   1.459   .     S
Cu779  O791    1.986   .     S
Cu779  O797    1.949   .     S
Cu779  O795    1.940   .     S
Cu779  O793    1.979   .     S
Cu779  N789    2.032   .     S
Cu779  Cu780   2.705   .     S
Cu780  O798    1.949   .     S
Cu780  O792    1.986   .     S
Cu780  O796    1.940   .     S
Cu780  N790    2.032   .     S
Cu780  O794    1.979   .     S
N799   C801    1.449   .     S
N799   H800    1.025   .     S
C801   H803    1.108   .     S
C801   H804    1.112   .     S
C801   H802    1.107   .     S
N805   C807    1.454   .     S
N805   H806    1.029   .     S
C807   H808    1.098   .     S
C807   H809    1.110   .     S
C807   H810    1.106   .     S
N811   C813    1.446   .     S
N811   H812    1.030   .     S
C813   H815    1.109   .     S
C813   H816    1.110   .     S
C813   H814    1.111   .     S
N817   C819    1.448   .     S
N817   H818    1.028   .     S
C819   H820    1.110   .     S
C819   H821    1.109   .     S
C819   H822    1.107   .     S
N823   C825    1.444   .     S
N823   H824    1.026   .     S
C825   H826    1.111   .     S
C825   H827    1.110   .     S
C825   H828    1.109   .     S
N829   H830    1.028   .     S
N829   C831    1.445   .     S
C831   H833    1.108   .     S
C831   H834    1.110   .     S
C831   H832    1.111   .     S
N835   H836    1.031   .     S
N835   C837    1.448   .     S
C837   H839    1.109   .     S
C837   H838    1.112   .     S
C837   H840    1.112   .     S
N841   C843    1.450   .     S
N841   H842    1.031   .     S
C843   H845    1.111   .     S
C843   H844    1.110   .     S
C843   H846    1.108   .     S
C847   C872    1.471   .     S
C847   O885    1.302   .     A
C847   O888    1.304   .     A
C848   O887    1.305   .     A
C848   C871    1.470   .     S
C848   O886    1.301   .     A
C849   O889    1.300   .     A
C849   C867    1.458   .     S
C849   O892    1.301   .     A
C850   C868    1.445   .     S
C850   O891    1.301   .     A
C850   O890    1.295   .     A
C851   N893    1.422   .     S
C851   N884    1.376   .     A
C851   C1418   1.437   1_545 S
C852   N883    1.379   .     A
C852   N899    1.421   .     S
C852   C1135   1.433   .     S
C853   N905    1.428   .     S
C853   N884    1.374   .     A
C853   C1416   1.433   1_545 S
C854   N911    1.420   .     S
C854   N883    1.371   .     A
C854   C1133   1.437   .     S
C855   C872    1.415   .     A
C855   N917    1.425   .     S
C855   C1045   1.390   1_455 S
C856   N923    1.429   .     S
C856   C871    1.412   .     A
C856   C952    1.404   .     S
C857   N929    1.425   .     S
C857   C871    1.411   .     A
C857   C949    1.390   .     S
C858   N935    1.425   .     S
C858   C872    1.418   .     A
C858   C1044   1.404   1_455 S
C859   H875    1.083   .     S
C859   C869    1.400   .     A
C859   C863    1.391   .     A
C860   C864    1.391   .     A
C860   C870    1.402   .     A
C860   H876    1.083   .     S
C861   C865    1.391   .     A
C861   C870    1.401   .     A
C861   H877    1.083   .     S
C862   C866    1.390   .     A
C862   C869    1.400   .     A
C862   H878    1.083   .     S
C863   H879    1.081   .     S
C863   C867    1.401   .     A
C864   H880    1.084   .     S
C864   C868    1.398   .     A
C865   C868    1.398   .     A
C865   H881    1.082   .     S
C866   H882    1.079   .     S
C866   C867    1.401   .     A
C870   C23     1.459   1_556 S
Cu873  O885    1.986   .     S
Cu873  O891    1.949   .     S
Cu873  O889    1.940   .     S
Cu873  O887    1.979   .     S
Cu873  N883    2.032   .     S
Cu873  Cu874   2.705   .     S
Cu874  O892    1.949   .     S
Cu874  O886    1.986   .     S
Cu874  O890    1.940   .     S
Cu874  N884    2.032   .     S
Cu874  O888    1.979   .     S
N893   C895    1.449   .     S
N893   H894    1.025   .     S
C895   H897    1.108   .     S
C895   H898    1.112   .     S
C895   H896    1.107   .     S
N899   C901    1.454   .     S
N899   H900    1.029   .     S
C901   H902    1.098   .     S
C901   H903    1.110   .     S
C901   H904    1.106   .     S
N905   C907    1.446   .     S
N905   H906    1.030   .     S
C907   H909    1.109   .     S
C907   H910    1.110   .     S
C907   H908    1.111   .     S
N911   C913    1.448   .     S
N911   H912    1.028   .     S
C913   H914    1.110   .     S
C913   H915    1.109   .     S
C913   H916    1.107   .     S
N917   C919    1.444   .     S
N917   H918    1.026   .     S
C919   H920    1.111   .     S
C919   H921    1.110   .     S
C919   H922    1.109   .     S
N923   H924    1.028   .     S
N923   C925    1.445   .     S
C925   H927    1.108   .     S
C925   H928    1.110   .     S
C925   H926    1.111   .     S
N929   H930    1.031   .     S
N929   C931    1.448   .     S
C931   H933    1.109   .     S
C931   H932    1.112   .     S
C931   H934    1.112   .     S
N935   C937    1.450   .     S
N935   H936    1.031   .     S
C937   H939    1.111   .     S
C937   H938    1.110   .     S
C937   H940    1.108   .     S
C941   C966    1.471   .     S
C941   O979    1.302   .     A
C941   O982    1.304   .     A
C942   O981    1.305   .     A
C942   C965    1.470   .     S
C942   O980    1.301   .     A
C943   O983    1.300   .     A
C943   C961    1.458   .     S
C943   O986    1.301   .     A
C944   C962    1.445   .     S
C944   O985    1.301   .     A
C944   O984    1.295   .     A
C945   N987    1.422   .     S
C945   N978    1.376   .     A
C945   C1512   1.437   1_545 S
C946   N977    1.379   .     A
C946   N993    1.421   .     S
C946   C1229   1.433   .     S
C947   N999    1.428   .     S
C947   N978    1.374   .     A
C947   C1510   1.433   1_545 S
C948   N1005   1.420   .     S
C948   N977    1.371   .     A
C948   C1227   1.437   .     S
C949   C966    1.415   .     A
C949   N1011   1.425   .     S
C950   N1017   1.429   .     S
C950   C965    1.412   .     A
C950   C1046   1.404   .     S
C951   N1023   1.425   .     S
C951   C965    1.411   .     A
C951   C1043   1.390   .     S
C952   N1029   1.425   .     S
C952   C966    1.418   .     A
C953   H969    1.083   .     S
C953   C963    1.400   .     A
C953   C957    1.391   .     A
C954   C958    1.391   .     A
C954   C964    1.402   .     A
C954   H970    1.083   .     S
C955   C959    1.391   .     A
C955   C964    1.401   .     A
C955   H971    1.083   .     S
C956   C960    1.390   .     A
C956   C963    1.400   .     A
C956   H972    1.083   .     S
C957   H973    1.081   .     S
C957   C961    1.401   .     A
C958   H974    1.084   .     S
C958   C962    1.398   .     A
C959   C962    1.398   .     A
C959   H975    1.082   .     S
C960   H976    1.079   .     S
C960   C961    1.401   .     A
C964   C117    1.459   1_556 S
Cu967  O979    1.986   .     S
Cu967  O985    1.949   .     S
Cu967  O983    1.940   .     S
Cu967  O981    1.979   .     S
Cu967  N977    2.032   .     S
Cu967  Cu968   2.705   .     S
Cu968  O986    1.949   .     S
Cu968  O980    1.986   .     S
Cu968  O984    1.940   .     S
Cu968  N978    2.032   .     S
Cu968  O982    1.979   .     S
N987   C989    1.449   .     S
N987   H988    1.025   .     S
C989   H991    1.108   .     S
C989   H992    1.112   .     S
C989   H990    1.107   .     S
N993   C995    1.454   .     S
N993   H994    1.029   .     S
C995   H996    1.098   .     S
C995   H997    1.110   .     S
C995   H998    1.106   .     S
N999   C1001   1.446   .     S
N999   H1000   1.030   .     S
C1001  H1003   1.109   .     S
C1001  H1004   1.110   .     S
C1001  H1002   1.111   .     S
N1005  C1007   1.448   .     S
N1005  H1006   1.028   .     S
C1007  H1008   1.110   .     S
C1007  H1009   1.109   .     S
C1007  H1010   1.107   .     S
N1011  C1013   1.444   .     S
N1011  H1012   1.026   .     S
C1013  H1014   1.111   .     S
C1013  H1015   1.110   .     S
C1013  H1016   1.109   .     S
N1017  H1018   1.028   .     S
N1017  C1019   1.445   .     S
C1019  H1021   1.108   .     S
C1019  H1022   1.110   .     S
C1019  H1020   1.111   .     S
N1023  H1024   1.031   .     S
N1023  C1025   1.448   .     S
C1025  H1027   1.109   .     S
C1025  H1026   1.112   .     S
C1025  H1028   1.112   .     S
N1029  C1031   1.450   .     S
N1029  H1030   1.031   .     S
C1031  H1033   1.111   .     S
C1031  H1032   1.110   .     S
C1031  H1034   1.108   .     S
C1035  C1060   1.471   .     S
C1035  O1073   1.302   .     A
C1035  O1076   1.304   .     A
C1036  O1075   1.305   .     A
C1036  C1059   1.470   .     S
C1036  O1074   1.301   .     A
C1037  O1077   1.300   .     A
C1037  C1055   1.458   .     S
C1037  O1080   1.301   .     A
C1038  C1056   1.445   .     S
C1038  O1079   1.301   .     A
C1038  O1078   1.295   .     A
C1039  N1081   1.422   .     S
C1039  N1072   1.376   .     A
C1039  C1606   1.437   1_545 S
C1040  N1071   1.379   .     A
C1040  N1087   1.421   .     S
C1040  C1323   1.433   .     S
C1041  N1093   1.428   .     S
C1041  N1072   1.374   .     A
C1041  C1604   1.433   1_545 S
C1042  N1099   1.420   .     S
C1042  N1071   1.371   .     A
C1042  C1321   1.437   .     S
C1043  C1060   1.415   .     A
C1043  N1105   1.425   .     S
C1044  N1111   1.429   .     S
C1044  C1059   1.412   .     A
C1044  C858    1.404   1_655 S
C1045  N1117   1.425   .     S
C1045  C1059   1.411   .     A
C1045  C855    1.390   1_655 S
C1046  N1123   1.425   .     S
C1046  C1060   1.418   .     A
C1047  H1063   1.083   .     S
C1047  C1057   1.400   .     A
C1047  C1051   1.391   .     A
C1048  C1052   1.391   .     A
C1048  C1058   1.402   .     A
C1048  H1064   1.083   .     S
C1049  C1053   1.391   .     A
C1049  C1058   1.401   .     A
C1049  H1065   1.083   .     S
C1050  C1054   1.390   .     A
C1050  C1057   1.400   .     A
C1050  H1066   1.083   .     S
C1051  H1067   1.081   .     S
C1051  C1055   1.401   .     A
C1052  H1068   1.084   .     S
C1052  C1056   1.398   .     A
C1053  C1056   1.398   .     A
C1053  H1069   1.082   .     S
C1054  H1070   1.079   .     S
C1054  C1055   1.401   .     A
C1058  C211    1.459   1_556 S
Cu1061 O1073   1.986   .     S
Cu1061 O1079   1.949   .     S
Cu1061 O1077   1.940   .     S
Cu1061 O1075   1.979   .     S
Cu1061 N1071   2.032   .     S
Cu1061 Cu1062  2.705   .     S
Cu1062 O1080   1.949   .     S
Cu1062 O1074   1.986   .     S
Cu1062 O1078   1.940   .     S
Cu1062 N1072   2.032   .     S
Cu1062 O1076   1.979   .     S
N1081  C1083   1.449   .     S
N1081  H1082   1.025   .     S
C1083  H1085   1.108   .     S
C1083  H1086   1.112   .     S
C1083  H1084   1.107   .     S
N1087  C1089   1.454   .     S
N1087  H1088   1.029   .     S
C1089  H1090   1.098   .     S
C1089  H1091   1.110   .     S
C1089  H1092   1.106   .     S
N1093  C1095   1.446   .     S
N1093  H1094   1.030   .     S
C1095  H1097   1.109   .     S
C1095  H1098   1.110   .     S
C1095  H1096   1.111   .     S
N1099  C1101   1.448   .     S
N1099  H1100   1.028   .     S
C1101  H1102   1.110   .     S
C1101  H1103   1.109   .     S
C1101  H1104   1.107   .     S
N1105  C1107   1.444   .     S
N1105  H1106   1.026   .     S
C1107  H1108   1.111   .     S
C1107  H1109   1.110   .     S
C1107  H1110   1.109   .     S
N1111  H1112   1.028   .     S
N1111  C1113   1.445   .     S
C1113  H1115   1.108   .     S
C1113  H1116   1.110   .     S
C1113  H1114   1.111   .     S
N1117  H1118   1.031   .     S
N1117  C1119   1.448   .     S
C1119  H1121   1.109   .     S
C1119  H1120   1.112   .     S
C1119  H1122   1.112   .     S
N1123  C1125   1.450   .     S
N1123  H1124   1.031   .     S
C1125  H1127   1.111   .     S
C1125  H1126   1.110   .     S
C1125  H1128   1.108   .     S
C1129  C1154   1.471   .     S
C1129  O1167   1.302   .     A
C1129  O1170   1.304   .     A
C1130  O1169   1.305   .     A
C1130  C1153   1.470   .     S
C1130  O1168   1.301   .     A
C1131  O1171   1.300   .     A
C1131  C1149   1.458   .     S
C1131  O1174   1.301   .     A
C1132  C1150   1.445   .     S
C1132  O1173   1.301   .     A
C1132  O1172   1.295   .     A
C1133  N1175   1.422   .     S
C1133  N1166   1.376   .     A
C1134  N1165   1.379   .     A
C1134  N1181   1.421   .     S
C1134  C1417   1.433   .     S
C1135  N1187   1.428   .     S
C1135  N1166   1.374   .     A
C1136  N1193   1.420   .     S
C1136  N1165   1.371   .     A
C1136  C1415   1.437   .     S
C1137  C1154   1.415   .     A
C1137  N1199   1.425   .     S
C1137  C1327   1.390   1_455 S
C1138  N1205   1.429   .     S
C1138  C1153   1.412   .     A
C1138  C1234   1.404   .     S
C1139  N1211   1.425   .     S
C1139  C1153   1.411   .     A
C1139  C1231   1.390   .     S
C1140  N1217   1.425   .     S
C1140  C1154   1.418   .     A
C1140  C1326   1.404   1_455 S
C1141  H1157   1.083   .     S
C1141  C1151   1.400   .     A
C1141  C1145   1.391   .     A
C1142  C1146   1.391   .     A
C1142  C1152   1.402   .     A
C1142  H1158   1.083   .     S
C1143  C1147   1.391   .     A
C1143  C1152   1.401   .     A
C1143  H1159   1.083   .     S
C1144  C1148   1.390   .     A
C1144  C1151   1.400   .     A
C1144  H1160   1.083   .     S
C1145  H1161   1.081   .     S
C1145  C1149   1.401   .     A
C1146  H1162   1.084   .     S
C1146  C1150   1.398   .     A
C1147  C1150   1.398   .     A
C1147  H1163   1.082   .     S
C1148  H1164   1.079   .     S
C1148  C1149   1.401   .     A
C1152  C305    1.459   1_556 S
Cu1155 O1167   1.986   .     S
Cu1155 O1173   1.949   .     S
Cu1155 O1171   1.940   .     S
Cu1155 O1169   1.979   .     S
Cu1155 N1165   2.032   .     S
Cu1155 Cu1156  2.705   .     S
Cu1156 O1174   1.949   .     S
Cu1156 O1168   1.986   .     S
Cu1156 O1172   1.940   .     S
Cu1156 N1166   2.032   .     S
Cu1156 O1170   1.979   .     S
N1175  C1177   1.449   .     S
N1175  H1176   1.025   .     S
C1177  H1179   1.108   .     S
C1177  H1180   1.112   .     S
C1177  H1178   1.107   .     S
N1181  C1183   1.454   .     S
N1181  H1182   1.029   .     S
C1183  H1184   1.098   .     S
C1183  H1185   1.110   .     S
C1183  H1186   1.106   .     S
N1187  C1189   1.446   .     S
N1187  H1188   1.030   .     S
C1189  H1191   1.109   .     S
C1189  H1192   1.110   .     S
C1189  H1190   1.111   .     S
N1193  C1195   1.448   .     S
N1193  H1194   1.028   .     S
C1195  H1196   1.110   .     S
C1195  H1197   1.109   .     S
C1195  H1198   1.107   .     S
N1199  C1201   1.444   .     S
N1199  H1200   1.026   .     S
C1201  H1202   1.111   .     S
C1201  H1203   1.110   .     S
C1201  H1204   1.109   .     S
N1205  H1206   1.028   .     S
N1205  C1207   1.445   .     S
C1207  H1209   1.108   .     S
C1207  H1210   1.110   .     S
C1207  H1208   1.111   .     S
N1211  H1212   1.031   .     S
N1211  C1213   1.448   .     S
C1213  H1215   1.109   .     S
C1213  H1214   1.112   .     S
C1213  H1216   1.112   .     S
N1217  C1219   1.450   .     S
N1217  H1218   1.031   .     S
C1219  H1221   1.111   .     S
C1219  H1220   1.110   .     S
C1219  H1222   1.108   .     S
C1223  C1248   1.471   .     S
C1223  O1261   1.302   .     A
C1223  O1264   1.304   .     A
C1224  O1263   1.305   .     A
C1224  C1247   1.470   .     S
C1224  O1262   1.301   .     A
C1225  O1265   1.300   .     A
C1225  C1243   1.458   .     S
C1225  O1268   1.301   .     A
C1226  C1244   1.445   .     S
C1226  O1267   1.301   .     A
C1226  O1266   1.295   .     A
C1227  N1269   1.422   .     S
C1227  N1260   1.376   .     A
C1228  N1259   1.379   .     A
C1228  N1275   1.421   .     S
C1228  C1511   1.433   .     S
C1229  N1281   1.428   .     S
C1229  N1260   1.374   .     A
C1230  N1287   1.420   .     S
C1230  N1259   1.371   .     A
C1230  C1509   1.437   .     S
C1231  C1248   1.415   .     A
C1231  N1293   1.425   .     S
C1232  N1299   1.429   .     S
C1232  C1247   1.412   .     A
C1232  C1328   1.404   .     S
C1233  N1305   1.425   .     S
C1233  C1247   1.411   .     A
C1233  C1325   1.390   .     S
C1234  N1311   1.425   .     S
C1234  C1248   1.418   .     A
C1235  H1251   1.083   .     S
C1235  C1245   1.400   .     A
C1235  C1239   1.391   .     A
C1236  C1240   1.391   .     A
C1236  C1246   1.402   .     A
C1236  H1252   1.083   .     S
C1237  C1241   1.391   .     A
C1237  C1246   1.401   .     A
C1237  H1253   1.083   .     S
C1238  C1242   1.390   .     A
C1238  C1245   1.400   .     A
C1238  H1254   1.083   .     S
C1239  H1255   1.081   .     S
C1239  C1243   1.401   .     A
C1240  H1256   1.084   .     S
C1240  C1244   1.398   .     A
C1241  C1244   1.398   .     A
C1241  H1257   1.082   .     S
C1242  H1258   1.079   .     S
C1242  C1243   1.401   .     A
C1246  C399    1.459   1_556 S
Cu1249 O1261   1.986   .     S
Cu1249 O1267   1.949   .     S
Cu1249 O1265   1.940   .     S
Cu1249 O1263   1.979   .     S
Cu1249 N1259   2.032   .     S
Cu1249 Cu1250  2.705   .     S
Cu1250 O1268   1.949   .     S
Cu1250 O1262   1.986   .     S
Cu1250 O1266   1.940   .     S
Cu1250 N1260   2.032   .     S
Cu1250 O1264   1.979   .     S
N1269  C1271   1.449   .     S
N1269  H1270   1.025   .     S
C1271  H1273   1.108   .     S
C1271  H1274   1.112   .     S
C1271  H1272   1.107   .     S
N1275  C1277   1.454   .     S
N1275  H1276   1.029   .     S
C1277  H1278   1.098   .     S
C1277  H1279   1.110   .     S
C1277  H1280   1.106   .     S
N1281  C1283   1.446   .     S
N1281  H1282   1.030   .     S
C1283  H1285   1.109   .     S
C1283  H1286   1.110   .     S
C1283  H1284   1.111   .     S
N1287  C1289   1.448   .     S
N1287  H1288   1.028   .     S
C1289  H1290   1.110   .     S
C1289  H1291   1.109   .     S
C1289  H1292   1.107   .     S
N1293  C1295   1.444   .     S
N1293  H1294   1.026   .     S
C1295  H1296   1.111   .     S
C1295  H1297   1.110   .     S
C1295  H1298   1.109   .     S
N1299  H1300   1.028   .     S
N1299  C1301   1.445   .     S
C1301  H1303   1.108   .     S
C1301  H1304   1.110   .     S
C1301  H1302   1.111   .     S
N1305  H1306   1.031   .     S
N1305  C1307   1.448   .     S
C1307  H1309   1.109   .     S
C1307  H1308   1.112   .     S
C1307  H1310   1.112   .     S
N1311  C1313   1.450   .     S
N1311  H1312   1.031   .     S
C1313  H1315   1.111   .     S
C1313  H1314   1.110   .     S
C1313  H1316   1.108   .     S
C1317  C1342   1.471   .     S
C1317  O1355   1.302   .     A
C1317  O1358   1.304   .     A
C1318  O1357   1.305   .     A
C1318  C1341   1.470   .     S
C1318  O1356   1.301   .     A
C1319  O1359   1.300   .     A
C1319  C1337   1.458   .     S
C1319  O1362   1.301   .     A
C1320  C1338   1.445   .     S
C1320  O1361   1.301   .     A
C1320  O1360   1.295   .     A
C1321  N1363   1.422   .     S
C1321  N1354   1.376   .     A
C1322  N1353   1.379   .     A
C1322  N1369   1.421   .     S
C1322  C1605   1.433   .     S
C1323  N1375   1.428   .     S
C1323  N1354   1.374   .     A
C1324  N1381   1.420   .     S
C1324  N1353   1.371   .     A
C1324  C1603   1.437   .     S
C1325  C1342   1.415   .     A
C1325  N1387   1.425   .     S
C1326  N1393   1.429   .     S
C1326  C1341   1.412   .     A
C1326  C1140   1.404   1_655 S
C1327  N1399   1.425   .     S
C1327  C1341   1.411   .     A
C1327  C1137   1.390   1_655 S
C1328  N1405   1.425   .     S
C1328  C1342   1.418   .     A
C1329  H1345   1.083   .     S
C1329  C1339   1.400   .     A
C1329  C1333   1.391   .     A
C1330  C1334   1.391   .     A
C1330  C1340   1.402   .     A
C1330  H1346   1.083   .     S
C1331  C1335   1.391   .     A
C1331  C1340   1.401   .     A
C1331  H1347   1.083   .     S
C1332  C1336   1.390   .     A
C1332  C1339   1.400   .     A
C1332  H1348   1.083   .     S
C1333  H1349   1.081   .     S
C1333  C1337   1.401   .     A
C1334  H1350   1.084   .     S
C1334  C1338   1.398   .     A
C1335  C1338   1.398   .     A
C1335  H1351   1.082   .     S
C1336  H1352   1.079   .     S
C1336  C1337   1.401   .     A
C1340  C493    1.459   1_556 S
Cu1343 O1355   1.986   .     S
Cu1343 O1361   1.949   .     S
Cu1343 O1359   1.940   .     S
Cu1343 O1357   1.979   .     S
Cu1343 N1353   2.032   .     S
Cu1343 Cu1344  2.705   .     S
Cu1344 O1362   1.949   .     S
Cu1344 O1356   1.986   .     S
Cu1344 O1360   1.940   .     S
Cu1344 N1354   2.032   .     S
Cu1344 O1358   1.979   .     S
N1363  C1365   1.449   .     S
N1363  H1364   1.025   .     S
C1365  H1367   1.108   .     S
C1365  H1368   1.112   .     S
C1365  H1366   1.107   .     S
N1369  C1371   1.454   .     S
N1369  H1370   1.029   .     S
C1371  H1372   1.098   .     S
C1371  H1373   1.110   .     S
C1371  H1374   1.106   .     S
N1375  C1377   1.446   .     S
N1375  H1376   1.030   .     S
C1377  H1379   1.109   .     S
C1377  H1380   1.110   .     S
C1377  H1378   1.111   .     S
N1381  C1383   1.448   .     S
N1381  H1382   1.028   .     S
C1383  H1384   1.110   .     S
C1383  H1385   1.109   .     S
C1383  H1386   1.107   .     S
N1387  C1389   1.444   .     S
N1387  H1388   1.026   .     S
C1389  H1390   1.111   .     S
C1389  H1391   1.110   .     S
C1389  H1392   1.109   .     S
N1393  H1394   1.028   .     S
N1393  C1395   1.445   .     S
C1395  H1397   1.108   .     S
C1395  H1398   1.110   .     S
C1395  H1396   1.111   .     S
N1399  H1400   1.031   .     S
N1399  C1401   1.448   .     S
C1401  H1403   1.109   .     S
C1401  H1402   1.112   .     S
C1401  H1404   1.112   .     S
N1405  C1407   1.450   .     S
N1405  H1406   1.031   .     S
C1407  H1409   1.111   .     S
C1407  H1408   1.110   .     S
C1407  H1410   1.108   .     S
C1411  C1436   1.471   .     S
C1411  O1449   1.302   .     A
C1411  O1452   1.304   .     A
C1412  O1451   1.305   .     A
C1412  C1435   1.470   .     S
C1412  O1450   1.301   .     A
C1413  O1453   1.300   .     A
C1413  C1431   1.458   .     S
C1413  O1456   1.301   .     A
C1414  C1432   1.445   .     S
C1414  O1455   1.301   .     A
C1414  O1454   1.295   .     A
C1415  N1457   1.422   .     S
C1415  N1448   1.376   .     A
C1416  N1447   1.379   .     A
C1416  N1463   1.421   .     S
C1416  C853    1.433   1_565 S
C1417  N1469   1.428   .     S
C1417  N1448   1.374   .     A
C1418  N1475   1.420   .     S
C1418  N1447   1.371   .     A
C1418  C851    1.437   1_565 S
C1419  C1436   1.415   .     A
C1419  N1481   1.425   .     S
C1419  C1609   1.390   1_455 S
C1420  N1487   1.429   .     S
C1420  C1435   1.412   .     A
C1420  C1516   1.404   .     S
C1421  N1493   1.425   .     S
C1421  C1435   1.411   .     A
C1421  C1513   1.390   .     S
C1422  N1499   1.425   .     S
C1422  C1436   1.418   .     A
C1422  C1608   1.404   1_455 S
C1423  H1439   1.083   .     S
C1423  C1433   1.400   .     A
C1423  C1427   1.391   .     A
C1424  C1428   1.391   .     A
C1424  C1434   1.402   .     A
C1424  H1440   1.083   .     S
C1425  C1429   1.391   .     A
C1425  C1434   1.401   .     A
C1425  H1441   1.083   .     S
C1426  C1430   1.390   .     A
C1426  C1433   1.400   .     A
C1426  H1442   1.083   .     S
C1427  H1443   1.081   .     S
C1427  C1431   1.401   .     A
C1428  H1444   1.084   .     S
C1428  C1432   1.398   .     A
C1429  C1432   1.398   .     A
C1429  H1445   1.082   .     S
C1430  H1446   1.079   .     S
C1430  C1431   1.401   .     A
C1434  C587    1.459   1_556 S
Cu1437 O1449   1.986   .     S
Cu1437 O1455   1.949   .     S
Cu1437 O1453   1.940   .     S
Cu1437 O1451   1.979   .     S
Cu1437 N1447   2.032   .     S
Cu1437 Cu1438  2.705   .     S
Cu1438 O1456   1.949   .     S
Cu1438 O1450   1.986   .     S
Cu1438 O1454   1.940   .     S
Cu1438 N1448   2.032   .     S
Cu1438 O1452   1.979   .     S
N1457  C1459   1.449   .     S
N1457  H1458   1.025   .     S
C1459  H1461   1.108   .     S
C1459  H1462   1.112   .     S
C1459  H1460   1.107   .     S
N1463  C1465   1.454   .     S
N1463  H1464   1.029   .     S
C1465  H1466   1.098   .     S
C1465  H1467   1.110   .     S
C1465  H1468   1.106   .     S
N1469  C1471   1.446   .     S
N1469  H1470   1.030   .     S
C1471  H1473   1.109   .     S
C1471  H1474   1.110   .     S
C1471  H1472   1.111   .     S
N1475  C1477   1.448   .     S
N1475  H1476   1.028   .     S
C1477  H1478   1.110   .     S
C1477  H1479   1.109   .     S
C1477  H1480   1.107   .     S
N1481  C1483   1.444   .     S
N1481  H1482   1.026   .     S
C1483  H1484   1.111   .     S
C1483  H1485   1.110   .     S
C1483  H1486   1.109   .     S
N1487  H1488   1.028   .     S
N1487  C1489   1.445   .     S
C1489  H1491   1.108   .     S
C1489  H1492   1.110   .     S
C1489  H1490   1.111   .     S
N1493  H1494   1.031   .     S
N1493  C1495   1.448   .     S
C1495  H1497   1.109   .     S
C1495  H1496   1.112   .     S
C1495  H1498   1.112   .     S
N1499  C1501   1.450   .     S
N1499  H1500   1.031   .     S
C1501  H1503   1.111   .     S
C1501  H1502   1.110   .     S
C1501  H1504   1.108   .     S
C1505  C1530   1.471   .     S
C1505  O1543   1.302   .     A
C1505  O1546   1.304   .     A
C1506  O1545   1.305   .     A
C1506  C1529   1.470   .     S
C1506  O1544   1.301   .     A
C1507  O1547   1.300   .     A
C1507  C1525   1.458   .     S
C1507  O1550   1.301   .     A
C1508  C1526   1.445   .     S
C1508  O1549   1.301   .     A
C1508  O1548   1.295   .     A
C1509  N1551   1.422   .     S
C1509  N1542   1.376   .     A
C1510  N1541   1.379   .     A
C1510  N1557   1.421   .     S
C1510  C947    1.433   1_565 S
C1511  N1563   1.428   .     S
C1511  N1542   1.374   .     A
C1512  N1569   1.420   .     S
C1512  N1541   1.371   .     A
C1512  C945    1.437   1_565 S
C1513  C1530   1.415   .     A
C1513  N1575   1.425   .     S
C1514  N1581   1.429   .     S
C1514  C1529   1.412   .     A
C1514  C1610   1.404   .     S
C1515  N1587   1.425   .     S
C1515  C1529   1.411   .     A
C1515  C1607   1.390   .     S
C1516  N1593   1.425   .     S
C1516  C1530   1.418   .     A
C1517  H1533   1.083   .     S
C1517  C1527   1.400   .     A
C1517  C1521   1.391   .     A
C1518  C1522   1.391   .     A
C1518  C1528   1.402   .     A
C1518  H1534   1.083   .     S
C1519  C1523   1.391   .     A
C1519  C1528   1.401   .     A
C1519  H1535   1.083   .     S
C1520  C1524   1.390   .     A
C1520  C1527   1.400   .     A
C1520  H1536   1.083   .     S
C1521  H1537   1.081   .     S
C1521  C1525   1.401   .     A
C1522  H1538   1.084   .     S
C1522  C1526   1.398   .     A
C1523  C1526   1.398   .     A
C1523  H1539   1.082   .     S
C1524  H1540   1.079   .     S
C1524  C1525   1.401   .     A
C1528  C681    1.459   1_556 S
Cu1531 O1543   1.986   .     S
Cu1531 O1549   1.949   .     S
Cu1531 O1547   1.940   .     S
Cu1531 O1545   1.979   .     S
Cu1531 N1541   2.032   .     S
Cu1531 Cu1532  2.705   .     S
Cu1532 O1550   1.949   .     S
Cu1532 O1544   1.986   .     S
Cu1532 O1548   1.940   .     S
Cu1532 N1542   2.032   .     S
Cu1532 O1546   1.979   .     S
N1551  C1553   1.449   .     S
N1551  H1552   1.025   .     S
C1553  H1555   1.108   .     S
C1553  H1556   1.112   .     S
C1553  H1554   1.107   .     S
N1557  C1559   1.454   .     S
N1557  H1558   1.029   .     S
C1559  H1560   1.098   .     S
C1559  H1561   1.110   .     S
C1559  H1562   1.106   .     S
N1563  C1565   1.446   .     S
N1563  H1564   1.030   .     S
C1565  H1567   1.109   .     S
C1565  H1568   1.110   .     S
C1565  H1566   1.111   .     S
N1569  C1571   1.448   .     S
N1569  H1570   1.028   .     S
C1571  H1572   1.110   .     S
C1571  H1573   1.109   .     S
C1571  H1574   1.107   .     S
N1575  C1577   1.444   .     S
N1575  H1576   1.026   .     S
C1577  H1578   1.111   .     S
C1577  H1579   1.110   .     S
C1577  H1580   1.109   .     S
N1581  H1582   1.028   .     S
N1581  C1583   1.445   .     S
C1583  H1585   1.108   .     S
C1583  H1586   1.110   .     S
C1583  H1584   1.111   .     S
N1587  H1588   1.031   .     S
N1587  C1589   1.448   .     S
C1589  H1591   1.109   .     S
C1589  H1590   1.112   .     S
C1589  H1592   1.112   .     S
N1593  C1595   1.450   .     S
N1593  H1594   1.031   .     S
C1595  H1597   1.111   .     S
C1595  H1596   1.110   .     S
C1595  H1598   1.108   .     S
C1599  C1624   1.471   .     S
C1599  O1637   1.302   .     A
C1599  O1640   1.304   .     A
C1600  O1639   1.305   .     A
C1600  C1623   1.470   .     S
C1600  O1638   1.301   .     A
C1601  O1641   1.300   .     A
C1601  C1619   1.458   .     S
C1601  O1644   1.301   .     A
C1602  C1620   1.445   .     S
C1602  O1643   1.301   .     A
C1602  O1642   1.295   .     A
C1603  N1645   1.422   .     S
C1603  N1636   1.376   .     A
C1604  N1635   1.379   .     A
C1604  N1651   1.421   .     S
C1604  C1041   1.433   1_565 S
C1605  N1657   1.428   .     S
C1605  N1636   1.374   .     A
C1606  N1663   1.420   .     S
C1606  N1635   1.371   .     A
C1606  C1039   1.437   1_565 S
C1607  C1624   1.415   .     A
C1607  N1669   1.425   .     S
C1608  N1675   1.429   .     S
C1608  C1623   1.412   .     A
C1608  C1422   1.404   1_655 S
C1609  N1681   1.425   .     S
C1609  C1623   1.411   .     A
C1609  C1419   1.390   1_655 S
C1610  N1687   1.425   .     S
C1610  C1624   1.418   .     A
C1611  H1627   1.083   .     S
C1611  C1621   1.400   .     A
C1611  C1615   1.391   .     A
C1612  C1616   1.391   .     A
C1612  C1622   1.402   .     A
C1612  H1628   1.083   .     S
C1613  C1617   1.391   .     A
C1613  C1622   1.401   .     A
C1613  H1629   1.083   .     S
C1614  C1618   1.390   .     A
C1614  C1621   1.400   .     A
C1614  H1630   1.083   .     S
C1615  H1631   1.081   .     S
C1615  C1619   1.401   .     A
C1616  H1632   1.084   .     S
C1616  C1620   1.398   .     A
C1617  C1620   1.398   .     A
C1617  H1633   1.082   .     S
C1618  H1634   1.079   .     S
C1618  C1619   1.401   .     A
C1622  C775    1.459   1_556 S
Cu1625 O1637   1.986   .     S
Cu1625 O1643   1.949   .     S
Cu1625 O1641   1.940   .     S
Cu1625 O1639   1.979   .     S
Cu1625 N1635   2.032   .     S
Cu1625 Cu1626  2.705   .     S
Cu1626 O1644   1.949   .     S
Cu1626 O1638   1.986   .     S
Cu1626 O1642   1.940   .     S
Cu1626 N1636   2.032   .     S
Cu1626 O1640   1.979   .     S
N1645  C1647   1.449   .     S
N1645  H1646   1.025   .     S
C1647  H1649   1.108   .     S
C1647  H1650   1.112   .     S
C1647  H1648   1.107   .     S
N1651  C1653   1.454   .     S
N1651  H1652   1.029   .     S
C1653  H1654   1.098   .     S
C1653  H1655   1.110   .     S
C1653  H1656   1.106   .     S
N1657  C1659   1.446   .     S
N1657  H1658   1.030   .     S
C1659  H1661   1.109   .     S
C1659  H1662   1.110   .     S
C1659  H1660   1.111   .     S
N1663  C1665   1.448   .     S
N1663  H1664   1.028   .     S
C1665  H1666   1.110   .     S
C1665  H1667   1.109   .     S
C1665  H1668   1.107   .     S
N1669  C1671   1.444   .     S
N1669  H1670   1.026   .     S
C1671  H1672   1.111   .     S
C1671  H1673   1.110   .     S
C1671  H1674   1.109   .     S
N1675  H1676   1.028   .     S
N1675  C1677   1.445   .     S
C1677  H1679   1.108   .     S
C1677  H1680   1.110   .     S
C1677  H1678   1.111   .     S
N1681  H1682   1.031   .     S
N1681  C1683   1.448   .     S
C1683  H1685   1.109   .     S
C1683  H1684   1.112   .     S
C1683  H1686   1.112   .     S
N1687  C1689   1.450   .     S
N1687  H1688   1.031   .     S
C1689  H1691   1.111   .     S
C1689  H1690   1.110   .     S
C1689  H1692   1.108   .     S
