data_str_m2_o1_o18_pcu_sym.127
_audit_creation_date              2020-01-03
_audit_creation_method            'Materials Studio'
_symmetry_space_group_name_H-M    'P1'
_symmetry_Int_Tables_number       1
_symmetry_cell_setting            triclinic
loop_
_symmetry_equiv_pos_as_xyz
  x,y,z
_cell_length_a                    28.5159
_cell_length_b                    32.4732
_cell_length_c                    30.9721
_cell_angle_alpha                 89.3601
_cell_angle_beta                  74.5800
_cell_angle_gamma                 89.8253
loop_
_atom_site_label
_atom_site_type_symbol
_atom_site_fract_x
_atom_site_fract_y
_atom_site_fract_z
_atom_site_U_iso_or_equiv
_atom_site_adp_type
_atom_site_occupancy
C1     C     0.00032   0.08743   0.24880   0.00000  Uiso   1.00
C2     C     0.33305   0.24592   0.25111   0.00000  Uiso   1.00
C3     C     0.19515   0.15852   0.04734   0.00000  Uiso   1.00
C4     C     0.14109   0.19087   0.45507   0.00000  Uiso   1.00
C5     C     0.24380   0.15384   0.02480   0.00000  Uiso   1.00
C6     C     0.09259   0.19624   0.47773   0.00000  Uiso   1.00
C7     C     0.30063   0.02080   0.23004   0.00000  Uiso   1.00
C8     C     0.03303   0.31261   0.26946   0.00000  Uiso   1.00
C9     C     0.30014   0.31146   0.23301   0.00000  Uiso   1.00
C10    C     0.03337   0.02193   0.26663   0.00000  Uiso   1.00
C11    C     0.33290   0.29057   0.25206   0.00000  Uiso   1.00
C12    C     0.00057   0.04280   0.24767   0.00000  Uiso   1.00
C13    C     0.18274   0.14340   0.28040   0.00000  Uiso   1.00
C14    C     0.15060   0.18991   0.21957   0.00000  Uiso   1.00
C15    C     0.13310   0.14344   0.28042   0.00000  Uiso   1.00
C16    C     0.20024   0.18987   0.21956   0.00000  Uiso   1.00
C17    C     0.30612   0.16662   0.33609   0.00000  Uiso   1.00
C18    C     0.02720   0.16700   0.16394   0.00000  Uiso   1.00
C19    C     0.29125   0.16579   0.38520   0.00000  Uiso   1.00
C20    C     0.04224   0.17072   0.11503   0.00000  Uiso   1.00
C21    C     0.30849   0.15283   0.45636   0.00000  Uiso   1.00
C22    C     0.02698   0.19295   0.04539   0.00000  Uiso   1.00
C23    C     0.32450   0.15661   0.40997   0.00000  Uiso   1.00
C24    C     0.01003   0.18482   0.09110   0.00000  Uiso   1.00
C25    C     0.24234   0.17258   0.40729   0.00000  Uiso   1.00
C26    C     0.09097   0.16359   0.09275   0.00000  Uiso   1.00
C27    C     0.22536   0.16992   0.45420   0.00000  Uiso   1.00
C28    C     0.10949   0.17302   0.04699   0.00000  Uiso   1.00
C29    C     0.25928   0.15898   0.47857   0.00000  Uiso   1.00
C30    C     0.07629   0.18727   0.02323   0.00000  Uiso   1.00
C31    C     0.17555   0.17649   0.47731   0.00000  Uiso   1.00
C32    C     0.15985   0.16895   0.02437   0.00000  Uiso   1.00
Cu33   Cu    0.04689   0.16667   0.25000   0.00000  Uiso   1.00
Cu34   Cu    0.28645   0.16666   0.25000   0.00000  Uiso   1.00
H35    H     0.26945   0.14564   0.04376   0.00000  Uiso   1.00
H36    H     0.06758   0.20759   0.45942   0.00000  Uiso   1.00
H37    H     0.11364   0.15071   0.11221   0.00000  Uiso   1.00
H38    H     0.21797   0.17867   0.38683   0.00000  Uiso   1.00
H39    H     0.30551   0.19066   0.10787   0.00000  Uiso   1.00
H40    H     0.02917   0.15116   0.39345   0.00000  Uiso   1.00
H41    H     0.00115   0.14435   0.47484   0.00000  Uiso   1.00
H42    H     0.00172   0.20456   0.02751   0.00000  Uiso   1.00
H43    H     0.18686   0.15454   0.08311   0.00000  Uiso   1.00
H44    H     0.15040   0.19945   0.42020   0.00000  Uiso   1.00
H45    H     0.27517   0.29444   0.21890   0.00000  Uiso   1.00
H46    H     0.05843   0.03895   0.28065   0.00000  Uiso   1.00
H47    H     0.19448   0.12460   0.30462   0.00000  Uiso   1.00
H48    H     0.13886   0.20870   0.19534   0.00000  Uiso   1.00
H49    H     0.10739   0.12476   0.30469   0.00000  Uiso   1.00
H50    H     0.22595   0.20854   0.19528   0.00000  Uiso   1.00
N51    N     0.11736   0.16668   0.24999   0.00000  Uiso   1.00
N52    N     0.21597   0.16666   0.25001   0.00000  Uiso   1.00
O53    O     0.03958   0.10655   0.25000   0.00000  Uiso   1.00
O54    O     0.29375   0.22678   0.25000   0.00000  Uiso   1.00
O55    O     0.29372   0.10654   0.25001   0.00000  Uiso   1.00
O56    O     0.03961   0.22679   0.25000   0.00000  Uiso   1.00
O57    O     0.01852   0.16668   0.31492   0.00000  Uiso   1.00
O58    O     0.31481   0.16666   0.18509   0.00000  Uiso   1.00
O59    O     0.27267   0.16667   0.31492   0.00000  Uiso   1.00
O60    O     0.06067   0.16667   0.18508   0.00000  Uiso   1.00
C61    C     0.26706   0.04128   0.20725   0.00000  Uiso   1.00
C62    C     0.21656   0.03920   0.22608   0.00000  Uiso   1.00
C63    C     0.18494   0.06021   0.20587   0.00000  Uiso   1.00
C64    C     0.20352   0.08341   0.16679   0.00000  Uiso   1.00
C65    C     0.25374   0.08542   0.14769   0.00000  Uiso   1.00
C66    C     0.28547   0.06433   0.16769   0.00000  Uiso   1.00
H67    H     0.20185   0.02212   0.25690   0.00000  Uiso   1.00
H68    H     0.14606   0.05889   0.22077   0.00000  Uiso   1.00
H69    H     0.17901   0.09994   0.15143   0.00000  Uiso   1.00
H70    H     0.26810   0.10352   0.11753   0.00000  Uiso   1.00
H71    H     0.32434   0.06645   0.15284   0.00000  Uiso   1.00
C72    C     0.06733   0.29223   0.29147   0.00000  Uiso   1.00
C73    C     0.04986   0.26903   0.33106   0.00000  Uiso   1.00
C74    C     0.08238   0.24813   0.35031   0.00000  Uiso   1.00
C75    C     0.13243   0.25052   0.33042   0.00000  Uiso   1.00
C76    C     0.15007   0.27392   0.29135   0.00000  Uiso   1.00
C77    C     0.11768   0.29471   0.27189   0.00000  Uiso   1.00
H78    H     0.01113   0.26663   0.34652   0.00000  Uiso   1.00
H79    H     0.06875   0.22989   0.38046   0.00000  Uiso   1.00
H80    H     0.15757   0.23412   0.34514   0.00000  Uiso   1.00
H81    H     0.18881   0.27554   0.27587   0.00000  Uiso   1.00
H82    H     0.13166   0.31199   0.24107   0.00000  Uiso   1.00
C83    C     0.33366   0.08743   0.24880   0.00000  Uiso   1.00
C84    C     0.66638   0.24592   0.25111   0.00000  Uiso   1.00
C85    C     0.52849   0.15852   0.04734   0.00000  Uiso   1.00
C86    C     0.47442   0.19087   0.45507   0.00000  Uiso   1.00
C87    C     0.57713   0.15384   0.02480   0.00000  Uiso   1.00
C88    C     0.42592   0.19624   0.47773   0.00000  Uiso   1.00
C89    C     0.63396   0.02080   0.23004   0.00000  Uiso   1.00
C90    C     0.36636   0.31261   0.26946   0.00000  Uiso   1.00
C91    C     0.63348   0.31146   0.23301   0.00000  Uiso   1.00
C92    C     0.36671   0.02193   0.26663   0.00000  Uiso   1.00
C93    C     0.66623   0.29057   0.25206   0.00000  Uiso   1.00
C94    C     0.33390   0.04280   0.24767   0.00000  Uiso   1.00
C95    C     0.51607   0.14340   0.28040   0.00000  Uiso   1.00
C96    C     0.48393   0.18991   0.21957   0.00000  Uiso   1.00
C97    C     0.46643   0.14344   0.28042   0.00000  Uiso   1.00
C98    C     0.53357   0.18987   0.21956   0.00000  Uiso   1.00
C99    C     0.63946   0.16662   0.33609   0.00000  Uiso   1.00
C100   C     0.36054   0.16700   0.16394   0.00000  Uiso   1.00
C101   C     0.62459   0.16579   0.38520   0.00000  Uiso   1.00
C102   C     0.37557   0.17072   0.11503   0.00000  Uiso   1.00
C103   C     0.64182   0.15283   0.45636   0.00000  Uiso   1.00
C104   C     0.36032   0.19295   0.04539   0.00000  Uiso   1.00
C105   C     0.65784   0.15661   0.40997   0.00000  Uiso   1.00
C106   C     0.34336   0.18482   0.09110   0.00000  Uiso   1.00
C107   C     0.57567   0.17258   0.40729   0.00000  Uiso   1.00
C108   C     0.42431   0.16359   0.09275   0.00000  Uiso   1.00
C109   C     0.55869   0.16992   0.45420   0.00000  Uiso   1.00
C110   C     0.44283   0.17302   0.04699   0.00000  Uiso   1.00
C111   C     0.59261   0.15898   0.47857   0.00000  Uiso   1.00
C112   C     0.40963   0.18727   0.02323   0.00000  Uiso   1.00
C113   C     0.50888   0.17649   0.47731   0.00000  Uiso   1.00
C114   C     0.49318   0.16895   0.02437   0.00000  Uiso   1.00
Cu115  Cu    0.38022   0.16667   0.25000   0.00000  Uiso   1.00
Cu116  Cu    0.61978   0.16666   0.25000   0.00000  Uiso   1.00
H117   H     0.60278   0.14564   0.04376   0.00000  Uiso   1.00
H118   H     0.40091   0.20759   0.45942   0.00000  Uiso   1.00
H119   H     0.44698   0.15071   0.11221   0.00000  Uiso   1.00
H120   H     0.55130   0.17867   0.38683   0.00000  Uiso   1.00
H121   H     0.63884   0.19066   0.10787   0.00000  Uiso   1.00
H122   H     0.36250   0.15116   0.39345   0.00000  Uiso   1.00
H123   H     0.33448   0.14435   0.47484   0.00000  Uiso   1.00
H124   H     0.33505   0.20456   0.02751   0.00000  Uiso   1.00
H125   H     0.52019   0.15454   0.08311   0.00000  Uiso   1.00
H126   H     0.48374   0.19945   0.42020   0.00000  Uiso   1.00
H127   H     0.60850   0.29444   0.21890   0.00000  Uiso   1.00
H128   H     0.39176   0.03895   0.28065   0.00000  Uiso   1.00
H129   H     0.52782   0.12460   0.30462   0.00000  Uiso   1.00
H130   H     0.47219   0.20870   0.19534   0.00000  Uiso   1.00
H131   H     0.44072   0.12476   0.30469   0.00000  Uiso   1.00
H132   H     0.55929   0.20854   0.19528   0.00000  Uiso   1.00
N133   N     0.45069   0.16668   0.24999   0.00000  Uiso   1.00
N134   N     0.54931   0.16666   0.25001   0.00000  Uiso   1.00
O135   O     0.37291   0.10655   0.25000   0.00000  Uiso   1.00
O136   O     0.62709   0.22678   0.25000   0.00000  Uiso   1.00
O137   O     0.62706   0.10654   0.25001   0.00000  Uiso   1.00
O138   O     0.37294   0.22679   0.25000   0.00000  Uiso   1.00
O139   O     0.35186   0.16668   0.31492   0.00000  Uiso   1.00
O140   O     0.64814   0.16666   0.18509   0.00000  Uiso   1.00
O141   O     0.60600   0.16667   0.31492   0.00000  Uiso   1.00
O142   O     0.39400   0.16667   0.18508   0.00000  Uiso   1.00
C143   C     0.60040   0.04128   0.20725   0.00000  Uiso   1.00
C144   C     0.54989   0.03920   0.22608   0.00000  Uiso   1.00
C145   C     0.51827   0.06021   0.20587   0.00000  Uiso   1.00
C146   C     0.53685   0.08341   0.16679   0.00000  Uiso   1.00
C147   C     0.58707   0.08542   0.14769   0.00000  Uiso   1.00
C148   C     0.61881   0.06433   0.16769   0.00000  Uiso   1.00
H149   H     0.53518   0.02212   0.25690   0.00000  Uiso   1.00
H150   H     0.47939   0.05889   0.22077   0.00000  Uiso   1.00
H151   H     0.51234   0.09994   0.15143   0.00000  Uiso   1.00
H152   H     0.60144   0.10352   0.11753   0.00000  Uiso   1.00
H153   H     0.65767   0.06645   0.15284   0.00000  Uiso   1.00
C154   C     0.40066   0.29223   0.29147   0.00000  Uiso   1.00
C155   C     0.38320   0.26903   0.33106   0.00000  Uiso   1.00
C156   C     0.41572   0.24813   0.35031   0.00000  Uiso   1.00
C157   C     0.46577   0.25052   0.33042   0.00000  Uiso   1.00
C158   C     0.48340   0.27392   0.29135   0.00000  Uiso   1.00
C159   C     0.45101   0.29471   0.27189   0.00000  Uiso   1.00
H160   H     0.34447   0.26663   0.34652   0.00000  Uiso   1.00
H161   H     0.40209   0.22989   0.38046   0.00000  Uiso   1.00
H162   H     0.49090   0.23412   0.34514   0.00000  Uiso   1.00
H163   H     0.52215   0.27554   0.27587   0.00000  Uiso   1.00
H164   H     0.46500   0.31199   0.24107   0.00000  Uiso   1.00
C165   C     0.66699   0.08743   0.24880   0.00000  Uiso   1.00
C166   C     0.99971   0.24592   0.25111   0.00000  Uiso   1.00
C167   C     0.86182   0.15852   0.04734   0.00000  Uiso   1.00
C168   C     0.80775   0.19087   0.45507   0.00000  Uiso   1.00
C169   C     0.91046   0.15384   0.02480   0.00000  Uiso   1.00
C170   C     0.75926   0.19624   0.47773   0.00000  Uiso   1.00
C171   C     0.96729   0.02080   0.23004   0.00000  Uiso   1.00
C172   C     0.69970   0.31261   0.26946   0.00000  Uiso   1.00
C173   C     0.96681   0.31146   0.23301   0.00000  Uiso   1.00
C174   C     0.70004   0.02193   0.26663   0.00000  Uiso   1.00
C175   C     0.99956   0.29057   0.25206   0.00000  Uiso   1.00
C176   C     0.66724   0.04280   0.24767   0.00000  Uiso   1.00
C177   C     0.84941   0.14340   0.28040   0.00000  Uiso   1.00
C178   C     0.81727   0.18991   0.21957   0.00000  Uiso   1.00
C179   C     0.79977   0.14344   0.28042   0.00000  Uiso   1.00
C180   C     0.86691   0.18987   0.21956   0.00000  Uiso   1.00
C181   C     0.97279   0.16662   0.33609   0.00000  Uiso   1.00
C182   C     0.69387   0.16700   0.16394   0.00000  Uiso   1.00
C183   C     0.95792   0.16579   0.38520   0.00000  Uiso   1.00
C184   C     0.70890   0.17072   0.11503   0.00000  Uiso   1.00
C185   C     0.97516   0.15283   0.45636   0.00000  Uiso   1.00
C186   C     0.69365   0.19295   0.04539   0.00000  Uiso   1.00
C187   C     0.99117   0.15661   0.40997   0.00000  Uiso   1.00
C188   C     0.67670   0.18482   0.09110   0.00000  Uiso   1.00
C189   C     0.90901   0.17258   0.40729   0.00000  Uiso   1.00
C190   C     0.75764   0.16359   0.09275   0.00000  Uiso   1.00
C191   C     0.89203   0.16992   0.45420   0.00000  Uiso   1.00
C192   C     0.77616   0.17302   0.04699   0.00000  Uiso   1.00
C193   C     0.92594   0.15898   0.47857   0.00000  Uiso   1.00
C194   C     0.74296   0.18727   0.02323   0.00000  Uiso   1.00
C195   C     0.84222   0.17649   0.47731   0.00000  Uiso   1.00
C196   C     0.82651   0.16895   0.02437   0.00000  Uiso   1.00
Cu197  Cu    0.71355   0.16667   0.25000   0.00000  Uiso   1.00
Cu198  Cu    0.95311   0.16666   0.25000   0.00000  Uiso   1.00
H199   H     0.93611   0.14564   0.04376   0.00000  Uiso   1.00
H200   H     0.73425   0.20759   0.45942   0.00000  Uiso   1.00
H201   H     0.78031   0.15071   0.11221   0.00000  Uiso   1.00
H202   H     0.88463   0.17867   0.38683   0.00000  Uiso   1.00
H203   H     0.97218   0.19066   0.10787   0.00000  Uiso   1.00
H204   H     0.69584   0.15116   0.39345   0.00000  Uiso   1.00
H205   H     0.66781   0.14435   0.47484   0.00000  Uiso   1.00
H206   H     0.66839   0.20456   0.02751   0.00000  Uiso   1.00
H207   H     0.85353   0.15454   0.08311   0.00000  Uiso   1.00
H208   H     0.81707   0.19945   0.42020   0.00000  Uiso   1.00
H209   H     0.94184   0.29444   0.21890   0.00000  Uiso   1.00
H210   H     0.72510   0.03895   0.28065   0.00000  Uiso   1.00
H211   H     0.86115   0.12460   0.30462   0.00000  Uiso   1.00
H212   H     0.80553   0.20870   0.19534   0.00000  Uiso   1.00
H213   H     0.77405   0.12476   0.30469   0.00000  Uiso   1.00
H214   H     0.89262   0.20854   0.19528   0.00000  Uiso   1.00
N215   N     0.78403   0.16668   0.24999   0.00000  Uiso   1.00
N216   N     0.88264   0.16666   0.25001   0.00000  Uiso   1.00
O217   O     0.70625   0.10655   0.25000   0.00000  Uiso   1.00
O218   O     0.96042   0.22678   0.25000   0.00000  Uiso   1.00
O219   O     0.96039   0.10654   0.25001   0.00000  Uiso   1.00
O220   O     0.70628   0.22679   0.25000   0.00000  Uiso   1.00
O221   O     0.68519   0.16668   0.31492   0.00000  Uiso   1.00
O222   O     0.98148   0.16666   0.18509   0.00000  Uiso   1.00
O223   O     0.93933   0.16667   0.31492   0.00000  Uiso   1.00
O224   O     0.72733   0.16667   0.18508   0.00000  Uiso   1.00
C225   C     0.93373   0.04128   0.20725   0.00000  Uiso   1.00
C226   C     0.88323   0.03920   0.22608   0.00000  Uiso   1.00
C227   C     0.85161   0.06021   0.20587   0.00000  Uiso   1.00
C228   C     0.87018   0.08341   0.16679   0.00000  Uiso   1.00
C229   C     0.92040   0.08542   0.14769   0.00000  Uiso   1.00
C230   C     0.95214   0.06433   0.16769   0.00000  Uiso   1.00
H231   H     0.86852   0.02212   0.25690   0.00000  Uiso   1.00
H232   H     0.81273   0.05889   0.22077   0.00000  Uiso   1.00
H233   H     0.84567   0.09994   0.15143   0.00000  Uiso   1.00
H234   H     0.93477   0.10352   0.11753   0.00000  Uiso   1.00
H235   H     0.99101   0.06645   0.15284   0.00000  Uiso   1.00
C236   C     0.73400   0.29223   0.29147   0.00000  Uiso   1.00
C237   C     0.71653   0.26903   0.33106   0.00000  Uiso   1.00
C238   C     0.74905   0.24813   0.35031   0.00000  Uiso   1.00
C239   C     0.79910   0.25052   0.33042   0.00000  Uiso   1.00
C240   C     0.81673   0.27392   0.29135   0.00000  Uiso   1.00
C241   C     0.78434   0.29471   0.27189   0.00000  Uiso   1.00
H242   H     0.67780   0.26663   0.34652   0.00000  Uiso   1.00
H243   H     0.73542   0.22989   0.38046   0.00000  Uiso   1.00
H244   H     0.82423   0.23412   0.34514   0.00000  Uiso   1.00
H245   H     0.85548   0.27554   0.27587   0.00000  Uiso   1.00
H246   H     0.79833   0.31199   0.24107   0.00000  Uiso   1.00
C247   C     0.00032   0.42076   0.24880   0.00000  Uiso   1.00
C248   C     0.33305   0.57926   0.25111   0.00000  Uiso   1.00
C249   C     0.19515   0.49186   0.04734   0.00000  Uiso   1.00
C250   C     0.14109   0.52420   0.45507   0.00000  Uiso   1.00
C251   C     0.24380   0.48718   0.02480   0.00000  Uiso   1.00
C252   C     0.09259   0.52958   0.47773   0.00000  Uiso   1.00
C253   C     0.30063   0.35413   0.23004   0.00000  Uiso   1.00
C254   C     0.03303   0.64594   0.26946   0.00000  Uiso   1.00
C255   C     0.30014   0.64479   0.23301   0.00000  Uiso   1.00
C256   C     0.03337   0.35527   0.26663   0.00000  Uiso   1.00
C257   C     0.33290   0.62391   0.25206   0.00000  Uiso   1.00
C258   C     0.00057   0.37614   0.24767   0.00000  Uiso   1.00
C259   C     0.18274   0.47673   0.28040   0.00000  Uiso   1.00
C260   C     0.15060   0.52325   0.21957   0.00000  Uiso   1.00
C261   C     0.13310   0.47677   0.28042   0.00000  Uiso   1.00
C262   C     0.20024   0.52320   0.21956   0.00000  Uiso   1.00
C263   C     0.30612   0.49995   0.33609   0.00000  Uiso   1.00
C264   C     0.02720   0.50033   0.16394   0.00000  Uiso   1.00
C265   C     0.29125   0.49912   0.38520   0.00000  Uiso   1.00
C266   C     0.04224   0.50405   0.11503   0.00000  Uiso   1.00
C267   C     0.30849   0.48616   0.45636   0.00000  Uiso   1.00
C268   C     0.02698   0.52628   0.04539   0.00000  Uiso   1.00
C269   C     0.32450   0.48995   0.40997   0.00000  Uiso   1.00
C270   C     0.01003   0.51816   0.09110   0.00000  Uiso   1.00
C271   C     0.24234   0.50592   0.40729   0.00000  Uiso   1.00
C272   C     0.09097   0.49692   0.09275   0.00000  Uiso   1.00
C273   C     0.22536   0.50325   0.45420   0.00000  Uiso   1.00
C274   C     0.10949   0.50635   0.04699   0.00000  Uiso   1.00
C275   C     0.25928   0.49231   0.47857   0.00000  Uiso   1.00
C276   C     0.07629   0.52060   0.02323   0.00000  Uiso   1.00
C277   C     0.17555   0.50982   0.47731   0.00000  Uiso   1.00
C278   C     0.15985   0.50229   0.02437   0.00000  Uiso   1.00
Cu279  Cu    0.04689   0.50001   0.25000   0.00000  Uiso   1.00
Cu280  Cu    0.28645   0.49999   0.25000   0.00000  Uiso   1.00
H281   H     0.26945   0.47898   0.04376   0.00000  Uiso   1.00
H282   H     0.06758   0.54092   0.45942   0.00000  Uiso   1.00
H283   H     0.11364   0.48404   0.11221   0.00000  Uiso   1.00
H284   H     0.21797   0.51201   0.38683   0.00000  Uiso   1.00
H285   H     0.30551   0.52399   0.10787   0.00000  Uiso   1.00
H286   H     0.02917   0.48449   0.39345   0.00000  Uiso   1.00
H287   H     0.00115   0.47769   0.47484   0.00000  Uiso   1.00
H288   H     0.00172   0.53789   0.02751   0.00000  Uiso   1.00
H289   H     0.18686   0.48787   0.08311   0.00000  Uiso   1.00
H290   H     0.15040   0.53279   0.42020   0.00000  Uiso   1.00
H291   H     0.27517   0.62777   0.21890   0.00000  Uiso   1.00
H292   H     0.05843   0.37229   0.28065   0.00000  Uiso   1.00
H293   H     0.19448   0.45793   0.30462   0.00000  Uiso   1.00
H294   H     0.13886   0.54204   0.19534   0.00000  Uiso   1.00
H295   H     0.10739   0.45809   0.30469   0.00000  Uiso   1.00
H296   H     0.22595   0.54188   0.19528   0.00000  Uiso   1.00
N297   N     0.11736   0.50001   0.24999   0.00000  Uiso   1.00
N298   N     0.21597   0.49999   0.25001   0.00000  Uiso   1.00
O299   O     0.03958   0.43989   0.25000   0.00000  Uiso   1.00
O300   O     0.29375   0.56011   0.25000   0.00000  Uiso   1.00
O301   O     0.29372   0.43988   0.25001   0.00000  Uiso   1.00
O302   O     0.03961   0.56012   0.25000   0.00000  Uiso   1.00
O303   O     0.01852   0.50001   0.31492   0.00000  Uiso   1.00
O304   O     0.31481   0.49999   0.18509   0.00000  Uiso   1.00
O305   O     0.27267   0.50000   0.31492   0.00000  Uiso   1.00
O306   O     0.06067   0.50000   0.18508   0.00000  Uiso   1.00
C307   C     0.26706   0.37462   0.20725   0.00000  Uiso   1.00
C308   C     0.21656   0.37254   0.22608   0.00000  Uiso   1.00
C309   C     0.18494   0.39354   0.20587   0.00000  Uiso   1.00
C310   C     0.20352   0.41674   0.16679   0.00000  Uiso   1.00
C311   C     0.25374   0.41875   0.14769   0.00000  Uiso   1.00
C312   C     0.28547   0.39766   0.16769   0.00000  Uiso   1.00
H313   H     0.20185   0.35545   0.25690   0.00000  Uiso   1.00
H314   H     0.14606   0.39222   0.22077   0.00000  Uiso   1.00
H315   H     0.17901   0.43328   0.15143   0.00000  Uiso   1.00
H316   H     0.26810   0.43685   0.11753   0.00000  Uiso   1.00
H317   H     0.32434   0.39978   0.15284   0.00000  Uiso   1.00
C318   C     0.06733   0.62556   0.29147   0.00000  Uiso   1.00
C319   C     0.04986   0.60237   0.33106   0.00000  Uiso   1.00
C320   C     0.08238   0.58147   0.35031   0.00000  Uiso   1.00
C321   C     0.13243   0.58385   0.33042   0.00000  Uiso   1.00
C322   C     0.15007   0.60725   0.29135   0.00000  Uiso   1.00
C323   C     0.11768   0.62805   0.27189   0.00000  Uiso   1.00
H324   H     0.01113   0.59996   0.34652   0.00000  Uiso   1.00
H325   H     0.06875   0.56322   0.38046   0.00000  Uiso   1.00
H326   H     0.15757   0.56745   0.34514   0.00000  Uiso   1.00
H327   H     0.18881   0.60887   0.27587   0.00000  Uiso   1.00
H328   H     0.13166   0.64532   0.24107   0.00000  Uiso   1.00
C329   C     0.33366   0.42076   0.24880   0.00000  Uiso   1.00
C330   C     0.66638   0.57926   0.25111   0.00000  Uiso   1.00
C331   C     0.52849   0.49186   0.04734   0.00000  Uiso   1.00
C332   C     0.47442   0.52420   0.45507   0.00000  Uiso   1.00
C333   C     0.57713   0.48718   0.02480   0.00000  Uiso   1.00
C334   C     0.42592   0.52958   0.47773   0.00000  Uiso   1.00
C335   C     0.63396   0.35413   0.23004   0.00000  Uiso   1.00
C336   C     0.36636   0.64594   0.26946   0.00000  Uiso   1.00
C337   C     0.63348   0.64479   0.23301   0.00000  Uiso   1.00
C338   C     0.36671   0.35527   0.26663   0.00000  Uiso   1.00
C339   C     0.66623   0.62391   0.25206   0.00000  Uiso   1.00
C340   C     0.33390   0.37614   0.24767   0.00000  Uiso   1.00
C341   C     0.51607   0.47673   0.28040   0.00000  Uiso   1.00
C342   C     0.48393   0.52325   0.21957   0.00000  Uiso   1.00
C343   C     0.46643   0.47677   0.28042   0.00000  Uiso   1.00
C344   C     0.53357   0.52320   0.21956   0.00000  Uiso   1.00
C345   C     0.63946   0.49995   0.33609   0.00000  Uiso   1.00
C346   C     0.36054   0.50033   0.16394   0.00000  Uiso   1.00
C347   C     0.62459   0.49912   0.38520   0.00000  Uiso   1.00
C348   C     0.37557   0.50405   0.11503   0.00000  Uiso   1.00
C349   C     0.64182   0.48616   0.45636   0.00000  Uiso   1.00
C350   C     0.36032   0.52628   0.04539   0.00000  Uiso   1.00
C351   C     0.65784   0.48995   0.40997   0.00000  Uiso   1.00
C352   C     0.34336   0.51816   0.09110   0.00000  Uiso   1.00
C353   C     0.57567   0.50592   0.40729   0.00000  Uiso   1.00
C354   C     0.42431   0.49692   0.09275   0.00000  Uiso   1.00
C355   C     0.55869   0.50325   0.45420   0.00000  Uiso   1.00
C356   C     0.44283   0.50635   0.04699   0.00000  Uiso   1.00
C357   C     0.59261   0.49231   0.47857   0.00000  Uiso   1.00
C358   C     0.40963   0.52060   0.02323   0.00000  Uiso   1.00
C359   C     0.50888   0.50982   0.47731   0.00000  Uiso   1.00
C360   C     0.49318   0.50229   0.02437   0.00000  Uiso   1.00
Cu361  Cu    0.38022   0.50001   0.25000   0.00000  Uiso   1.00
Cu362  Cu    0.61978   0.49999   0.25000   0.00000  Uiso   1.00
H363   H     0.60278   0.47898   0.04376   0.00000  Uiso   1.00
H364   H     0.40091   0.54092   0.45942   0.00000  Uiso   1.00
H365   H     0.44698   0.48404   0.11221   0.00000  Uiso   1.00
H366   H     0.55130   0.51201   0.38683   0.00000  Uiso   1.00
H367   H     0.63884   0.52399   0.10787   0.00000  Uiso   1.00
H368   H     0.36250   0.48449   0.39345   0.00000  Uiso   1.00
H369   H     0.33448   0.47769   0.47484   0.00000  Uiso   1.00
H370   H     0.33505   0.53789   0.02751   0.00000  Uiso   1.00
H371   H     0.52019   0.48787   0.08311   0.00000  Uiso   1.00
H372   H     0.48374   0.53279   0.42020   0.00000  Uiso   1.00
H373   H     0.60850   0.62777   0.21890   0.00000  Uiso   1.00
H374   H     0.39176   0.37229   0.28065   0.00000  Uiso   1.00
H375   H     0.52782   0.45793   0.30462   0.00000  Uiso   1.00
H376   H     0.47219   0.54204   0.19534   0.00000  Uiso   1.00
H377   H     0.44072   0.45809   0.30469   0.00000  Uiso   1.00
H378   H     0.55929   0.54188   0.19528   0.00000  Uiso   1.00
N379   N     0.45069   0.50001   0.24999   0.00000  Uiso   1.00
N380   N     0.54931   0.49999   0.25001   0.00000  Uiso   1.00
O381   O     0.37291   0.43989   0.25000   0.00000  Uiso   1.00
O382   O     0.62709   0.56011   0.25000   0.00000  Uiso   1.00
O383   O     0.62706   0.43988   0.25001   0.00000  Uiso   1.00
O384   O     0.37294   0.56012   0.25000   0.00000  Uiso   1.00
O385   O     0.35186   0.50001   0.31492   0.00000  Uiso   1.00
O386   O     0.64814   0.49999   0.18509   0.00000  Uiso   1.00
O387   O     0.60600   0.50000   0.31492   0.00000  Uiso   1.00
O388   O     0.39400   0.50000   0.18508   0.00000  Uiso   1.00
C389   C     0.60040   0.37462   0.20725   0.00000  Uiso   1.00
C390   C     0.54989   0.37254   0.22608   0.00000  Uiso   1.00
C391   C     0.51827   0.39354   0.20587   0.00000  Uiso   1.00
C392   C     0.53685   0.41674   0.16679   0.00000  Uiso   1.00
C393   C     0.58707   0.41875   0.14769   0.00000  Uiso   1.00
C394   C     0.61881   0.39766   0.16769   0.00000  Uiso   1.00
H395   H     0.53518   0.35545   0.25690   0.00000  Uiso   1.00
H396   H     0.47939   0.39222   0.22077   0.00000  Uiso   1.00
H397   H     0.51234   0.43328   0.15143   0.00000  Uiso   1.00
H398   H     0.60144   0.43685   0.11753   0.00000  Uiso   1.00
H399   H     0.65767   0.39978   0.15284   0.00000  Uiso   1.00
C400   C     0.40066   0.62556   0.29147   0.00000  Uiso   1.00
C401   C     0.38320   0.60237   0.33106   0.00000  Uiso   1.00
C402   C     0.41572   0.58147   0.35031   0.00000  Uiso   1.00
C403   C     0.46577   0.58385   0.33042   0.00000  Uiso   1.00
C404   C     0.48340   0.60725   0.29135   0.00000  Uiso   1.00
C405   C     0.45101   0.62805   0.27189   0.00000  Uiso   1.00
H406   H     0.34447   0.59996   0.34652   0.00000  Uiso   1.00
H407   H     0.40209   0.56322   0.38046   0.00000  Uiso   1.00
H408   H     0.49090   0.56745   0.34514   0.00000  Uiso   1.00
H409   H     0.52215   0.60887   0.27587   0.00000  Uiso   1.00
H410   H     0.46500   0.64532   0.24107   0.00000  Uiso   1.00
C411   C     0.66699   0.42076   0.24880   0.00000  Uiso   1.00
C412   C     0.99971   0.57926   0.25111   0.00000  Uiso   1.00
C413   C     0.86182   0.49186   0.04734   0.00000  Uiso   1.00
C414   C     0.80775   0.52420   0.45507   0.00000  Uiso   1.00
C415   C     0.91046   0.48718   0.02480   0.00000  Uiso   1.00
C416   C     0.75926   0.52958   0.47773   0.00000  Uiso   1.00
C417   C     0.96729   0.35413   0.23004   0.00000  Uiso   1.00
C418   C     0.69970   0.64594   0.26946   0.00000  Uiso   1.00
C419   C     0.96681   0.64479   0.23301   0.00000  Uiso   1.00
C420   C     0.70004   0.35527   0.26663   0.00000  Uiso   1.00
C421   C     0.99956   0.62391   0.25206   0.00000  Uiso   1.00
C422   C     0.66724   0.37614   0.24767   0.00000  Uiso   1.00
C423   C     0.84941   0.47673   0.28040   0.00000  Uiso   1.00
C424   C     0.81727   0.52325   0.21957   0.00000  Uiso   1.00
C425   C     0.79977   0.47677   0.28042   0.00000  Uiso   1.00
C426   C     0.86691   0.52320   0.21956   0.00000  Uiso   1.00
C427   C     0.97279   0.49995   0.33609   0.00000  Uiso   1.00
C428   C     0.69387   0.50033   0.16394   0.00000  Uiso   1.00
C429   C     0.95792   0.49912   0.38520   0.00000  Uiso   1.00
C430   C     0.70890   0.50405   0.11503   0.00000  Uiso   1.00
C431   C     0.97516   0.48616   0.45636   0.00000  Uiso   1.00
C432   C     0.69365   0.52628   0.04539   0.00000  Uiso   1.00
C433   C     0.99117   0.48995   0.40997   0.00000  Uiso   1.00
C434   C     0.67670   0.51816   0.09110   0.00000  Uiso   1.00
C435   C     0.90901   0.50592   0.40729   0.00000  Uiso   1.00
C436   C     0.75764   0.49692   0.09275   0.00000  Uiso   1.00
C437   C     0.89203   0.50325   0.45420   0.00000  Uiso   1.00
C438   C     0.77616   0.50635   0.04699   0.00000  Uiso   1.00
C439   C     0.92594   0.49231   0.47857   0.00000  Uiso   1.00
C440   C     0.74296   0.52060   0.02323   0.00000  Uiso   1.00
C441   C     0.84222   0.50982   0.47731   0.00000  Uiso   1.00
C442   C     0.82651   0.50229   0.02437   0.00000  Uiso   1.00
Cu443  Cu    0.71355   0.50001   0.25000   0.00000  Uiso   1.00
Cu444  Cu    0.95311   0.49999   0.25000   0.00000  Uiso   1.00
H445   H     0.93611   0.47898   0.04376   0.00000  Uiso   1.00
H446   H     0.73425   0.54092   0.45942   0.00000  Uiso   1.00
H447   H     0.78031   0.48404   0.11221   0.00000  Uiso   1.00
H448   H     0.88463   0.51201   0.38683   0.00000  Uiso   1.00
H449   H     0.97218   0.52399   0.10787   0.00000  Uiso   1.00
H450   H     0.69584   0.48449   0.39345   0.00000  Uiso   1.00
H451   H     0.66781   0.47769   0.47484   0.00000  Uiso   1.00
H452   H     0.66839   0.53789   0.02751   0.00000  Uiso   1.00
H453   H     0.85353   0.48787   0.08311   0.00000  Uiso   1.00
H454   H     0.81707   0.53279   0.42020   0.00000  Uiso   1.00
H455   H     0.94184   0.62777   0.21890   0.00000  Uiso   1.00
H456   H     0.72510   0.37229   0.28065   0.00000  Uiso   1.00
H457   H     0.86115   0.45793   0.30462   0.00000  Uiso   1.00
H458   H     0.80553   0.54204   0.19534   0.00000  Uiso   1.00
H459   H     0.77405   0.45809   0.30469   0.00000  Uiso   1.00
H460   H     0.89262   0.54188   0.19528   0.00000  Uiso   1.00
N461   N     0.78403   0.50001   0.24999   0.00000  Uiso   1.00
N462   N     0.88264   0.49999   0.25001   0.00000  Uiso   1.00
O463   O     0.70625   0.43989   0.25000   0.00000  Uiso   1.00
O464   O     0.96042   0.56011   0.25000   0.00000  Uiso   1.00
O465   O     0.96039   0.43988   0.25001   0.00000  Uiso   1.00
O466   O     0.70628   0.56012   0.25000   0.00000  Uiso   1.00
O467   O     0.68519   0.50001   0.31492   0.00000  Uiso   1.00
O468   O     0.98148   0.49999   0.18509   0.00000  Uiso   1.00
O469   O     0.93933   0.50000   0.31492   0.00000  Uiso   1.00
O470   O     0.72733   0.50000   0.18508   0.00000  Uiso   1.00
C471   C     0.93373   0.37462   0.20725   0.00000  Uiso   1.00
C472   C     0.88323   0.37254   0.22608   0.00000  Uiso   1.00
C473   C     0.85161   0.39354   0.20587   0.00000  Uiso   1.00
C474   C     0.87018   0.41674   0.16679   0.00000  Uiso   1.00
C475   C     0.92040   0.41875   0.14769   0.00000  Uiso   1.00
C476   C     0.95214   0.39766   0.16769   0.00000  Uiso   1.00
H477   H     0.86852   0.35545   0.25690   0.00000  Uiso   1.00
H478   H     0.81273   0.39222   0.22077   0.00000  Uiso   1.00
H479   H     0.84567   0.43328   0.15143   0.00000  Uiso   1.00
H480   H     0.93477   0.43685   0.11753   0.00000  Uiso   1.00
H481   H     0.99101   0.39978   0.15284   0.00000  Uiso   1.00
C482   C     0.73400   0.62556   0.29147   0.00000  Uiso   1.00
C483   C     0.71653   0.60237   0.33106   0.00000  Uiso   1.00
C484   C     0.74905   0.58147   0.35031   0.00000  Uiso   1.00
C485   C     0.79910   0.58385   0.33042   0.00000  Uiso   1.00
C486   C     0.81673   0.60725   0.29135   0.00000  Uiso   1.00
C487   C     0.78434   0.62805   0.27189   0.00000  Uiso   1.00
H488   H     0.67780   0.59996   0.34652   0.00000  Uiso   1.00
H489   H     0.73542   0.56322   0.38046   0.00000  Uiso   1.00
H490   H     0.82423   0.56745   0.34514   0.00000  Uiso   1.00
H491   H     0.85548   0.60887   0.27587   0.00000  Uiso   1.00
H492   H     0.79833   0.64532   0.24107   0.00000  Uiso   1.00
C493   C     0.00032   0.75409   0.24880   0.00000  Uiso   1.00
C494   C     0.33305   0.91259   0.25111   0.00000  Uiso   1.00
C495   C     0.19515   0.82519   0.04734   0.00000  Uiso   1.00
C496   C     0.14109   0.85753   0.45507   0.00000  Uiso   1.00
C497   C     0.24380   0.82051   0.02480   0.00000  Uiso   1.00
C498   C     0.09259   0.86291   0.47773   0.00000  Uiso   1.00
C499   C     0.30063   0.68746   0.23004   0.00000  Uiso   1.00
C500   C     0.03303   0.97928   0.26946   0.00000  Uiso   1.00
C501   C     0.30014   0.97812   0.23301   0.00000  Uiso   1.00
C502   C     0.03337   0.68860   0.26663   0.00000  Uiso   1.00
C503   C     0.33290   0.95724   0.25206   0.00000  Uiso   1.00
C504   C     0.00057   0.70947   0.24767   0.00000  Uiso   1.00
C505   C     0.18274   0.81006   0.28040   0.00000  Uiso   1.00
C506   C     0.15060   0.85658   0.21957   0.00000  Uiso   1.00
C507   C     0.13310   0.81011   0.28042   0.00000  Uiso   1.00
C508   C     0.20024   0.85654   0.21956   0.00000  Uiso   1.00
C509   C     0.30612   0.83328   0.33609   0.00000  Uiso   1.00
C510   C     0.02720   0.83366   0.16394   0.00000  Uiso   1.00
C511   C     0.29125   0.83245   0.38520   0.00000  Uiso   1.00
C512   C     0.04224   0.83739   0.11503   0.00000  Uiso   1.00
C513   C     0.30849   0.81949   0.45636   0.00000  Uiso   1.00
C514   C     0.02698   0.85961   0.04539   0.00000  Uiso   1.00
C515   C     0.32450   0.82328   0.40997   0.00000  Uiso   1.00
C516   C     0.01003   0.85149   0.09110   0.00000  Uiso   1.00
C517   C     0.24234   0.83925   0.40729   0.00000  Uiso   1.00
C518   C     0.09097   0.83025   0.09275   0.00000  Uiso   1.00
C519   C     0.22536   0.83658   0.45420   0.00000  Uiso   1.00
C520   C     0.10949   0.83968   0.04699   0.00000  Uiso   1.00
C521   C     0.25928   0.82564   0.47857   0.00000  Uiso   1.00
C522   C     0.07629   0.85393   0.02323   0.00000  Uiso   1.00
C523   C     0.17555   0.84315   0.47731   0.00000  Uiso   1.00
C524   C     0.15985   0.83562   0.02437   0.00000  Uiso   1.00
Cu525  Cu    0.04689   0.83334   0.25000   0.00000  Uiso   1.00
Cu526  Cu    0.28645   0.83333   0.25000   0.00000  Uiso   1.00
H527   H     0.26945   0.81231   0.04376   0.00000  Uiso   1.00
H528   H     0.06758   0.87425   0.45942   0.00000  Uiso   1.00
H529   H     0.11364   0.81737   0.11221   0.00000  Uiso   1.00
H530   H     0.21797   0.84534   0.38683   0.00000  Uiso   1.00
H531   H     0.30551   0.85733   0.10787   0.00000  Uiso   1.00
H532   H     0.02917   0.81782   0.39345   0.00000  Uiso   1.00
H533   H     0.00115   0.81102   0.47484   0.00000  Uiso   1.00
H534   H     0.00172   0.87122   0.02751   0.00000  Uiso   1.00
H535   H     0.18686   0.82121   0.08311   0.00000  Uiso   1.00
H536   H     0.15040   0.86612   0.42020   0.00000  Uiso   1.00
H537   H     0.27517   0.96110   0.21890   0.00000  Uiso   1.00
H538   H     0.05843   0.70562   0.28065   0.00000  Uiso   1.00
H539   H     0.19448   0.79126   0.30462   0.00000  Uiso   1.00
H540   H     0.13886   0.87537   0.19534   0.00000  Uiso   1.00
H541   H     0.10739   0.79143   0.30469   0.00000  Uiso   1.00
H542   H     0.22595   0.87521   0.19528   0.00000  Uiso   1.00
N543   N     0.11736   0.83334   0.24999   0.00000  Uiso   1.00
N544   N     0.21597   0.83332   0.25001   0.00000  Uiso   1.00
O545   O     0.03958   0.77322   0.25000   0.00000  Uiso   1.00
O546   O     0.29375   0.89345   0.25000   0.00000  Uiso   1.00
O547   O     0.29372   0.77321   0.25001   0.00000  Uiso   1.00
O548   O     0.03961   0.89346   0.25000   0.00000  Uiso   1.00
O549   O     0.01852   0.83334   0.31492   0.00000  Uiso   1.00
O550   O     0.31481   0.83332   0.18509   0.00000  Uiso   1.00
O551   O     0.27267   0.83333   0.31492   0.00000  Uiso   1.00
O552   O     0.06067   0.83333   0.18508   0.00000  Uiso   1.00
C553   C     0.26706   0.70795   0.20725   0.00000  Uiso   1.00
C554   C     0.21656   0.70587   0.22608   0.00000  Uiso   1.00
C555   C     0.18494   0.72688   0.20587   0.00000  Uiso   1.00
C556   C     0.20352   0.75008   0.16679   0.00000  Uiso   1.00
C557   C     0.25374   0.75209   0.14769   0.00000  Uiso   1.00
C558   C     0.28547   0.73100   0.16769   0.00000  Uiso   1.00
H559   H     0.20185   0.68878   0.25690   0.00000  Uiso   1.00
H560   H     0.14606   0.72556   0.22077   0.00000  Uiso   1.00
H561   H     0.17901   0.76661   0.15143   0.00000  Uiso   1.00
H562   H     0.26810   0.77019   0.11753   0.00000  Uiso   1.00
H563   H     0.32434   0.73312   0.15284   0.00000  Uiso   1.00
C564   C     0.06733   0.95890   0.29147   0.00000  Uiso   1.00
C565   C     0.04986   0.93570   0.33106   0.00000  Uiso   1.00
C566   C     0.08238   0.91480   0.35031   0.00000  Uiso   1.00
C567   C     0.13243   0.91719   0.33042   0.00000  Uiso   1.00
C568   C     0.15007   0.94059   0.29135   0.00000  Uiso   1.00
C569   C     0.11768   0.96138   0.27189   0.00000  Uiso   1.00
H570   H     0.01113   0.93330   0.34652   0.00000  Uiso   1.00
H571   H     0.06875   0.89655   0.38046   0.00000  Uiso   1.00
H572   H     0.15757   0.90079   0.34514   0.00000  Uiso   1.00
H573   H     0.18881   0.94220   0.27587   0.00000  Uiso   1.00
H574   H     0.13166   0.97865   0.24107   0.00000  Uiso   1.00
C575   C     0.33366   0.75409   0.24880   0.00000  Uiso   1.00
C576   C     0.66638   0.91259   0.25111   0.00000  Uiso   1.00
C577   C     0.52849   0.82519   0.04734   0.00000  Uiso   1.00
C578   C     0.47442   0.85753   0.45507   0.00000  Uiso   1.00
C579   C     0.57713   0.82051   0.02480   0.00000  Uiso   1.00
C580   C     0.42592   0.86291   0.47773   0.00000  Uiso   1.00
C581   C     0.63396   0.68746   0.23004   0.00000  Uiso   1.00
C582   C     0.36636   0.97928   0.26946   0.00000  Uiso   1.00
C583   C     0.63348   0.97812   0.23301   0.00000  Uiso   1.00
C584   C     0.36671   0.68860   0.26663   0.00000  Uiso   1.00
C585   C     0.66623   0.95724   0.25206   0.00000  Uiso   1.00
C586   C     0.33390   0.70947   0.24767   0.00000  Uiso   1.00
C587   C     0.51607   0.81006   0.28040   0.00000  Uiso   1.00
C588   C     0.48393   0.85658   0.21957   0.00000  Uiso   1.00
C589   C     0.46643   0.81011   0.28042   0.00000  Uiso   1.00
C590   C     0.53357   0.85654   0.21956   0.00000  Uiso   1.00
C591   C     0.63946   0.83328   0.33609   0.00000  Uiso   1.00
C592   C     0.36054   0.83366   0.16394   0.00000  Uiso   1.00
C593   C     0.62459   0.83245   0.38520   0.00000  Uiso   1.00
C594   C     0.37557   0.83739   0.11503   0.00000  Uiso   1.00
C595   C     0.64182   0.81949   0.45636   0.00000  Uiso   1.00
C596   C     0.36032   0.85961   0.04539   0.00000  Uiso   1.00
C597   C     0.65784   0.82328   0.40997   0.00000  Uiso   1.00
C598   C     0.34336   0.85149   0.09110   0.00000  Uiso   1.00
C599   C     0.57567   0.83925   0.40729   0.00000  Uiso   1.00
C600   C     0.42431   0.83025   0.09275   0.00000  Uiso   1.00
C601   C     0.55869   0.83658   0.45420   0.00000  Uiso   1.00
C602   C     0.44283   0.83968   0.04699   0.00000  Uiso   1.00
C603   C     0.59261   0.82564   0.47857   0.00000  Uiso   1.00
C604   C     0.40963   0.85393   0.02323   0.00000  Uiso   1.00
C605   C     0.50888   0.84315   0.47731   0.00000  Uiso   1.00
C606   C     0.49318   0.83562   0.02437   0.00000  Uiso   1.00
Cu607  Cu    0.38022   0.83334   0.25000   0.00000  Uiso   1.00
Cu608  Cu    0.61978   0.83333   0.25000   0.00000  Uiso   1.00
H609   H     0.60278   0.81231   0.04376   0.00000  Uiso   1.00
H610   H     0.40091   0.87425   0.45942   0.00000  Uiso   1.00
H611   H     0.44698   0.81737   0.11221   0.00000  Uiso   1.00
H612   H     0.55130   0.84534   0.38683   0.00000  Uiso   1.00
H613   H     0.63884   0.85733   0.10787   0.00000  Uiso   1.00
H614   H     0.36250   0.81782   0.39345   0.00000  Uiso   1.00
H615   H     0.33448   0.81102   0.47484   0.00000  Uiso   1.00
H616   H     0.33505   0.87122   0.02751   0.00000  Uiso   1.00
H617   H     0.52019   0.82121   0.08311   0.00000  Uiso   1.00
H618   H     0.48374   0.86612   0.42020   0.00000  Uiso   1.00
H619   H     0.60850   0.96110   0.21890   0.00000  Uiso   1.00
H620   H     0.39176   0.70562   0.28065   0.00000  Uiso   1.00
H621   H     0.52782   0.79126   0.30462   0.00000  Uiso   1.00
H622   H     0.47219   0.87537   0.19534   0.00000  Uiso   1.00
H623   H     0.44072   0.79143   0.30469   0.00000  Uiso   1.00
H624   H     0.55929   0.87521   0.19528   0.00000  Uiso   1.00
N625   N     0.45069   0.83334   0.24999   0.00000  Uiso   1.00
N626   N     0.54931   0.83332   0.25001   0.00000  Uiso   1.00
O627   O     0.37291   0.77322   0.25000   0.00000  Uiso   1.00
O628   O     0.62709   0.89345   0.25000   0.00000  Uiso   1.00
O629   O     0.62706   0.77321   0.25001   0.00000  Uiso   1.00
O630   O     0.37294   0.89346   0.25000   0.00000  Uiso   1.00
O631   O     0.35186   0.83334   0.31492   0.00000  Uiso   1.00
O632   O     0.64814   0.83332   0.18509   0.00000  Uiso   1.00
O633   O     0.60600   0.83333   0.31492   0.00000  Uiso   1.00
O634   O     0.39400   0.83333   0.18508   0.00000  Uiso   1.00
C635   C     0.60040   0.70795   0.20725   0.00000  Uiso   1.00
C636   C     0.54989   0.70587   0.22608   0.00000  Uiso   1.00
C637   C     0.51827   0.72688   0.20587   0.00000  Uiso   1.00
C638   C     0.53685   0.75008   0.16679   0.00000  Uiso   1.00
C639   C     0.58707   0.75209   0.14769   0.00000  Uiso   1.00
C640   C     0.61881   0.73100   0.16769   0.00000  Uiso   1.00
H641   H     0.53518   0.68878   0.25690   0.00000  Uiso   1.00
H642   H     0.47939   0.72556   0.22077   0.00000  Uiso   1.00
H643   H     0.51234   0.76661   0.15143   0.00000  Uiso   1.00
H644   H     0.60144   0.77019   0.11753   0.00000  Uiso   1.00
H645   H     0.65767   0.73312   0.15284   0.00000  Uiso   1.00
C646   C     0.40066   0.95890   0.29147   0.00000  Uiso   1.00
C647   C     0.38320   0.93570   0.33106   0.00000  Uiso   1.00
C648   C     0.41572   0.91480   0.35031   0.00000  Uiso   1.00
C649   C     0.46577   0.91719   0.33042   0.00000  Uiso   1.00
C650   C     0.48340   0.94059   0.29135   0.00000  Uiso   1.00
C651   C     0.45101   0.96138   0.27189   0.00000  Uiso   1.00
H652   H     0.34447   0.93330   0.34652   0.00000  Uiso   1.00
H653   H     0.40209   0.89655   0.38046   0.00000  Uiso   1.00
H654   H     0.49090   0.90079   0.34514   0.00000  Uiso   1.00
H655   H     0.52215   0.94220   0.27587   0.00000  Uiso   1.00
H656   H     0.46500   0.97865   0.24107   0.00000  Uiso   1.00
C657   C     0.66699   0.75409   0.24880   0.00000  Uiso   1.00
C658   C     0.99971   0.91259   0.25111   0.00000  Uiso   1.00
C659   C     0.86182   0.82519   0.04734   0.00000  Uiso   1.00
C660   C     0.80775   0.85753   0.45507   0.00000  Uiso   1.00
C661   C     0.91046   0.82051   0.02480   0.00000  Uiso   1.00
C662   C     0.75926   0.86291   0.47773   0.00000  Uiso   1.00
C663   C     0.96729   0.68746   0.23004   0.00000  Uiso   1.00
C664   C     0.69970   0.97928   0.26946   0.00000  Uiso   1.00
C665   C     0.96681   0.97812   0.23301   0.00000  Uiso   1.00
C666   C     0.70004   0.68860   0.26663   0.00000  Uiso   1.00
C667   C     0.99956   0.95724   0.25206   0.00000  Uiso   1.00
C668   C     0.66724   0.70947   0.24767   0.00000  Uiso   1.00
C669   C     0.84941   0.81006   0.28040   0.00000  Uiso   1.00
C670   C     0.81727   0.85658   0.21957   0.00000  Uiso   1.00
C671   C     0.79977   0.81011   0.28042   0.00000  Uiso   1.00
C672   C     0.86691   0.85654   0.21956   0.00000  Uiso   1.00
C673   C     0.97279   0.83328   0.33609   0.00000  Uiso   1.00
C674   C     0.69387   0.83366   0.16394   0.00000  Uiso   1.00
C675   C     0.95792   0.83245   0.38520   0.00000  Uiso   1.00
C676   C     0.70890   0.83739   0.11503   0.00000  Uiso   1.00
C677   C     0.97516   0.81949   0.45636   0.00000  Uiso   1.00
C678   C     0.69365   0.85961   0.04539   0.00000  Uiso   1.00
C679   C     0.99117   0.82328   0.40997   0.00000  Uiso   1.00
C680   C     0.67670   0.85149   0.09110   0.00000  Uiso   1.00
C681   C     0.90901   0.83925   0.40729   0.00000  Uiso   1.00
C682   C     0.75764   0.83025   0.09275   0.00000  Uiso   1.00
C683   C     0.89203   0.83658   0.45420   0.00000  Uiso   1.00
C684   C     0.77616   0.83968   0.04699   0.00000  Uiso   1.00
C685   C     0.92594   0.82564   0.47857   0.00000  Uiso   1.00
C686   C     0.74296   0.85393   0.02323   0.00000  Uiso   1.00
C687   C     0.84222   0.84315   0.47731   0.00000  Uiso   1.00
C688   C     0.82651   0.83562   0.02437   0.00000  Uiso   1.00
Cu689  Cu    0.71355   0.83334   0.25000   0.00000  Uiso   1.00
Cu690  Cu    0.95311   0.83333   0.25000   0.00000  Uiso   1.00
H691   H     0.93611   0.81231   0.04376   0.00000  Uiso   1.00
H692   H     0.73425   0.87425   0.45942   0.00000  Uiso   1.00
H693   H     0.78031   0.81737   0.11221   0.00000  Uiso   1.00
H694   H     0.88463   0.84534   0.38683   0.00000  Uiso   1.00
H695   H     0.97218   0.85733   0.10787   0.00000  Uiso   1.00
H696   H     0.69584   0.81782   0.39345   0.00000  Uiso   1.00
H697   H     0.66781   0.81102   0.47484   0.00000  Uiso   1.00
H698   H     0.66839   0.87122   0.02751   0.00000  Uiso   1.00
H699   H     0.85353   0.82121   0.08311   0.00000  Uiso   1.00
H700   H     0.81707   0.86612   0.42020   0.00000  Uiso   1.00
H701   H     0.94184   0.96110   0.21890   0.00000  Uiso   1.00
H702   H     0.72510   0.70562   0.28065   0.00000  Uiso   1.00
H703   H     0.86115   0.79126   0.30462   0.00000  Uiso   1.00
H704   H     0.80553   0.87537   0.19534   0.00000  Uiso   1.00
H705   H     0.77405   0.79143   0.30469   0.00000  Uiso   1.00
H706   H     0.89262   0.87521   0.19528   0.00000  Uiso   1.00
N707   N     0.78403   0.83334   0.24999   0.00000  Uiso   1.00
N708   N     0.88264   0.83332   0.25001   0.00000  Uiso   1.00
O709   O     0.70625   0.77322   0.25000   0.00000  Uiso   1.00
O710   O     0.96042   0.89345   0.25000   0.00000  Uiso   1.00
O711   O     0.96039   0.77321   0.25001   0.00000  Uiso   1.00
O712   O     0.70628   0.89346   0.25000   0.00000  Uiso   1.00
O713   O     0.68519   0.83334   0.31492   0.00000  Uiso   1.00
O714   O     0.98148   0.83332   0.18509   0.00000  Uiso   1.00
O715   O     0.93933   0.83333   0.31492   0.00000  Uiso   1.00
O716   O     0.72733   0.83333   0.18508   0.00000  Uiso   1.00
C717   C     0.93373   0.70795   0.20725   0.00000  Uiso   1.00
C718   C     0.88323   0.70587   0.22608   0.00000  Uiso   1.00
C719   C     0.85161   0.72688   0.20587   0.00000  Uiso   1.00
C720   C     0.87018   0.75008   0.16679   0.00000  Uiso   1.00
C721   C     0.92040   0.75209   0.14769   0.00000  Uiso   1.00
C722   C     0.95214   0.73100   0.16769   0.00000  Uiso   1.00
H723   H     0.86852   0.68878   0.25690   0.00000  Uiso   1.00
H724   H     0.81273   0.72556   0.22077   0.00000  Uiso   1.00
H725   H     0.84567   0.76661   0.15143   0.00000  Uiso   1.00
H726   H     0.93477   0.77019   0.11753   0.00000  Uiso   1.00
H727   H     0.99101   0.73312   0.15284   0.00000  Uiso   1.00
C728   C     0.73400   0.95890   0.29147   0.00000  Uiso   1.00
C729   C     0.71653   0.93570   0.33106   0.00000  Uiso   1.00
C730   C     0.74905   0.91480   0.35031   0.00000  Uiso   1.00
C731   C     0.79910   0.91719   0.33042   0.00000  Uiso   1.00
C732   C     0.81673   0.94059   0.29135   0.00000  Uiso   1.00
C733   C     0.78434   0.96138   0.27189   0.00000  Uiso   1.00
H734   H     0.67780   0.93330   0.34652   0.00000  Uiso   1.00
H735   H     0.73542   0.89655   0.38046   0.00000  Uiso   1.00
H736   H     0.82423   0.90079   0.34514   0.00000  Uiso   1.00
H737   H     0.85548   0.94220   0.27587   0.00000  Uiso   1.00
H738   H     0.79833   0.97865   0.24107   0.00000  Uiso   1.00
C739   C     0.00032   0.08743   0.74880   0.00000  Uiso   1.00
C740   C     0.33305   0.24592   0.75111   0.00000  Uiso   1.00
C741   C     0.19515   0.15852   0.54734   0.00000  Uiso   1.00
C742   C     0.14109   0.19087   0.95507   0.00000  Uiso   1.00
C743   C     0.24380   0.15384   0.52480   0.00000  Uiso   1.00
C744   C     0.09259   0.19624   0.97773   0.00000  Uiso   1.00
C745   C     0.30063   0.02080   0.73004   0.00000  Uiso   1.00
C746   C     0.03303   0.31261   0.76946   0.00000  Uiso   1.00
C747   C     0.30014   0.31146   0.73301   0.00000  Uiso   1.00
C748   C     0.03337   0.02193   0.76663   0.00000  Uiso   1.00
C749   C     0.33290   0.29057   0.75206   0.00000  Uiso   1.00
C750   C     0.00057   0.04280   0.74767   0.00000  Uiso   1.00
C751   C     0.18274   0.14340   0.78040   0.00000  Uiso   1.00
C752   C     0.15060   0.18991   0.71957   0.00000  Uiso   1.00
C753   C     0.13310   0.14344   0.78042   0.00000  Uiso   1.00
C754   C     0.20024   0.18987   0.71956   0.00000  Uiso   1.00
C755   C     0.30612   0.16662   0.83609   0.00000  Uiso   1.00
C756   C     0.02720   0.16700   0.66394   0.00000  Uiso   1.00
C757   C     0.29125   0.16579   0.88520   0.00000  Uiso   1.00
C758   C     0.04224   0.17072   0.61503   0.00000  Uiso   1.00
C759   C     0.30849   0.15283   0.95636   0.00000  Uiso   1.00
C760   C     0.02698   0.19295   0.54539   0.00000  Uiso   1.00
C761   C     0.32450   0.15661   0.90997   0.00000  Uiso   1.00
C762   C     0.01003   0.18482   0.59110   0.00000  Uiso   1.00
C763   C     0.24234   0.17258   0.90729   0.00000  Uiso   1.00
C764   C     0.09097   0.16359   0.59275   0.00000  Uiso   1.00
C765   C     0.22536   0.16992   0.95420   0.00000  Uiso   1.00
C766   C     0.10949   0.17302   0.54699   0.00000  Uiso   1.00
C767   C     0.25928   0.15898   0.97857   0.00000  Uiso   1.00
C768   C     0.07629   0.18727   0.52323   0.00000  Uiso   1.00
C769   C     0.17555   0.17649   0.97731   0.00000  Uiso   1.00
C770   C     0.15985   0.16895   0.52437   0.00000  Uiso   1.00
Cu771  Cu    0.04689   0.16667   0.75000   0.00000  Uiso   1.00
Cu772  Cu    0.28645   0.16666   0.75000   0.00000  Uiso   1.00
H773   H     0.26945   0.14564   0.54376   0.00000  Uiso   1.00
H774   H     0.06758   0.20759   0.95942   0.00000  Uiso   1.00
H775   H     0.11364   0.15071   0.61221   0.00000  Uiso   1.00
H776   H     0.21797   0.17867   0.88683   0.00000  Uiso   1.00
H777   H     0.30551   0.19066   0.60787   0.00000  Uiso   1.00
H778   H     0.02917   0.15116   0.89345   0.00000  Uiso   1.00
H779   H     0.00115   0.14435   0.97484   0.00000  Uiso   1.00
H780   H     0.00172   0.20456   0.52751   0.00000  Uiso   1.00
H781   H     0.18686   0.15454   0.58311   0.00000  Uiso   1.00
H782   H     0.15040   0.19945   0.92020   0.00000  Uiso   1.00
H783   H     0.27517   0.29444   0.71890   0.00000  Uiso   1.00
H784   H     0.05843   0.03895   0.78065   0.00000  Uiso   1.00
H785   H     0.19448   0.12460   0.80462   0.00000  Uiso   1.00
H786   H     0.13886   0.20870   0.69534   0.00000  Uiso   1.00
H787   H     0.10739   0.12476   0.80469   0.00000  Uiso   1.00
H788   H     0.22595   0.20854   0.69528   0.00000  Uiso   1.00
N789   N     0.11736   0.16668   0.74999   0.00000  Uiso   1.00
N790   N     0.21597   0.16666   0.75001   0.00000  Uiso   1.00
O791   O     0.03958   0.10655   0.75000   0.00000  Uiso   1.00
O792   O     0.29375   0.22678   0.75000   0.00000  Uiso   1.00
O793   O     0.29372   0.10654   0.75001   0.00000  Uiso   1.00
O794   O     0.03961   0.22679   0.75000   0.00000  Uiso   1.00
O795   O     0.01852   0.16668   0.81492   0.00000  Uiso   1.00
O796   O     0.31481   0.16666   0.68509   0.00000  Uiso   1.00
O797   O     0.27267   0.16667   0.81492   0.00000  Uiso   1.00
O798   O     0.06067   0.16667   0.68508   0.00000  Uiso   1.00
C799   C     0.26706   0.04128   0.70725   0.00000  Uiso   1.00
C800   C     0.21656   0.03920   0.72608   0.00000  Uiso   1.00
C801   C     0.18494   0.06021   0.70587   0.00000  Uiso   1.00
C802   C     0.20352   0.08341   0.66679   0.00000  Uiso   1.00
C803   C     0.25374   0.08542   0.64769   0.00000  Uiso   1.00
C804   C     0.28547   0.06433   0.66769   0.00000  Uiso   1.00
H805   H     0.20185   0.02212   0.75690   0.00000  Uiso   1.00
H806   H     0.14606   0.05889   0.72077   0.00000  Uiso   1.00
H807   H     0.17901   0.09994   0.65143   0.00000  Uiso   1.00
H808   H     0.26810   0.10352   0.61753   0.00000  Uiso   1.00
H809   H     0.32434   0.06645   0.65284   0.00000  Uiso   1.00
C810   C     0.06733   0.29223   0.79147   0.00000  Uiso   1.00
C811   C     0.04986   0.26903   0.83106   0.00000  Uiso   1.00
C812   C     0.08238   0.24813   0.85031   0.00000  Uiso   1.00
C813   C     0.13243   0.25052   0.83042   0.00000  Uiso   1.00
C814   C     0.15007   0.27392   0.79135   0.00000  Uiso   1.00
C815   C     0.11768   0.29471   0.77189   0.00000  Uiso   1.00
H816   H     0.01113   0.26663   0.84652   0.00000  Uiso   1.00
H817   H     0.06875   0.22989   0.88046   0.00000  Uiso   1.00
H818   H     0.15757   0.23412   0.84514   0.00000  Uiso   1.00
H819   H     0.18881   0.27554   0.77587   0.00000  Uiso   1.00
H820   H     0.13166   0.31199   0.74107   0.00000  Uiso   1.00
C821   C     0.33366   0.08743   0.74880   0.00000  Uiso   1.00
C822   C     0.66638   0.24592   0.75111   0.00000  Uiso   1.00
C823   C     0.52849   0.15852   0.54734   0.00000  Uiso   1.00
C824   C     0.47442   0.19087   0.95507   0.00000  Uiso   1.00
C825   C     0.57713   0.15384   0.52480   0.00000  Uiso   1.00
C826   C     0.42592   0.19624   0.97773   0.00000  Uiso   1.00
C827   C     0.63396   0.02080   0.73004   0.00000  Uiso   1.00
C828   C     0.36636   0.31261   0.76946   0.00000  Uiso   1.00
C829   C     0.63348   0.31146   0.73301   0.00000  Uiso   1.00
C830   C     0.36671   0.02193   0.76663   0.00000  Uiso   1.00
C831   C     0.66623   0.29057   0.75206   0.00000  Uiso   1.00
C832   C     0.33390   0.04280   0.74767   0.00000  Uiso   1.00
C833   C     0.51607   0.14340   0.78040   0.00000  Uiso   1.00
C834   C     0.48393   0.18991   0.71957   0.00000  Uiso   1.00
C835   C     0.46643   0.14344   0.78042   0.00000  Uiso   1.00
C836   C     0.53357   0.18987   0.71956   0.00000  Uiso   1.00
C837   C     0.63946   0.16662   0.83609   0.00000  Uiso   1.00
C838   C     0.36054   0.16700   0.66394   0.00000  Uiso   1.00
C839   C     0.62459   0.16579   0.88520   0.00000  Uiso   1.00
C840   C     0.37557   0.17072   0.61503   0.00000  Uiso   1.00
C841   C     0.64182   0.15283   0.95636   0.00000  Uiso   1.00
C842   C     0.36032   0.19295   0.54539   0.00000  Uiso   1.00
C843   C     0.65784   0.15661   0.90997   0.00000  Uiso   1.00
C844   C     0.34336   0.18482   0.59110   0.00000  Uiso   1.00
C845   C     0.57567   0.17258   0.90729   0.00000  Uiso   1.00
C846   C     0.42431   0.16359   0.59275   0.00000  Uiso   1.00
C847   C     0.55869   0.16992   0.95420   0.00000  Uiso   1.00
C848   C     0.44283   0.17302   0.54699   0.00000  Uiso   1.00
C849   C     0.59261   0.15898   0.97857   0.00000  Uiso   1.00
C850   C     0.40963   0.18727   0.52323   0.00000  Uiso   1.00
C851   C     0.50888   0.17649   0.97731   0.00000  Uiso   1.00
C852   C     0.49318   0.16895   0.52437   0.00000  Uiso   1.00
Cu853  Cu    0.38022   0.16667   0.75000   0.00000  Uiso   1.00
Cu854  Cu    0.61978   0.16666   0.75000   0.00000  Uiso   1.00
H855   H     0.60278   0.14564   0.54376   0.00000  Uiso   1.00
H856   H     0.40091   0.20759   0.95942   0.00000  Uiso   1.00
H857   H     0.44698   0.15071   0.61221   0.00000  Uiso   1.00
H858   H     0.55130   0.17867   0.88683   0.00000  Uiso   1.00
H859   H     0.63884   0.19066   0.60787   0.00000  Uiso   1.00
H860   H     0.36250   0.15116   0.89345   0.00000  Uiso   1.00
H861   H     0.33448   0.14435   0.97484   0.00000  Uiso   1.00
H862   H     0.33505   0.20456   0.52751   0.00000  Uiso   1.00
H863   H     0.52019   0.15454   0.58311   0.00000  Uiso   1.00
H864   H     0.48374   0.19945   0.92020   0.00000  Uiso   1.00
H865   H     0.60850   0.29444   0.71890   0.00000  Uiso   1.00
H866   H     0.39176   0.03895   0.78065   0.00000  Uiso   1.00
H867   H     0.52782   0.12460   0.80462   0.00000  Uiso   1.00
H868   H     0.47219   0.20870   0.69534   0.00000  Uiso   1.00
H869   H     0.44072   0.12476   0.80469   0.00000  Uiso   1.00
H870   H     0.55929   0.20854   0.69528   0.00000  Uiso   1.00
N871   N     0.45069   0.16668   0.74999   0.00000  Uiso   1.00
N872   N     0.54931   0.16666   0.75001   0.00000  Uiso   1.00
O873   O     0.37291   0.10655   0.75000   0.00000  Uiso   1.00
O874   O     0.62709   0.22678   0.75000   0.00000  Uiso   1.00
O875   O     0.62706   0.10654   0.75001   0.00000  Uiso   1.00
O876   O     0.37294   0.22679   0.75000   0.00000  Uiso   1.00
O877   O     0.35186   0.16668   0.81492   0.00000  Uiso   1.00
O878   O     0.64814   0.16666   0.68509   0.00000  Uiso   1.00
O879   O     0.60600   0.16667   0.81492   0.00000  Uiso   1.00
O880   O     0.39400   0.16667   0.68508   0.00000  Uiso   1.00
C881   C     0.60040   0.04128   0.70725   0.00000  Uiso   1.00
C882   C     0.54989   0.03920   0.72608   0.00000  Uiso   1.00
C883   C     0.51827   0.06021   0.70587   0.00000  Uiso   1.00
C884   C     0.53685   0.08341   0.66679   0.00000  Uiso   1.00
C885   C     0.58707   0.08542   0.64769   0.00000  Uiso   1.00
C886   C     0.61881   0.06433   0.66769   0.00000  Uiso   1.00
H887   H     0.53518   0.02212   0.75690   0.00000  Uiso   1.00
H888   H     0.47939   0.05889   0.72077   0.00000  Uiso   1.00
H889   H     0.51234   0.09994   0.65143   0.00000  Uiso   1.00
H890   H     0.60144   0.10352   0.61753   0.00000  Uiso   1.00
H891   H     0.65767   0.06645   0.65284   0.00000  Uiso   1.00
C892   C     0.40066   0.29223   0.79147   0.00000  Uiso   1.00
C893   C     0.38320   0.26903   0.83106   0.00000  Uiso   1.00
C894   C     0.41572   0.24813   0.85031   0.00000  Uiso   1.00
C895   C     0.46577   0.25052   0.83042   0.00000  Uiso   1.00
C896   C     0.48340   0.27392   0.79135   0.00000  Uiso   1.00
C897   C     0.45101   0.29471   0.77189   0.00000  Uiso   1.00
H898   H     0.34447   0.26663   0.84652   0.00000  Uiso   1.00
H899   H     0.40209   0.22989   0.88046   0.00000  Uiso   1.00
H900   H     0.49090   0.23412   0.84514   0.00000  Uiso   1.00
H901   H     0.52215   0.27554   0.77587   0.00000  Uiso   1.00
H902   H     0.46500   0.31199   0.74107   0.00000  Uiso   1.00
C903   C     0.66699   0.08743   0.74880   0.00000  Uiso   1.00
C904   C     0.99971   0.24592   0.75111   0.00000  Uiso   1.00
C905   C     0.86182   0.15852   0.54734   0.00000  Uiso   1.00
C906   C     0.80775   0.19087   0.95507   0.00000  Uiso   1.00
C907   C     0.91046   0.15384   0.52480   0.00000  Uiso   1.00
C908   C     0.75926   0.19624   0.97773   0.00000  Uiso   1.00
C909   C     0.96729   0.02080   0.73004   0.00000  Uiso   1.00
C910   C     0.69970   0.31261   0.76946   0.00000  Uiso   1.00
C911   C     0.96681   0.31146   0.73301   0.00000  Uiso   1.00
C912   C     0.70004   0.02193   0.76663   0.00000  Uiso   1.00
C913   C     0.99956   0.29057   0.75206   0.00000  Uiso   1.00
C914   C     0.66724   0.04280   0.74767   0.00000  Uiso   1.00
C915   C     0.84941   0.14340   0.78040   0.00000  Uiso   1.00
C916   C     0.81727   0.18991   0.71957   0.00000  Uiso   1.00
C917   C     0.79977   0.14344   0.78042   0.00000  Uiso   1.00
C918   C     0.86691   0.18987   0.71956   0.00000  Uiso   1.00
C919   C     0.97279   0.16662   0.83609   0.00000  Uiso   1.00
C920   C     0.69387   0.16700   0.66394   0.00000  Uiso   1.00
C921   C     0.95792   0.16579   0.88520   0.00000  Uiso   1.00
C922   C     0.70890   0.17072   0.61503   0.00000  Uiso   1.00
C923   C     0.97516   0.15283   0.95636   0.00000  Uiso   1.00
C924   C     0.69365   0.19295   0.54539   0.00000  Uiso   1.00
C925   C     0.99117   0.15661   0.90997   0.00000  Uiso   1.00
C926   C     0.67670   0.18482   0.59110   0.00000  Uiso   1.00
C927   C     0.90901   0.17258   0.90729   0.00000  Uiso   1.00
C928   C     0.75764   0.16359   0.59275   0.00000  Uiso   1.00
C929   C     0.89203   0.16992   0.95420   0.00000  Uiso   1.00
C930   C     0.77616   0.17302   0.54699   0.00000  Uiso   1.00
C931   C     0.92594   0.15898   0.97857   0.00000  Uiso   1.00
C932   C     0.74296   0.18727   0.52323   0.00000  Uiso   1.00
C933   C     0.84222   0.17649   0.97731   0.00000  Uiso   1.00
C934   C     0.82651   0.16895   0.52437   0.00000  Uiso   1.00
Cu935  Cu    0.71355   0.16667   0.75000   0.00000  Uiso   1.00
Cu936  Cu    0.95311   0.16666   0.75000   0.00000  Uiso   1.00
H937   H     0.93611   0.14564   0.54376   0.00000  Uiso   1.00
H938   H     0.73425   0.20759   0.95942   0.00000  Uiso   1.00
H939   H     0.78031   0.15071   0.61221   0.00000  Uiso   1.00
H940   H     0.88463   0.17867   0.88683   0.00000  Uiso   1.00
H941   H     0.97218   0.19066   0.60787   0.00000  Uiso   1.00
H942   H     0.69584   0.15116   0.89345   0.00000  Uiso   1.00
H943   H     0.66781   0.14435   0.97484   0.00000  Uiso   1.00
H944   H     0.66839   0.20456   0.52751   0.00000  Uiso   1.00
H945   H     0.85353   0.15454   0.58311   0.00000  Uiso   1.00
H946   H     0.81707   0.19945   0.92020   0.00000  Uiso   1.00
H947   H     0.94184   0.29444   0.71890   0.00000  Uiso   1.00
H948   H     0.72510   0.03895   0.78065   0.00000  Uiso   1.00
H949   H     0.86115   0.12460   0.80462   0.00000  Uiso   1.00
H950   H     0.80553   0.20870   0.69534   0.00000  Uiso   1.00
H951   H     0.77405   0.12476   0.80469   0.00000  Uiso   1.00
H952   H     0.89262   0.20854   0.69528   0.00000  Uiso   1.00
N953   N     0.78403   0.16668   0.74999   0.00000  Uiso   1.00
N954   N     0.88264   0.16666   0.75001   0.00000  Uiso   1.00
O955   O     0.70625   0.10655   0.75000   0.00000  Uiso   1.00
O956   O     0.96042   0.22678   0.75000   0.00000  Uiso   1.00
O957   O     0.96039   0.10654   0.75001   0.00000  Uiso   1.00
O958   O     0.70628   0.22679   0.75000   0.00000  Uiso   1.00
O959   O     0.68519   0.16668   0.81492   0.00000  Uiso   1.00
O960   O     0.98148   0.16666   0.68509   0.00000  Uiso   1.00
O961   O     0.93933   0.16667   0.81492   0.00000  Uiso   1.00
O962   O     0.72733   0.16667   0.68508   0.00000  Uiso   1.00
C963   C     0.93373   0.04128   0.70725   0.00000  Uiso   1.00
C964   C     0.88323   0.03920   0.72608   0.00000  Uiso   1.00
C965   C     0.85161   0.06021   0.70587   0.00000  Uiso   1.00
C966   C     0.87018   0.08341   0.66679   0.00000  Uiso   1.00
C967   C     0.92040   0.08542   0.64769   0.00000  Uiso   1.00
C968   C     0.95214   0.06433   0.66769   0.00000  Uiso   1.00
H969   H     0.86852   0.02212   0.75690   0.00000  Uiso   1.00
H970   H     0.81273   0.05889   0.72077   0.00000  Uiso   1.00
H971   H     0.84567   0.09994   0.65143   0.00000  Uiso   1.00
H972   H     0.93477   0.10352   0.61753   0.00000  Uiso   1.00
H973   H     0.99101   0.06645   0.65284   0.00000  Uiso   1.00
C974   C     0.73400   0.29223   0.79147   0.00000  Uiso   1.00
C975   C     0.71653   0.26903   0.83106   0.00000  Uiso   1.00
C976   C     0.74905   0.24813   0.85031   0.00000  Uiso   1.00
C977   C     0.79910   0.25052   0.83042   0.00000  Uiso   1.00
C978   C     0.81673   0.27392   0.79135   0.00000  Uiso   1.00
C979   C     0.78434   0.29471   0.77189   0.00000  Uiso   1.00
H980   H     0.67780   0.26663   0.84652   0.00000  Uiso   1.00
H981   H     0.73542   0.22989   0.88046   0.00000  Uiso   1.00
H982   H     0.82423   0.23412   0.84514   0.00000  Uiso   1.00
H983   H     0.85548   0.27554   0.77587   0.00000  Uiso   1.00
H984   H     0.79833   0.31199   0.74107   0.00000  Uiso   1.00
C985   C     0.00032   0.42076   0.74880   0.00000  Uiso   1.00
C986   C     0.33305   0.57926   0.75111   0.00000  Uiso   1.00
C987   C     0.19515   0.49186   0.54734   0.00000  Uiso   1.00
C988   C     0.14109   0.52420   0.95507   0.00000  Uiso   1.00
C989   C     0.24380   0.48718   0.52480   0.00000  Uiso   1.00
C990   C     0.09259   0.52958   0.97773   0.00000  Uiso   1.00
C991   C     0.30063   0.35413   0.73004   0.00000  Uiso   1.00
C992   C     0.03303   0.64594   0.76946   0.00000  Uiso   1.00
C993   C     0.30014   0.64479   0.73301   0.00000  Uiso   1.00
C994   C     0.03337   0.35527   0.76663   0.00000  Uiso   1.00
C995   C     0.33290   0.62391   0.75206   0.00000  Uiso   1.00
C996   C     0.00057   0.37614   0.74767   0.00000  Uiso   1.00
C997   C     0.18274   0.47673   0.78040   0.00000  Uiso   1.00
C998   C     0.15060   0.52325   0.71957   0.00000  Uiso   1.00
C999   C     0.13310   0.47677   0.78042   0.00000  Uiso   1.00
C1000  C     0.20024   0.52320   0.71956   0.00000  Uiso   1.00
C1001  C     0.30612   0.49995   0.83609   0.00000  Uiso   1.00
C1002  C     0.02720   0.50033   0.66394   0.00000  Uiso   1.00
C1003  C     0.29125   0.49912   0.88520   0.00000  Uiso   1.00
C1004  C     0.04224   0.50405   0.61503   0.00000  Uiso   1.00
C1005  C     0.30849   0.48616   0.95636   0.00000  Uiso   1.00
C1006  C     0.02698   0.52628   0.54539   0.00000  Uiso   1.00
C1007  C     0.32450   0.48995   0.90997   0.00000  Uiso   1.00
C1008  C     0.01003   0.51816   0.59110   0.00000  Uiso   1.00
C1009  C     0.24234   0.50592   0.90729   0.00000  Uiso   1.00
C1010  C     0.09097   0.49692   0.59275   0.00000  Uiso   1.00
C1011  C     0.22536   0.50325   0.95420   0.00000  Uiso   1.00
C1012  C     0.10949   0.50635   0.54699   0.00000  Uiso   1.00
C1013  C     0.25928   0.49231   0.97857   0.00000  Uiso   1.00
C1014  C     0.07629   0.52060   0.52323   0.00000  Uiso   1.00
C1015  C     0.17555   0.50982   0.97731   0.00000  Uiso   1.00
C1016  C     0.15985   0.50229   0.52437   0.00000  Uiso   1.00
Cu1017 Cu    0.04689   0.50001   0.75000   0.00000  Uiso   1.00
Cu1018 Cu    0.28645   0.49999   0.75000   0.00000  Uiso   1.00
H1019  H     0.26945   0.47898   0.54376   0.00000  Uiso   1.00
H1020  H     0.06758   0.54092   0.95942   0.00000  Uiso   1.00
H1021  H     0.11364   0.48404   0.61221   0.00000  Uiso   1.00
H1022  H     0.21797   0.51201   0.88683   0.00000  Uiso   1.00
H1023  H     0.30551   0.52399   0.60787   0.00000  Uiso   1.00
H1024  H     0.02917   0.48449   0.89345   0.00000  Uiso   1.00
H1025  H     0.00115   0.47769   0.97484   0.00000  Uiso   1.00
H1026  H     0.00172   0.53789   0.52751   0.00000  Uiso   1.00
H1027  H     0.18686   0.48787   0.58311   0.00000  Uiso   1.00
H1028  H     0.15040   0.53279   0.92020   0.00000  Uiso   1.00
H1029  H     0.27517   0.62777   0.71890   0.00000  Uiso   1.00
H1030  H     0.05843   0.37229   0.78065   0.00000  Uiso   1.00
H1031  H     0.19448   0.45793   0.80462   0.00000  Uiso   1.00
H1032  H     0.13886   0.54204   0.69534   0.00000  Uiso   1.00
H1033  H     0.10739   0.45809   0.80469   0.00000  Uiso   1.00
H1034  H     0.22595   0.54188   0.69528   0.00000  Uiso   1.00
N1035  N     0.11736   0.50001   0.74999   0.00000  Uiso   1.00
N1036  N     0.21597   0.49999   0.75001   0.00000  Uiso   1.00
O1037  O     0.03958   0.43989   0.75000   0.00000  Uiso   1.00
O1038  O     0.29375   0.56011   0.75000   0.00000  Uiso   1.00
O1039  O     0.29372   0.43988   0.75001   0.00000  Uiso   1.00
O1040  O     0.03961   0.56012   0.75000   0.00000  Uiso   1.00
O1041  O     0.01852   0.50001   0.81492   0.00000  Uiso   1.00
O1042  O     0.31481   0.49999   0.68509   0.00000  Uiso   1.00
O1043  O     0.27267   0.50000   0.81492   0.00000  Uiso   1.00
O1044  O     0.06067   0.50000   0.68508   0.00000  Uiso   1.00
C1045  C     0.26706   0.37462   0.70725   0.00000  Uiso   1.00
C1046  C     0.21656   0.37254   0.72608   0.00000  Uiso   1.00
C1047  C     0.18494   0.39354   0.70587   0.00000  Uiso   1.00
C1048  C     0.20352   0.41674   0.66679   0.00000  Uiso   1.00
C1049  C     0.25374   0.41875   0.64769   0.00000  Uiso   1.00
C1050  C     0.28547   0.39766   0.66769   0.00000  Uiso   1.00
H1051  H     0.20185   0.35545   0.75690   0.00000  Uiso   1.00
H1052  H     0.14606   0.39222   0.72077   0.00000  Uiso   1.00
H1053  H     0.17901   0.43328   0.65143   0.00000  Uiso   1.00
H1054  H     0.26810   0.43685   0.61753   0.00000  Uiso   1.00
H1055  H     0.32434   0.39978   0.65284   0.00000  Uiso   1.00
C1056  C     0.06733   0.62556   0.79147   0.00000  Uiso   1.00
C1057  C     0.04986   0.60237   0.83106   0.00000  Uiso   1.00
C1058  C     0.08238   0.58147   0.85031   0.00000  Uiso   1.00
C1059  C     0.13243   0.58385   0.83042   0.00000  Uiso   1.00
C1060  C     0.15007   0.60725   0.79135   0.00000  Uiso   1.00
C1061  C     0.11768   0.62805   0.77189   0.00000  Uiso   1.00
H1062  H     0.01113   0.59996   0.84652   0.00000  Uiso   1.00
H1063  H     0.06875   0.56322   0.88046   0.00000  Uiso   1.00
H1064  H     0.15757   0.56745   0.84514   0.00000  Uiso   1.00
H1065  H     0.18881   0.60887   0.77587   0.00000  Uiso   1.00
H1066  H     0.13166   0.64532   0.74107   0.00000  Uiso   1.00
C1067  C     0.33366   0.42076   0.74880   0.00000  Uiso   1.00
C1068  C     0.66638   0.57926   0.75111   0.00000  Uiso   1.00
C1069  C     0.52849   0.49186   0.54734   0.00000  Uiso   1.00
C1070  C     0.47442   0.52420   0.95507   0.00000  Uiso   1.00
C1071  C     0.57713   0.48718   0.52480   0.00000  Uiso   1.00
C1072  C     0.42592   0.52958   0.97773   0.00000  Uiso   1.00
C1073  C     0.63396   0.35413   0.73004   0.00000  Uiso   1.00
C1074  C     0.36636   0.64594   0.76946   0.00000  Uiso   1.00
C1075  C     0.63348   0.64479   0.73301   0.00000  Uiso   1.00
C1076  C     0.36671   0.35527   0.76663   0.00000  Uiso   1.00
C1077  C     0.66623   0.62391   0.75206   0.00000  Uiso   1.00
C1078  C     0.33390   0.37614   0.74767   0.00000  Uiso   1.00
C1079  C     0.51607   0.47673   0.78040   0.00000  Uiso   1.00
C1080  C     0.48393   0.52325   0.71957   0.00000  Uiso   1.00
C1081  C     0.46643   0.47677   0.78042   0.00000  Uiso   1.00
C1082  C     0.53357   0.52320   0.71956   0.00000  Uiso   1.00
C1083  C     0.63946   0.49995   0.83609   0.00000  Uiso   1.00
C1084  C     0.36054   0.50033   0.66394   0.00000  Uiso   1.00
C1085  C     0.62459   0.49912   0.88520   0.00000  Uiso   1.00
C1086  C     0.37557   0.50405   0.61503   0.00000  Uiso   1.00
C1087  C     0.64182   0.48616   0.95636   0.00000  Uiso   1.00
C1088  C     0.36032   0.52628   0.54539   0.00000  Uiso   1.00
C1089  C     0.65784   0.48995   0.90997   0.00000  Uiso   1.00
C1090  C     0.34336   0.51816   0.59110   0.00000  Uiso   1.00
C1091  C     0.57567   0.50592   0.90729   0.00000  Uiso   1.00
C1092  C     0.42431   0.49692   0.59275   0.00000  Uiso   1.00
C1093  C     0.55869   0.50325   0.95420   0.00000  Uiso   1.00
C1094  C     0.44283   0.50635   0.54699   0.00000  Uiso   1.00
C1095  C     0.59261   0.49231   0.97857   0.00000  Uiso   1.00
C1096  C     0.40963   0.52060   0.52323   0.00000  Uiso   1.00
C1097  C     0.50888   0.50982   0.97731   0.00000  Uiso   1.00
C1098  C     0.49318   0.50229   0.52437   0.00000  Uiso   1.00
Cu1099 Cu    0.38022   0.50001   0.75000   0.00000  Uiso   1.00
Cu1100 Cu    0.61978   0.49999   0.75000   0.00000  Uiso   1.00
H1101  H     0.60278   0.47898   0.54376   0.00000  Uiso   1.00
H1102  H     0.40091   0.54092   0.95942   0.00000  Uiso   1.00
H1103  H     0.44698   0.48404   0.61221   0.00000  Uiso   1.00
H1104  H     0.55130   0.51201   0.88683   0.00000  Uiso   1.00
H1105  H     0.63884   0.52399   0.60787   0.00000  Uiso   1.00
H1106  H     0.36250   0.48449   0.89345   0.00000  Uiso   1.00
H1107  H     0.33448   0.47769   0.97484   0.00000  Uiso   1.00
H1108  H     0.33505   0.53789   0.52751   0.00000  Uiso   1.00
H1109  H     0.52019   0.48787   0.58311   0.00000  Uiso   1.00
H1110  H     0.48374   0.53279   0.92020   0.00000  Uiso   1.00
H1111  H     0.60850   0.62777   0.71890   0.00000  Uiso   1.00
H1112  H     0.39176   0.37229   0.78065   0.00000  Uiso   1.00
H1113  H     0.52782   0.45793   0.80462   0.00000  Uiso   1.00
H1114  H     0.47219   0.54204   0.69534   0.00000  Uiso   1.00
H1115  H     0.44072   0.45809   0.80469   0.00000  Uiso   1.00
H1116  H     0.55929   0.54188   0.69528   0.00000  Uiso   1.00
N1117  N     0.45069   0.50001   0.74999   0.00000  Uiso   1.00
N1118  N     0.54931   0.49999   0.75001   0.00000  Uiso   1.00
O1119  O     0.37291   0.43989   0.75000   0.00000  Uiso   1.00
O1120  O     0.62709   0.56011   0.75000   0.00000  Uiso   1.00
O1121  O     0.62706   0.43988   0.75001   0.00000  Uiso   1.00
O1122  O     0.37294   0.56012   0.75000   0.00000  Uiso   1.00
O1123  O     0.35186   0.50001   0.81492   0.00000  Uiso   1.00
O1124  O     0.64814   0.49999   0.68509   0.00000  Uiso   1.00
O1125  O     0.60600   0.50000   0.81492   0.00000  Uiso   1.00
O1126  O     0.39400   0.50000   0.68508   0.00000  Uiso   1.00
C1127  C     0.60040   0.37462   0.70725   0.00000  Uiso   1.00
C1128  C     0.54989   0.37254   0.72608   0.00000  Uiso   1.00
C1129  C     0.51827   0.39354   0.70587   0.00000  Uiso   1.00
C1130  C     0.53685   0.41674   0.66679   0.00000  Uiso   1.00
C1131  C     0.58707   0.41875   0.64769   0.00000  Uiso   1.00
C1132  C     0.61881   0.39766   0.66769   0.00000  Uiso   1.00
H1133  H     0.53518   0.35545   0.75690   0.00000  Uiso   1.00
H1134  H     0.47939   0.39222   0.72077   0.00000  Uiso   1.00
H1135  H     0.51234   0.43328   0.65143   0.00000  Uiso   1.00
H1136  H     0.60144   0.43685   0.61753   0.00000  Uiso   1.00
H1137  H     0.65767   0.39978   0.65284   0.00000  Uiso   1.00
C1138  C     0.40066   0.62556   0.79147   0.00000  Uiso   1.00
C1139  C     0.38320   0.60237   0.83106   0.00000  Uiso   1.00
C1140  C     0.41572   0.58147   0.85031   0.00000  Uiso   1.00
C1141  C     0.46577   0.58385   0.83042   0.00000  Uiso   1.00
C1142  C     0.48340   0.60725   0.79135   0.00000  Uiso   1.00
C1143  C     0.45101   0.62805   0.77189   0.00000  Uiso   1.00
H1144  H     0.34447   0.59996   0.84652   0.00000  Uiso   1.00
H1145  H     0.40209   0.56322   0.88046   0.00000  Uiso   1.00
H1146  H     0.49090   0.56745   0.84514   0.00000  Uiso   1.00
H1147  H     0.52215   0.60887   0.77587   0.00000  Uiso   1.00
H1148  H     0.46500   0.64532   0.74107   0.00000  Uiso   1.00
C1149  C     0.66699   0.42076   0.74880   0.00000  Uiso   1.00
C1150  C     0.99971   0.57926   0.75111   0.00000  Uiso   1.00
C1151  C     0.86182   0.49186   0.54734   0.00000  Uiso   1.00
C1152  C     0.80775   0.52420   0.95507   0.00000  Uiso   1.00
C1153  C     0.91046   0.48718   0.52480   0.00000  Uiso   1.00
C1154  C     0.75926   0.52958   0.97773   0.00000  Uiso   1.00
C1155  C     0.96729   0.35413   0.73004   0.00000  Uiso   1.00
C1156  C     0.69970   0.64594   0.76946   0.00000  Uiso   1.00
C1157  C     0.96681   0.64479   0.73301   0.00000  Uiso   1.00
C1158  C     0.70004   0.35527   0.76663   0.00000  Uiso   1.00
C1159  C     0.99956   0.62391   0.75206   0.00000  Uiso   1.00
C1160  C     0.66724   0.37614   0.74767   0.00000  Uiso   1.00
C1161  C     0.84941   0.47673   0.78040   0.00000  Uiso   1.00
C1162  C     0.81727   0.52325   0.71957   0.00000  Uiso   1.00
C1163  C     0.79977   0.47677   0.78042   0.00000  Uiso   1.00
C1164  C     0.86691   0.52320   0.71956   0.00000  Uiso   1.00
C1165  C     0.97279   0.49995   0.83609   0.00000  Uiso   1.00
C1166  C     0.69387   0.50033   0.66394   0.00000  Uiso   1.00
C1167  C     0.95792   0.49912   0.88520   0.00000  Uiso   1.00
C1168  C     0.70890   0.50405   0.61503   0.00000  Uiso   1.00
C1169  C     0.97516   0.48616   0.95636   0.00000  Uiso   1.00
C1170  C     0.69365   0.52628   0.54539   0.00000  Uiso   1.00
C1171  C     0.99117   0.48995   0.90997   0.00000  Uiso   1.00
C1172  C     0.67670   0.51816   0.59110   0.00000  Uiso   1.00
C1173  C     0.90901   0.50592   0.90729   0.00000  Uiso   1.00
C1174  C     0.75764   0.49692   0.59275   0.00000  Uiso   1.00
C1175  C     0.89203   0.50325   0.95420   0.00000  Uiso   1.00
C1176  C     0.77616   0.50635   0.54699   0.00000  Uiso   1.00
C1177  C     0.92594   0.49231   0.97857   0.00000  Uiso   1.00
C1178  C     0.74296   0.52060   0.52323   0.00000  Uiso   1.00
C1179  C     0.84222   0.50982   0.97731   0.00000  Uiso   1.00
C1180  C     0.82651   0.50229   0.52437   0.00000  Uiso   1.00
Cu1181 Cu    0.71355   0.50001   0.75000   0.00000  Uiso   1.00
Cu1182 Cu    0.95311   0.49999   0.75000   0.00000  Uiso   1.00
H1183  H     0.93611   0.47898   0.54376   0.00000  Uiso   1.00
H1184  H     0.73425   0.54092   0.95942   0.00000  Uiso   1.00
H1185  H     0.78031   0.48404   0.61221   0.00000  Uiso   1.00
H1186  H     0.88463   0.51201   0.88683   0.00000  Uiso   1.00
H1187  H     0.97218   0.52399   0.60787   0.00000  Uiso   1.00
H1188  H     0.69584   0.48449   0.89345   0.00000  Uiso   1.00
H1189  H     0.66781   0.47769   0.97484   0.00000  Uiso   1.00
H1190  H     0.66839   0.53789   0.52751   0.00000  Uiso   1.00
H1191  H     0.85353   0.48787   0.58311   0.00000  Uiso   1.00
H1192  H     0.81707   0.53279   0.92020   0.00000  Uiso   1.00
H1193  H     0.94184   0.62777   0.71890   0.00000  Uiso   1.00
H1194  H     0.72510   0.37229   0.78065   0.00000  Uiso   1.00
H1195  H     0.86115   0.45793   0.80462   0.00000  Uiso   1.00
H1196  H     0.80553   0.54204   0.69534   0.00000  Uiso   1.00
H1197  H     0.77405   0.45809   0.80469   0.00000  Uiso   1.00
H1198  H     0.89262   0.54188   0.69528   0.00000  Uiso   1.00
N1199  N     0.78403   0.50001   0.74999   0.00000  Uiso   1.00
N1200  N     0.88264   0.49999   0.75001   0.00000  Uiso   1.00
O1201  O     0.70625   0.43989   0.75000   0.00000  Uiso   1.00
O1202  O     0.96042   0.56011   0.75000   0.00000  Uiso   1.00
O1203  O     0.96039   0.43988   0.75001   0.00000  Uiso   1.00
O1204  O     0.70628   0.56012   0.75000   0.00000  Uiso   1.00
O1205  O     0.68519   0.50001   0.81492   0.00000  Uiso   1.00
O1206  O     0.98148   0.49999   0.68509   0.00000  Uiso   1.00
O1207  O     0.93933   0.50000   0.81492   0.00000  Uiso   1.00
O1208  O     0.72733   0.50000   0.68508   0.00000  Uiso   1.00
C1209  C     0.93373   0.37462   0.70725   0.00000  Uiso   1.00
C1210  C     0.88323   0.37254   0.72608   0.00000  Uiso   1.00
C1211  C     0.85161   0.39354   0.70587   0.00000  Uiso   1.00
C1212  C     0.87018   0.41674   0.66679   0.00000  Uiso   1.00
C1213  C     0.92040   0.41875   0.64769   0.00000  Uiso   1.00
C1214  C     0.95214   0.39766   0.66769   0.00000  Uiso   1.00
H1215  H     0.86852   0.35545   0.75690   0.00000  Uiso   1.00
H1216  H     0.81273   0.39222   0.72077   0.00000  Uiso   1.00
H1217  H     0.84567   0.43328   0.65143   0.00000  Uiso   1.00
H1218  H     0.93477   0.43685   0.61753   0.00000  Uiso   1.00
H1219  H     0.99101   0.39978   0.65284   0.00000  Uiso   1.00
C1220  C     0.73400   0.62556   0.79147   0.00000  Uiso   1.00
C1221  C     0.71653   0.60237   0.83106   0.00000  Uiso   1.00
C1222  C     0.74905   0.58147   0.85031   0.00000  Uiso   1.00
C1223  C     0.79910   0.58385   0.83042   0.00000  Uiso   1.00
C1224  C     0.81673   0.60725   0.79135   0.00000  Uiso   1.00
C1225  C     0.78434   0.62805   0.77189   0.00000  Uiso   1.00
H1226  H     0.67780   0.59996   0.84652   0.00000  Uiso   1.00
H1227  H     0.73542   0.56322   0.88046   0.00000  Uiso   1.00
H1228  H     0.82423   0.56745   0.84514   0.00000  Uiso   1.00
H1229  H     0.85548   0.60887   0.77587   0.00000  Uiso   1.00
H1230  H     0.79833   0.64532   0.74107   0.00000  Uiso   1.00
C1231  C     0.00032   0.75409   0.74880   0.00000  Uiso   1.00
C1232  C     0.33305   0.91259   0.75111   0.00000  Uiso   1.00
C1233  C     0.19515   0.82519   0.54734   0.00000  Uiso   1.00
C1234  C     0.14109   0.85753   0.95507   0.00000  Uiso   1.00
C1235  C     0.24380   0.82051   0.52480   0.00000  Uiso   1.00
C1236  C     0.09259   0.86291   0.97773   0.00000  Uiso   1.00
C1237  C     0.30063   0.68746   0.73004   0.00000  Uiso   1.00
C1238  C     0.03303   0.97928   0.76946   0.00000  Uiso   1.00
C1239  C     0.30014   0.97812   0.73301   0.00000  Uiso   1.00
C1240  C     0.03337   0.68860   0.76663   0.00000  Uiso   1.00
C1241  C     0.33290   0.95724   0.75206   0.00000  Uiso   1.00
C1242  C     0.00057   0.70947   0.74767   0.00000  Uiso   1.00
C1243  C     0.18274   0.81006   0.78040   0.00000  Uiso   1.00
C1244  C     0.15060   0.85658   0.71957   0.00000  Uiso   1.00
C1245  C     0.13310   0.81011   0.78042   0.00000  Uiso   1.00
C1246  C     0.20024   0.85654   0.71956   0.00000  Uiso   1.00
C1247  C     0.30612   0.83328   0.83609   0.00000  Uiso   1.00
C1248  C     0.02720   0.83366   0.66394   0.00000  Uiso   1.00
C1249  C     0.29125   0.83245   0.88520   0.00000  Uiso   1.00
C1250  C     0.04224   0.83739   0.61503   0.00000  Uiso   1.00
C1251  C     0.30849   0.81949   0.95636   0.00000  Uiso   1.00
C1252  C     0.02698   0.85961   0.54539   0.00000  Uiso   1.00
C1253  C     0.32450   0.82328   0.90997   0.00000  Uiso   1.00
C1254  C     0.01003   0.85149   0.59110   0.00000  Uiso   1.00
C1255  C     0.24234   0.83925   0.90729   0.00000  Uiso   1.00
C1256  C     0.09097   0.83025   0.59275   0.00000  Uiso   1.00
C1257  C     0.22536   0.83658   0.95420   0.00000  Uiso   1.00
C1258  C     0.10949   0.83968   0.54699   0.00000  Uiso   1.00
C1259  C     0.25928   0.82564   0.97857   0.00000  Uiso   1.00
C1260  C     0.07629   0.85393   0.52323   0.00000  Uiso   1.00
C1261  C     0.17555   0.84315   0.97731   0.00000  Uiso   1.00
C1262  C     0.15985   0.83562   0.52437   0.00000  Uiso   1.00
Cu1263 Cu    0.04689   0.83334   0.75000   0.00000  Uiso   1.00
Cu1264 Cu    0.28645   0.83333   0.75000   0.00000  Uiso   1.00
H1265  H     0.26945   0.81231   0.54376   0.00000  Uiso   1.00
H1266  H     0.06758   0.87425   0.95942   0.00000  Uiso   1.00
H1267  H     0.11364   0.81737   0.61221   0.00000  Uiso   1.00
H1268  H     0.21797   0.84534   0.88683   0.00000  Uiso   1.00
H1269  H     0.30551   0.85733   0.60787   0.00000  Uiso   1.00
H1270  H     0.02917   0.81782   0.89345   0.00000  Uiso   1.00
H1271  H     0.00115   0.81102   0.97484   0.00000  Uiso   1.00
H1272  H     0.00172   0.87122   0.52751   0.00000  Uiso   1.00
H1273  H     0.18686   0.82121   0.58311   0.00000  Uiso   1.00
H1274  H     0.15040   0.86612   0.92020   0.00000  Uiso   1.00
H1275  H     0.27517   0.96110   0.71890   0.00000  Uiso   1.00
H1276  H     0.05843   0.70562   0.78065   0.00000  Uiso   1.00
H1277  H     0.19448   0.79126   0.80462   0.00000  Uiso   1.00
H1278  H     0.13886   0.87537   0.69534   0.00000  Uiso   1.00
H1279  H     0.10739   0.79143   0.80469   0.00000  Uiso   1.00
H1280  H     0.22595   0.87521   0.69528   0.00000  Uiso   1.00
N1281  N     0.11736   0.83334   0.74999   0.00000  Uiso   1.00
N1282  N     0.21597   0.83332   0.75001   0.00000  Uiso   1.00
O1283  O     0.03958   0.77322   0.75000   0.00000  Uiso   1.00
O1284  O     0.29375   0.89345   0.75000   0.00000  Uiso   1.00
O1285  O     0.29372   0.77321   0.75001   0.00000  Uiso   1.00
O1286  O     0.03961   0.89346   0.75000   0.00000  Uiso   1.00
O1287  O     0.01852   0.83334   0.81492   0.00000  Uiso   1.00
O1288  O     0.31481   0.83332   0.68509   0.00000  Uiso   1.00
O1289  O     0.27267   0.83333   0.81492   0.00000  Uiso   1.00
O1290  O     0.06067   0.83333   0.68508   0.00000  Uiso   1.00
C1291  C     0.26706   0.70795   0.70725   0.00000  Uiso   1.00
C1292  C     0.21656   0.70587   0.72608   0.00000  Uiso   1.00
C1293  C     0.18494   0.72688   0.70587   0.00000  Uiso   1.00
C1294  C     0.20352   0.75008   0.66679   0.00000  Uiso   1.00
C1295  C     0.25374   0.75209   0.64769   0.00000  Uiso   1.00
C1296  C     0.28547   0.73100   0.66769   0.00000  Uiso   1.00
H1297  H     0.20185   0.68878   0.75690   0.00000  Uiso   1.00
H1298  H     0.14606   0.72556   0.72077   0.00000  Uiso   1.00
H1299  H     0.17901   0.76661   0.65143   0.00000  Uiso   1.00
H1300  H     0.26810   0.77019   0.61753   0.00000  Uiso   1.00
H1301  H     0.32434   0.73312   0.65284   0.00000  Uiso   1.00
C1302  C     0.06733   0.95890   0.79147   0.00000  Uiso   1.00
C1303  C     0.04986   0.93570   0.83106   0.00000  Uiso   1.00
C1304  C     0.08238   0.91480   0.85031   0.00000  Uiso   1.00
C1305  C     0.13243   0.91719   0.83042   0.00000  Uiso   1.00
C1306  C     0.15007   0.94059   0.79135   0.00000  Uiso   1.00
C1307  C     0.11768   0.96138   0.77189   0.00000  Uiso   1.00
H1308  H     0.01113   0.93330   0.84652   0.00000  Uiso   1.00
H1309  H     0.06875   0.89655   0.88046   0.00000  Uiso   1.00
H1310  H     0.15757   0.90079   0.84514   0.00000  Uiso   1.00
H1311  H     0.18881   0.94220   0.77587   0.00000  Uiso   1.00
H1312  H     0.13166   0.97865   0.74107   0.00000  Uiso   1.00
C1313  C     0.33366   0.75409   0.74880   0.00000  Uiso   1.00
C1314  C     0.66638   0.91259   0.75111   0.00000  Uiso   1.00
C1315  C     0.52849   0.82519   0.54734   0.00000  Uiso   1.00
C1316  C     0.47442   0.85753   0.95507   0.00000  Uiso   1.00
C1317  C     0.57713   0.82051   0.52480   0.00000  Uiso   1.00
C1318  C     0.42592   0.86291   0.97773   0.00000  Uiso   1.00
C1319  C     0.63396   0.68746   0.73004   0.00000  Uiso   1.00
C1320  C     0.36636   0.97928   0.76946   0.00000  Uiso   1.00
C1321  C     0.63348   0.97812   0.73301   0.00000  Uiso   1.00
C1322  C     0.36671   0.68860   0.76663   0.00000  Uiso   1.00
C1323  C     0.66623   0.95724   0.75206   0.00000  Uiso   1.00
C1324  C     0.33390   0.70947   0.74767   0.00000  Uiso   1.00
C1325  C     0.51607   0.81006   0.78040   0.00000  Uiso   1.00
C1326  C     0.48393   0.85658   0.71957   0.00000  Uiso   1.00
C1327  C     0.46643   0.81011   0.78042   0.00000  Uiso   1.00
C1328  C     0.53357   0.85654   0.71956   0.00000  Uiso   1.00
C1329  C     0.63946   0.83328   0.83609   0.00000  Uiso   1.00
C1330  C     0.36054   0.83366   0.66394   0.00000  Uiso   1.00
C1331  C     0.62459   0.83245   0.88520   0.00000  Uiso   1.00
C1332  C     0.37557   0.83739   0.61503   0.00000  Uiso   1.00
C1333  C     0.64182   0.81949   0.95636   0.00000  Uiso   1.00
C1334  C     0.36032   0.85961   0.54539   0.00000  Uiso   1.00
C1335  C     0.65784   0.82328   0.90997   0.00000  Uiso   1.00
C1336  C     0.34336   0.85149   0.59110   0.00000  Uiso   1.00
C1337  C     0.57567   0.83925   0.90729   0.00000  Uiso   1.00
C1338  C     0.42431   0.83025   0.59275   0.00000  Uiso   1.00
C1339  C     0.55869   0.83658   0.95420   0.00000  Uiso   1.00
C1340  C     0.44283   0.83968   0.54699   0.00000  Uiso   1.00
C1341  C     0.59261   0.82564   0.97857   0.00000  Uiso   1.00
C1342  C     0.40963   0.85393   0.52323   0.00000  Uiso   1.00
C1343  C     0.50888   0.84315   0.97731   0.00000  Uiso   1.00
C1344  C     0.49318   0.83562   0.52437   0.00000  Uiso   1.00
Cu1345 Cu    0.38022   0.83334   0.75000   0.00000  Uiso   1.00
Cu1346 Cu    0.61978   0.83333   0.75000   0.00000  Uiso   1.00
H1347  H     0.60278   0.81231   0.54376   0.00000  Uiso   1.00
H1348  H     0.40091   0.87425   0.95942   0.00000  Uiso   1.00
H1349  H     0.44698   0.81737   0.61221   0.00000  Uiso   1.00
H1350  H     0.55130   0.84534   0.88683   0.00000  Uiso   1.00
H1351  H     0.63884   0.85733   0.60787   0.00000  Uiso   1.00
H1352  H     0.36250   0.81782   0.89345   0.00000  Uiso   1.00
H1353  H     0.33448   0.81102   0.97484   0.00000  Uiso   1.00
H1354  H     0.33505   0.87122   0.52751   0.00000  Uiso   1.00
H1355  H     0.52019   0.82121   0.58311   0.00000  Uiso   1.00
H1356  H     0.48374   0.86612   0.92020   0.00000  Uiso   1.00
H1357  H     0.60850   0.96110   0.71890   0.00000  Uiso   1.00
H1358  H     0.39176   0.70562   0.78065   0.00000  Uiso   1.00
H1359  H     0.52782   0.79126   0.80462   0.00000  Uiso   1.00
H1360  H     0.47219   0.87537   0.69534   0.00000  Uiso   1.00
H1361  H     0.44072   0.79143   0.80469   0.00000  Uiso   1.00
H1362  H     0.55929   0.87521   0.69528   0.00000  Uiso   1.00
N1363  N     0.45069   0.83334   0.74999   0.00000  Uiso   1.00
N1364  N     0.54931   0.83332   0.75001   0.00000  Uiso   1.00
O1365  O     0.37291   0.77322   0.75000   0.00000  Uiso   1.00
O1366  O     0.62709   0.89345   0.75000   0.00000  Uiso   1.00
O1367  O     0.62706   0.77321   0.75001   0.00000  Uiso   1.00
O1368  O     0.37294   0.89346   0.75000   0.00000  Uiso   1.00
O1369  O     0.35186   0.83334   0.81492   0.00000  Uiso   1.00
O1370  O     0.64814   0.83332   0.68509   0.00000  Uiso   1.00
O1371  O     0.60600   0.83333   0.81492   0.00000  Uiso   1.00
O1372  O     0.39400   0.83333   0.68508   0.00000  Uiso   1.00
C1373  C     0.60040   0.70795   0.70725   0.00000  Uiso   1.00
C1374  C     0.54989   0.70587   0.72608   0.00000  Uiso   1.00
C1375  C     0.51827   0.72688   0.70587   0.00000  Uiso   1.00
C1376  C     0.53685   0.75008   0.66679   0.00000  Uiso   1.00
C1377  C     0.58707   0.75209   0.64769   0.00000  Uiso   1.00
C1378  C     0.61881   0.73100   0.66769   0.00000  Uiso   1.00
H1379  H     0.53518   0.68878   0.75690   0.00000  Uiso   1.00
H1380  H     0.47939   0.72556   0.72077   0.00000  Uiso   1.00
H1381  H     0.51234   0.76661   0.65143   0.00000  Uiso   1.00
H1382  H     0.60144   0.77019   0.61753   0.00000  Uiso   1.00
H1383  H     0.65767   0.73312   0.65284   0.00000  Uiso   1.00
C1384  C     0.40066   0.95890   0.79147   0.00000  Uiso   1.00
C1385  C     0.38320   0.93570   0.83106   0.00000  Uiso   1.00
C1386  C     0.41572   0.91480   0.85031   0.00000  Uiso   1.00
C1387  C     0.46577   0.91719   0.83042   0.00000  Uiso   1.00
C1388  C     0.48340   0.94059   0.79135   0.00000  Uiso   1.00
C1389  C     0.45101   0.96138   0.77189   0.00000  Uiso   1.00
H1390  H     0.34447   0.93330   0.84652   0.00000  Uiso   1.00
H1391  H     0.40209   0.89655   0.88046   0.00000  Uiso   1.00
H1392  H     0.49090   0.90079   0.84514   0.00000  Uiso   1.00
H1393  H     0.52215   0.94220   0.77587   0.00000  Uiso   1.00
H1394  H     0.46500   0.97865   0.74107   0.00000  Uiso   1.00
C1395  C     0.66699   0.75409   0.74880   0.00000  Uiso   1.00
C1396  C     0.99971   0.91259   0.75111   0.00000  Uiso   1.00
C1397  C     0.86182   0.82519   0.54734   0.00000  Uiso   1.00
C1398  C     0.80775   0.85753   0.95507   0.00000  Uiso   1.00
C1399  C     0.91046   0.82051   0.52480   0.00000  Uiso   1.00
C1400  C     0.75926   0.86291   0.97773   0.00000  Uiso   1.00
C1401  C     0.96729   0.68746   0.73004   0.00000  Uiso   1.00
C1402  C     0.69970   0.97928   0.76946   0.00000  Uiso   1.00
C1403  C     0.96681   0.97812   0.73301   0.00000  Uiso   1.00
C1404  C     0.70004   0.68860   0.76663   0.00000  Uiso   1.00
C1405  C     0.99956   0.95724   0.75206   0.00000  Uiso   1.00
C1406  C     0.66724   0.70947   0.74767   0.00000  Uiso   1.00
C1407  C     0.84941   0.81006   0.78040   0.00000  Uiso   1.00
C1408  C     0.81727   0.85658   0.71957   0.00000  Uiso   1.00
C1409  C     0.79977   0.81011   0.78042   0.00000  Uiso   1.00
C1410  C     0.86691   0.85654   0.71956   0.00000  Uiso   1.00
C1411  C     0.97279   0.83328   0.83609   0.00000  Uiso   1.00
C1412  C     0.69387   0.83366   0.66394   0.00000  Uiso   1.00
C1413  C     0.95792   0.83245   0.88520   0.00000  Uiso   1.00
C1414  C     0.70890   0.83739   0.61503   0.00000  Uiso   1.00
C1415  C     0.97516   0.81949   0.95636   0.00000  Uiso   1.00
C1416  C     0.69365   0.85961   0.54539   0.00000  Uiso   1.00
C1417  C     0.99117   0.82328   0.90997   0.00000  Uiso   1.00
C1418  C     0.67670   0.85149   0.59110   0.00000  Uiso   1.00
C1419  C     0.90901   0.83925   0.90729   0.00000  Uiso   1.00
C1420  C     0.75764   0.83025   0.59275   0.00000  Uiso   1.00
C1421  C     0.89203   0.83658   0.95420   0.00000  Uiso   1.00
C1422  C     0.77616   0.83968   0.54699   0.00000  Uiso   1.00
C1423  C     0.92594   0.82564   0.97857   0.00000  Uiso   1.00
C1424  C     0.74296   0.85393   0.52323   0.00000  Uiso   1.00
C1425  C     0.84222   0.84315   0.97731   0.00000  Uiso   1.00
C1426  C     0.82651   0.83562   0.52437   0.00000  Uiso   1.00
Cu1427 Cu    0.71355   0.83334   0.75000   0.00000  Uiso   1.00
Cu1428 Cu    0.95311   0.83333   0.75000   0.00000  Uiso   1.00
H1429  H     0.93611   0.81231   0.54376   0.00000  Uiso   1.00
H1430  H     0.73425   0.87425   0.95942   0.00000  Uiso   1.00
H1431  H     0.78031   0.81737   0.61221   0.00000  Uiso   1.00
H1432  H     0.88463   0.84534   0.88683   0.00000  Uiso   1.00
H1433  H     0.97218   0.85733   0.60787   0.00000  Uiso   1.00
H1434  H     0.69584   0.81782   0.89345   0.00000  Uiso   1.00
H1435  H     0.66781   0.81102   0.97484   0.00000  Uiso   1.00
H1436  H     0.66839   0.87122   0.52751   0.00000  Uiso   1.00
H1437  H     0.85353   0.82121   0.58311   0.00000  Uiso   1.00
H1438  H     0.81707   0.86612   0.92020   0.00000  Uiso   1.00
H1439  H     0.94184   0.96110   0.71890   0.00000  Uiso   1.00
H1440  H     0.72510   0.70562   0.78065   0.00000  Uiso   1.00
H1441  H     0.86115   0.79126   0.80462   0.00000  Uiso   1.00
H1442  H     0.80553   0.87537   0.69534   0.00000  Uiso   1.00
H1443  H     0.77405   0.79143   0.80469   0.00000  Uiso   1.00
H1444  H     0.89262   0.87521   0.69528   0.00000  Uiso   1.00
N1445  N     0.78403   0.83334   0.74999   0.00000  Uiso   1.00
N1446  N     0.88264   0.83332   0.75001   0.00000  Uiso   1.00
O1447  O     0.70625   0.77322   0.75000   0.00000  Uiso   1.00
O1448  O     0.96042   0.89345   0.75000   0.00000  Uiso   1.00
O1449  O     0.96039   0.77321   0.75001   0.00000  Uiso   1.00
O1450  O     0.70628   0.89346   0.75000   0.00000  Uiso   1.00
O1451  O     0.68519   0.83334   0.81492   0.00000  Uiso   1.00
O1452  O     0.98148   0.83332   0.68509   0.00000  Uiso   1.00
O1453  O     0.93933   0.83333   0.81492   0.00000  Uiso   1.00
O1454  O     0.72733   0.83333   0.68508   0.00000  Uiso   1.00
C1455  C     0.93373   0.70795   0.70725   0.00000  Uiso   1.00
C1456  C     0.88323   0.70587   0.72608   0.00000  Uiso   1.00
C1457  C     0.85161   0.72688   0.70587   0.00000  Uiso   1.00
C1458  C     0.87018   0.75008   0.66679   0.00000  Uiso   1.00
C1459  C     0.92040   0.75209   0.64769   0.00000  Uiso   1.00
C1460  C     0.95214   0.73100   0.66769   0.00000  Uiso   1.00
H1461  H     0.86852   0.68878   0.75690   0.00000  Uiso   1.00
H1462  H     0.81273   0.72556   0.72077   0.00000  Uiso   1.00
H1463  H     0.84567   0.76661   0.65143   0.00000  Uiso   1.00
H1464  H     0.93477   0.77019   0.61753   0.00000  Uiso   1.00
H1465  H     0.99101   0.73312   0.65284   0.00000  Uiso   1.00
C1466  C     0.73400   0.95890   0.79147   0.00000  Uiso   1.00
C1467  C     0.71653   0.93570   0.83106   0.00000  Uiso   1.00
C1468  C     0.74905   0.91480   0.85031   0.00000  Uiso   1.00
C1469  C     0.79910   0.91719   0.83042   0.00000  Uiso   1.00
C1470  C     0.81673   0.94059   0.79135   0.00000  Uiso   1.00
C1471  C     0.78434   0.96138   0.77189   0.00000  Uiso   1.00
H1472  H     0.67780   0.93330   0.84652   0.00000  Uiso   1.00
H1473  H     0.73542   0.89655   0.88046   0.00000  Uiso   1.00
H1474  H     0.82423   0.90079   0.84514   0.00000  Uiso   1.00
H1475  H     0.85548   0.94220   0.77587   0.00000  Uiso   1.00
H1476  H     0.79833   0.97865   0.74107   0.00000  Uiso   1.00
loop_
_geom_bond_atom_site_label_1
_geom_bond_atom_site_label_2
_geom_bond_distance
_geom_bond_site_symmetry_2
_ccdc_geom_bond_type
C1     O53     1.291   .     A
C1     C12     1.450   .     S
C1     O219    1.287   1_455 S
C2     C11     1.450   .     S
C2     O54     1.292   .     A
C2     O138    1.287   .     S
C3     H43     1.076   .     S
C3     C32     1.417   .     A
C3     C5      1.386   .     A
C4     C6      1.386   .     A
C4     H44     1.075   .     S
C4     C31     1.417   .     A
C5     H35     1.084   .     S
C5     C767    1.390   1_554 S
C6     H36     1.084   .     S
C6     C768    1.389   .     S
C7     C61     1.484   .     S
C7     C501    1.388   1_545 S
C7     C94     1.413   .     S
C8     C72     1.483   .     S
C8     C256    1.387   .     S
C8     C175    1.414   1_455 S
C9     H45     1.085   .     S
C9     C11     1.400   .     A
C9     C253    1.388   .     S
C10    H46     1.085   .     S
C10    C12     1.399   .     A
C10    C500    1.387   1_545 S
C11    C90     1.414   .     S
C12    C171    1.413   1_455 S
C13    H47     1.082   .     S
C13    N52     1.367   .     A
C13    C15     1.415   .     A
C14    N51     1.367   .     A
C14    H48     1.082   .     S
C14    C16     1.415   .     A
C15    N51     1.366   .     A
C15    H49     1.082   .     S
C16    H50     1.082   .     S
C16    N52     1.366   .     A
C17    O59     1.293   .     A
C17    C19     1.466   .     S
C17    O139    1.295   .     S
C18    C20     1.464   .     S
C18    O60     1.293   .     A
C18    O222    1.294   1_455 S
C19    C23     1.399   .     A
C19    C25     1.399   .     A
C20    C24     1.398   .     A
C20    C26     1.398   .     A
C21    C29     1.404   .     A
C21    C23     1.391   .     A
C21    H123    1.083   .     S
C22    C30     1.404   .     A
C22    H42     1.083   .     S
C22    C24     1.391   .     A
C23    H122    1.083   .     S
C24    H203    1.083   1_455 S
C25    H38     1.075   .     S
C25    C27     1.406   .     A
C26    H37     1.075   .     S
C26    C28     1.405   .     A
C27    C29     1.418   .     A
C27    C31     1.427   .     A
C28    C32     1.427   .     A
C28    C30     1.418   .     A
C29    C743    1.390   .     S
C30    C744    1.389   1_554 S
C31    C770    1.425   .     S
C32    C769    1.425   1_554 S
Cu33   O56     1.963   .     S
Cu33   O53     1.964   .     S
Cu33   O60     1.944   .     S
Cu33   O57     1.957   .     S
Cu33   N51     2.010   .     S
Cu33   Cu198   2.674   1_455 S
Cu34   O55     1.963   .     S
Cu34   O54     1.964   .     S
Cu34   O59     1.944   .     S
Cu34   N52     2.010   .     S
Cu34   O58     1.957   .     S
Cu34   Cu115   2.674   .     S
H39    C106    1.083   .     S
H40    C187    1.083   1_455 S
H41    C185    1.083   1_455 S
O55    C83     1.287   .     S
O56    C166    1.287   1_455 S
O57    C181    1.295   1_455 S
O58    C100    1.294   .     S
C61    C66     1.406   .     A
C61    C62     1.404   .     A
C62    C63     1.399   .     A
C62    H67     1.082   .     S
C63    H68     1.083   .     S
C63    C64     1.398   .     A
C64    H69     1.082   .     S
C64    C65     1.398   .     A
C65    C66     1.399   .     A
C65    H70     1.082   .     S
C66    H71     1.083   .     S
C72    C77     1.404   .     A
C72    C73     1.406   .     A
C73    C74     1.399   .     A
C73    H78     1.083   .     S
C74    C75     1.398   .     A
C74    H79     1.082   .     S
C75    H80     1.082   .     S
C75    C76     1.397   .     A
C76    C77     1.399   .     A
C76    H81     1.082   .     S
C77    H82     1.082   .     S
C83    O135    1.291   .     A
C83    C94     1.450   .     S
C84    C93     1.450   .     S
C84    O136    1.292   .     A
C84    O220    1.287   .     S
C85    H125    1.076   .     S
C85    C114    1.417   .     A
C85    C87     1.386   .     A
C86    C88     1.386   .     A
C86    H126    1.075   .     S
C86    C113    1.417   .     A
C87    H117    1.084   .     S
C87    C849    1.390   1_554 S
C88    H118    1.084   .     S
C88    C850    1.389   .     S
C89    C143    1.484   .     S
C89    C583    1.388   1_545 S
C89    C176    1.413   .     S
C90    C154    1.483   .     S
C90    C338    1.387   .     S
C91    H127    1.085   .     S
C91    C93     1.400   .     A
C91    C335    1.388   .     S
C92    H128    1.085   .     S
C92    C94     1.399   .     A
C92    C582    1.387   1_545 S
C93    C172    1.414   .     S
C95    H129    1.082   .     S
C95    N134    1.367   .     A
C95    C97     1.415   .     A
C96    N133    1.367   .     A
C96    H130    1.082   .     S
C96    C98     1.415   .     A
C97    N133    1.366   .     A
C97    H131    1.082   .     S
C98    H132    1.082   .     S
C98    N134    1.366   .     A
C99    O141    1.293   .     A
C99    C101    1.466   .     S
C99    O221    1.295   .     S
C100   C102    1.464   .     S
C100   O142    1.293   .     A
C101   C105    1.399   .     A
C101   C107    1.399   .     A
C102   C106    1.398   .     A
C102   C108    1.398   .     A
C103   C111    1.404   .     A
C103   C105    1.391   .     A
C103   H205    1.083   .     S
C104   C112    1.404   .     A
C104   H124    1.083   .     S
C104   C106    1.391   .     A
C105   H204    1.083   .     S
C107   H120    1.075   .     S
C107   C109    1.406   .     A
C108   H119    1.075   .     S
C108   C110    1.405   .     A
C109   C111    1.418   .     A
C109   C113    1.427   .     A
C110   C114    1.427   .     A
C110   C112    1.418   .     A
C111   C825    1.390   .     S
C112   C826    1.389   1_554 S
C113   C852    1.425   .     S
C114   C851    1.425   1_554 S
Cu115  O138    1.963   .     S
Cu115  O135    1.964   .     S
Cu115  O142    1.944   .     S
Cu115  O139    1.957   .     S
Cu115  N133    2.010   .     S
Cu116  O137    1.963   .     S
Cu116  O136    1.964   .     S
Cu116  O141    1.944   .     S
Cu116  N134    2.010   .     S
Cu116  O140    1.957   .     S
Cu116  Cu197   2.674   .     S
H121   C188    1.083   .     S
O137   C165    1.287   .     S
O140   C182    1.294   .     S
C143   C148    1.406   .     A
C143   C144    1.404   .     A
C144   C145    1.399   .     A
C144   H149    1.082   .     S
C145   H150    1.083   .     S
C145   C146    1.398   .     A
C146   H151    1.082   .     S
C146   C147    1.398   .     A
C147   C148    1.399   .     A
C147   H152    1.082   .     S
C148   H153    1.083   .     S
C154   C159    1.404   .     A
C154   C155    1.406   .     A
C155   C156    1.399   .     A
C155   H160    1.083   .     S
C156   C157    1.398   .     A
C156   H161    1.082   .     S
C157   H162    1.082   .     S
C157   C158    1.397   .     A
C158   C159    1.399   .     A
C158   H163    1.082   .     S
C159   H164    1.082   .     S
C165   O217    1.291   .     A
C165   C176    1.450   .     S
C166   C175    1.450   .     S
C166   O218    1.292   .     A
C166   O56     1.287   1_655 S
C167   H207    1.076   .     S
C167   C196    1.417   .     A
C167   C169    1.386   .     A
C168   C170    1.386   .     A
C168   H208    1.075   .     S
C168   C195    1.417   .     A
C169   H199    1.084   .     S
C169   C931    1.390   1_554 S
C170   H200    1.084   .     S
C170   C932    1.389   .     S
C171   C225    1.484   .     S
C171   C665    1.388   1_545 S
C171   C12     1.413   1_655 S
C172   C236    1.483   .     S
C172   C420    1.387   .     S
C173   H209    1.085   .     S
C173   C175    1.400   .     A
C173   C417    1.388   .     S
C174   H210    1.085   .     S
C174   C176    1.399   .     A
C174   C664    1.387   1_545 S
C175   C8      1.414   1_655 S
C177   H211    1.082   .     S
C177   N216    1.367   .     A
C177   C179    1.415   .     A
C178   N215    1.367   .     A
C178   H212    1.082   .     S
C178   C180    1.415   .     A
C179   N215    1.366   .     A
C179   H213    1.082   .     S
C180   H214    1.082   .     S
C180   N216    1.366   .     A
C181   O223    1.293   .     A
C181   C183    1.466   .     S
C181   O57     1.295   1_655 S
C182   C184    1.464   .     S
C182   O224    1.293   .     A
C183   C187    1.399   .     A
C183   C189    1.399   .     A
C184   C188    1.398   .     A
C184   C190    1.398   .     A
C185   C193    1.404   .     A
C185   C187    1.391   .     A
C185   H41     1.083   1_655 S
C186   C194    1.404   .     A
C186   H206    1.083   .     S
C186   C188    1.391   .     A
C187   H40     1.083   1_655 S
C189   H202    1.075   .     S
C189   C191    1.406   .     A
C190   H201    1.075   .     S
C190   C192    1.405   .     A
C191   C193    1.418   .     A
C191   C195    1.427   .     A
C192   C196    1.427   .     A
C192   C194    1.418   .     A
C193   C907    1.390   .     S
C194   C908    1.389   1_554 S
C195   C934    1.425   .     S
C196   C933    1.425   1_554 S
Cu197  O220    1.963   .     S
Cu197  O217    1.964   .     S
Cu197  O224    1.944   .     S
Cu197  O221    1.957   .     S
Cu197  N215    2.010   .     S
Cu198  O219    1.963   .     S
Cu198  O218    1.964   .     S
Cu198  O223    1.944   .     S
Cu198  N216    2.010   .     S
Cu198  O222    1.957   .     S
Cu198  Cu33    2.674   1_655 S
H203   C24     1.083   1_655 S
O219   C1      1.287   1_655 S
O222   C18     1.294   1_655 S
C225   C230    1.406   .     A
C225   C226    1.404   .     A
C226   C227    1.399   .     A
C226   H231    1.082   .     S
C227   H232    1.083   .     S
C227   C228    1.398   .     A
C228   H233    1.082   .     S
C228   C229    1.398   .     A
C229   C230    1.399   .     A
C229   H234    1.082   .     S
C230   H235    1.083   .     S
C236   C241    1.404   .     A
C236   C237    1.406   .     A
C237   C238    1.399   .     A
C237   H242    1.083   .     S
C238   C239    1.398   .     A
C238   H243    1.082   .     S
C239   H244    1.082   .     S
C239   C240    1.397   .     A
C240   C241    1.399   .     A
C240   H245    1.082   .     S
C241   H246    1.082   .     S
C247   O299    1.291   .     A
C247   C258    1.450   .     S
C247   O465    1.287   1_455 S
C248   C257    1.450   .     S
C248   O300    1.292   .     A
C248   O384    1.287   .     S
C249   H289    1.076   .     S
C249   C278    1.417   .     A
C249   C251    1.386   .     A
C250   C252    1.386   .     A
C250   H290    1.075   .     S
C250   C277    1.417   .     A
C251   H281    1.084   .     S
C251   C1013   1.390   1_554 S
C252   H282    1.084   .     S
C252   C1014   1.389   .     S
C253   C307    1.484   .     S
C253   C340    1.413   .     S
C254   C318    1.483   .     S
C254   C502    1.387   .     S
C254   C421    1.414   1_455 S
C255   H291    1.085   .     S
C255   C257    1.400   .     A
C255   C499    1.388   .     S
C256   H292    1.085   .     S
C256   C258    1.399   .     A
C257   C336    1.414   .     S
C258   C417    1.413   1_455 S
C259   H293    1.082   .     S
C259   N298    1.367   .     A
C259   C261    1.415   .     A
C260   N297    1.367   .     A
C260   H294    1.082   .     S
C260   C262    1.415   .     A
C261   N297    1.366   .     A
C261   H295    1.082   .     S
C262   H296    1.082   .     S
C262   N298    1.366   .     A
C263   O305    1.293   .     A
C263   C265    1.466   .     S
C263   O385    1.295   .     S
C264   C266    1.464   .     S
C264   O306    1.293   .     A
C264   O468    1.294   1_455 S
C265   C269    1.399   .     A
C265   C271    1.399   .     A
C266   C270    1.398   .     A
C266   C272    1.398   .     A
C267   C275    1.404   .     A
C267   C269    1.391   .     A
C267   H369    1.083   .     S
C268   C276    1.404   .     A
C268   H288    1.083   .     S
C268   C270    1.391   .     A
C269   H368    1.083   .     S
C270   H449    1.083   1_455 S
C271   H284    1.075   .     S
C271   C273    1.406   .     A
C272   H283    1.075   .     S
C272   C274    1.405   .     A
C273   C275    1.418   .     A
C273   C277    1.427   .     A
C274   C278    1.427   .     A
C274   C276    1.418   .     A
C275   C989    1.390   .     S
C276   C990    1.389   1_554 S
C277   C1016   1.425   .     S
C278   C1015   1.425   1_554 S
Cu279  O302    1.963   .     S
Cu279  O299    1.964   .     S
Cu279  O306    1.944   .     S
Cu279  O303    1.957   .     S
Cu279  N297    2.010   .     S
Cu279  Cu444   2.674   1_455 S
Cu280  O301    1.963   .     S
Cu280  O300    1.964   .     S
Cu280  O305    1.944   .     S
Cu280  N298    2.010   .     S
Cu280  O304    1.957   .     S
Cu280  Cu361   2.674   .     S
H285   C352    1.083   .     S
H286   C433    1.083   1_455 S
H287   C431    1.083   1_455 S
O301   C329    1.287   .     S
O302   C412    1.287   1_455 S
O303   C427    1.295   1_455 S
O304   C346    1.294   .     S
C307   C312    1.406   .     A
C307   C308    1.404   .     A
C308   C309    1.399   .     A
C308   H313    1.082   .     S
C309   H314    1.083   .     S
C309   C310    1.398   .     A
C310   H315    1.082   .     S
C310   C311    1.398   .     A
C311   C312    1.399   .     A
C311   H316    1.082   .     S
C312   H317    1.083   .     S
C318   C323    1.404   .     A
C318   C319    1.406   .     A
C319   C320    1.399   .     A
C319   H324    1.083   .     S
C320   C321    1.398   .     A
C320   H325    1.082   .     S
C321   H326    1.082   .     S
C321   C322    1.397   .     A
C322   C323    1.399   .     A
C322   H327    1.082   .     S
C323   H328    1.082   .     S
C329   O381    1.291   .     A
C329   C340    1.450   .     S
C330   C339    1.450   .     S
C330   O382    1.292   .     A
C330   O466    1.287   .     S
C331   H371    1.076   .     S
C331   C360    1.417   .     A
C331   C333    1.386   .     A
C332   C334    1.386   .     A
C332   H372    1.075   .     S
C332   C359    1.417   .     A
C333   H363    1.084   .     S
C333   C1095   1.390   1_554 S
C334   H364    1.084   .     S
C334   C1096   1.389   .     S
C335   C389    1.484   .     S
C335   C422    1.413   .     S
C336   C400    1.483   .     S
C336   C584    1.387   .     S
C337   H373    1.085   .     S
C337   C339    1.400   .     A
C337   C581    1.388   .     S
C338   H374    1.085   .     S
C338   C340    1.399   .     A
C339   C418    1.414   .     S
C341   H375    1.082   .     S
C341   N380    1.367   .     A
C341   C343    1.415   .     A
C342   N379    1.367   .     A
C342   H376    1.082   .     S
C342   C344    1.415   .     A
C343   N379    1.366   .     A
C343   H377    1.082   .     S
C344   H378    1.082   .     S
C344   N380    1.366   .     A
C345   O387    1.293   .     A
C345   C347    1.466   .     S
C345   O467    1.295   .     S
C346   C348    1.464   .     S
C346   O388    1.293   .     A
C347   C351    1.399   .     A
C347   C353    1.399   .     A
C348   C352    1.398   .     A
C348   C354    1.398   .     A
C349   C357    1.404   .     A
C349   C351    1.391   .     A
C349   H451    1.083   .     S
C350   C358    1.404   .     A
C350   H370    1.083   .     S
C350   C352    1.391   .     A
C351   H450    1.083   .     S
C353   H366    1.075   .     S
C353   C355    1.406   .     A
C354   H365    1.075   .     S
C354   C356    1.405   .     A
C355   C357    1.418   .     A
C355   C359    1.427   .     A
C356   C360    1.427   .     A
C356   C358    1.418   .     A
C357   C1071   1.390   .     S
C358   C1072   1.389   1_554 S
C359   C1098   1.425   .     S
C360   C1097   1.425   1_554 S
Cu361  O384    1.963   .     S
Cu361  O381    1.964   .     S
Cu361  O388    1.944   .     S
Cu361  O385    1.957   .     S
Cu361  N379    2.010   .     S
Cu362  O383    1.963   .     S
Cu362  O382    1.964   .     S
Cu362  O387    1.944   .     S
Cu362  N380    2.010   .     S
Cu362  O386    1.957   .     S
Cu362  Cu443   2.674   .     S
H367   C434    1.083   .     S
O383   C411    1.287   .     S
O386   C428    1.294   .     S
C389   C394    1.406   .     A
C389   C390    1.404   .     A
C390   C391    1.399   .     A
C390   H395    1.082   .     S
C391   H396    1.083   .     S
C391   C392    1.398   .     A
C392   H397    1.082   .     S
C392   C393    1.398   .     A
C393   C394    1.399   .     A
C393   H398    1.082   .     S
C394   H399    1.083   .     S
C400   C405    1.404   .     A
C400   C401    1.406   .     A
C401   C402    1.399   .     A
C401   H406    1.083   .     S
C402   C403    1.398   .     A
C402   H407    1.082   .     S
C403   H408    1.082   .     S
C403   C404    1.397   .     A
C404   C405    1.399   .     A
C404   H409    1.082   .     S
C405   H410    1.082   .     S
C411   O463    1.291   .     A
C411   C422    1.450   .     S
C412   C421    1.450   .     S
C412   O464    1.292   .     A
C412   O302    1.287   1_655 S
C413   H453    1.076   .     S
C413   C442    1.417   .     A
C413   C415    1.386   .     A
C414   C416    1.386   .     A
C414   H454    1.075   .     S
C414   C441    1.417   .     A
C415   H445    1.084   .     S
C415   C1177   1.390   1_554 S
C416   H446    1.084   .     S
C416   C1178   1.389   .     S
C417   C471    1.484   .     S
C417   C258    1.413   1_655 S
C418   C482    1.483   .     S
C418   C666    1.387   .     S
C419   H455    1.085   .     S
C419   C421    1.400   .     A
C419   C663    1.388   .     S
C420   H456    1.085   .     S
C420   C422    1.399   .     A
C421   C254    1.414   1_655 S
C423   H457    1.082   .     S
C423   N462    1.367   .     A
C423   C425    1.415   .     A
C424   N461    1.367   .     A
C424   H458    1.082   .     S
C424   C426    1.415   .     A
C425   N461    1.366   .     A
C425   H459    1.082   .     S
C426   H460    1.082   .     S
C426   N462    1.366   .     A
C427   O469    1.293   .     A
C427   C429    1.466   .     S
C427   O303    1.295   1_655 S
C428   C430    1.464   .     S
C428   O470    1.293   .     A
C429   C433    1.399   .     A
C429   C435    1.399   .     A
C430   C434    1.398   .     A
C430   C436    1.398   .     A
C431   C439    1.404   .     A
C431   C433    1.391   .     A
C431   H287    1.083   1_655 S
C432   C440    1.404   .     A
C432   H452    1.083   .     S
C432   C434    1.391   .     A
C433   H286    1.083   1_655 S
C435   H448    1.075   .     S
C435   C437    1.406   .     A
C436   H447    1.075   .     S
C436   C438    1.405   .     A
C437   C439    1.418   .     A
C437   C441    1.427   .     A
C438   C442    1.427   .     A
C438   C440    1.418   .     A
C439   C1153   1.390   .     S
C440   C1154   1.389   1_554 S
C441   C1180   1.425   .     S
C442   C1179   1.425   1_554 S
Cu443  O466    1.963   .     S
Cu443  O463    1.964   .     S
Cu443  O470    1.944   .     S
Cu443  O467    1.957   .     S
Cu443  N461    2.010   .     S
Cu444  O465    1.963   .     S
Cu444  O464    1.964   .     S
Cu444  O469    1.944   .     S
Cu444  N462    2.010   .     S
Cu444  O468    1.957   .     S
Cu444  Cu279   2.674   1_655 S
H449   C270    1.083   1_655 S
O465   C247    1.287   1_655 S
O468   C264    1.294   1_655 S
C471   C476    1.406   .     A
C471   C472    1.404   .     A
C472   C473    1.399   .     A
C472   H477    1.082   .     S
C473   H478    1.083   .     S
C473   C474    1.398   .     A
C474   H479    1.082   .     S
C474   C475    1.398   .     A
C475   C476    1.399   .     A
C475   H480    1.082   .     S
C476   H481    1.083   .     S
C482   C487    1.404   .     A
C482   C483    1.406   .     A
C483   C484    1.399   .     A
C483   H488    1.083   .     S
C484   C485    1.398   .     A
C484   H489    1.082   .     S
C485   H490    1.082   .     S
C485   C486    1.397   .     A
C486   C487    1.399   .     A
C486   H491    1.082   .     S
C487   H492    1.082   .     S
C493   O545    1.291   .     A
C493   C504    1.450   .     S
C493   O711    1.287   1_455 S
C494   C503    1.450   .     S
C494   O546    1.292   .     A
C494   O630    1.287   .     S
C495   H535    1.076   .     S
C495   C524    1.417   .     A
C495   C497    1.386   .     A
C496   C498    1.386   .     A
C496   H536    1.075   .     S
C496   C523    1.417   .     A
C497   H527    1.084   .     S
C497   C1259   1.390   1_554 S
C498   H528    1.084   .     S
C498   C1260   1.389   .     S
C499   C553    1.484   .     S
C499   C586    1.413   .     S
C500   C564    1.483   .     S
C500   C10     1.387   1_565 S
C500   C667    1.414   1_455 S
C501   H537    1.085   .     S
C501   C503    1.400   .     A
C501   C7      1.388   1_565 S
C502   H538    1.085   .     S
C502   C504    1.399   .     A
C503   C582    1.414   .     S
C504   C663    1.413   1_455 S
C505   H539    1.082   .     S
C505   N544    1.367   .     A
C505   C507    1.415   .     A
C506   N543    1.367   .     A
C506   H540    1.082   .     S
C506   C508    1.415   .     A
C507   N543    1.366   .     A
C507   H541    1.082   .     S
C508   H542    1.082   .     S
C508   N544    1.366   .     A
C509   O551    1.293   .     A
C509   C511    1.466   .     S
C509   O631    1.295   .     S
C510   C512    1.464   .     S
C510   O552    1.293   .     A
C510   O714    1.294   1_455 S
C511   C515    1.399   .     A
C511   C517    1.399   .     A
C512   C516    1.398   .     A
C512   C518    1.398   .     A
C513   C521    1.404   .     A
C513   C515    1.391   .     A
C513   H615    1.083   .     S
C514   C522    1.404   .     A
C514   H534    1.083   .     S
C514   C516    1.391   .     A
C515   H614    1.083   .     S
C516   H695    1.083   1_455 S
C517   H530    1.075   .     S
C517   C519    1.406   .     A
C518   H529    1.075   .     S
C518   C520    1.405   .     A
C519   C521    1.418   .     A
C519   C523    1.427   .     A
C520   C524    1.427   .     A
C520   C522    1.418   .     A
C521   C1235   1.390   .     S
C522   C1236   1.389   1_554 S
C523   C1262   1.425   .     S
C524   C1261   1.425   1_554 S
Cu525  O548    1.963   .     S
Cu525  O545    1.964   .     S
Cu525  O552    1.944   .     S
Cu525  O549    1.957   .     S
Cu525  N543    2.010   .     S
Cu525  Cu690   2.674   1_455 S
Cu526  O547    1.963   .     S
Cu526  O546    1.964   .     S
Cu526  O551    1.944   .     S
Cu526  N544    2.010   .     S
Cu526  O550    1.957   .     S
Cu526  Cu607   2.674   .     S
H531   C598    1.083   .     S
H532   C679    1.083   1_455 S
H533   C677    1.083   1_455 S
O547   C575    1.287   .     S
O548   C658    1.287   1_455 S
O549   C673    1.295   1_455 S
O550   C592    1.294   .     S
C553   C558    1.406   .     A
C553   C554    1.404   .     A
C554   C555    1.399   .     A
C554   H559    1.082   .     S
C555   H560    1.083   .     S
C555   C556    1.398   .     A
C556   H561    1.082   .     S
C556   C557    1.398   .     A
C557   C558    1.399   .     A
C557   H562    1.082   .     S
C558   H563    1.083   .     S
C564   C569    1.404   .     A
C564   C565    1.406   .     A
C565   C566    1.399   .     A
C565   H570    1.083   .     S
C566   C567    1.398   .     A
C566   H571    1.082   .     S
C567   H572    1.082   .     S
C567   C568    1.397   .     A
C568   C569    1.399   .     A
C568   H573    1.082   .     S
C569   H574    1.082   .     S
C575   O627    1.291   .     A
C575   C586    1.450   .     S
C576   C585    1.450   .     S
C576   O628    1.292   .     A
C576   O712    1.287   .     S
C577   H617    1.076   .     S
C577   C606    1.417   .     A
C577   C579    1.386   .     A
C578   C580    1.386   .     A
C578   H618    1.075   .     S
C578   C605    1.417   .     A
C579   H609    1.084   .     S
C579   C1341   1.390   1_554 S
C580   H610    1.084   .     S
C580   C1342   1.389   .     S
C581   C635    1.484   .     S
C581   C668    1.413   .     S
C582   C646    1.483   .     S
C582   C92     1.387   1_565 S
C583   H619    1.085   .     S
C583   C585    1.400   .     A
C583   C89     1.388   1_565 S
C584   H620    1.085   .     S
C584   C586    1.399   .     A
C585   C664    1.414   .     S
C587   H621    1.082   .     S
C587   N626    1.367   .     A
C587   C589    1.415   .     A
C588   N625    1.367   .     A
C588   H622    1.082   .     S
C588   C590    1.415   .     A
C589   N625    1.366   .     A
C589   H623    1.082   .     S
C590   H624    1.082   .     S
C590   N626    1.366   .     A
C591   O633    1.293   .     A
C591   C593    1.466   .     S
C591   O713    1.295   .     S
C592   C594    1.464   .     S
C592   O634    1.293   .     A
C593   C597    1.399   .     A
C593   C599    1.399   .     A
C594   C598    1.398   .     A
C594   C600    1.398   .     A
C595   C603    1.404   .     A
C595   C597    1.391   .     A
C595   H697    1.083   .     S
C596   C604    1.404   .     A
C596   H616    1.083   .     S
C596   C598    1.391   .     A
C597   H696    1.083   .     S
C599   H612    1.075   .     S
C599   C601    1.406   .     A
C600   H611    1.075   .     S
C600   C602    1.405   .     A
C601   C603    1.418   .     A
C601   C605    1.427   .     A
C602   C606    1.427   .     A
C602   C604    1.418   .     A
C603   C1317   1.390   .     S
C604   C1318   1.389   1_554 S
C605   C1344   1.425   .     S
C606   C1343   1.425   1_554 S
Cu607  O630    1.963   .     S
Cu607  O627    1.964   .     S
Cu607  O634    1.944   .     S
Cu607  O631    1.957   .     S
Cu607  N625    2.010   .     S
Cu608  O629    1.963   .     S
Cu608  O628    1.964   .     S
Cu608  O633    1.944   .     S
Cu608  N626    2.010   .     S
Cu608  O632    1.957   .     S
Cu608  Cu689   2.674   .     S
H613   C680    1.083   .     S
O629   C657    1.287   .     S
O632   C674    1.294   .     S
C635   C640    1.406   .     A
C635   C636    1.404   .     A
C636   C637    1.399   .     A
C636   H641    1.082   .     S
C637   H642    1.083   .     S
C637   C638    1.398   .     A
C638   H643    1.082   .     S
C638   C639    1.398   .     A
C639   C640    1.399   .     A
C639   H644    1.082   .     S
C640   H645    1.083   .     S
C646   C651    1.404   .     A
C646   C647    1.406   .     A
C647   C648    1.399   .     A
C647   H652    1.083   .     S
C648   C649    1.398   .     A
C648   H653    1.082   .     S
C649   H654    1.082   .     S
C649   C650    1.397   .     A
C650   C651    1.399   .     A
C650   H655    1.082   .     S
C651   H656    1.082   .     S
C657   O709    1.291   .     A
C657   C668    1.450   .     S
C658   C667    1.450   .     S
C658   O710    1.292   .     A
C658   O548    1.287   1_655 S
C659   H699    1.076   .     S
C659   C688    1.417   .     A
C659   C661    1.386   .     A
C660   C662    1.386   .     A
C660   H700    1.075   .     S
C660   C687    1.417   .     A
C661   H691    1.084   .     S
C661   C1423   1.390   1_554 S
C662   H692    1.084   .     S
C662   C1424   1.389   .     S
C663   C717    1.484   .     S
C663   C504    1.413   1_655 S
C664   C728    1.483   .     S
C664   C174    1.387   1_565 S
C665   H701    1.085   .     S
C665   C667    1.400   .     A
C665   C171    1.388   1_565 S
C666   H702    1.085   .     S
C666   C668    1.399   .     A
C667   C500    1.414   1_655 S
C669   H703    1.082   .     S
C669   N708    1.367   .     A
C669   C671    1.415   .     A
C670   N707    1.367   .     A
C670   H704    1.082   .     S
C670   C672    1.415   .     A
C671   N707    1.366   .     A
C671   H705    1.082   .     S
C672   H706    1.082   .     S
C672   N708    1.366   .     A
C673   O715    1.293   .     A
C673   C675    1.466   .     S
C673   O549    1.295   1_655 S
C674   C676    1.464   .     S
C674   O716    1.293   .     A
C675   C679    1.399   .     A
C675   C681    1.399   .     A
C676   C680    1.398   .     A
C676   C682    1.398   .     A
C677   C685    1.404   .     A
C677   C679    1.391   .     A
C677   H533    1.083   1_655 S
C678   C686    1.404   .     A
C678   H698    1.083   .     S
C678   C680    1.391   .     A
C679   H532    1.083   1_655 S
C681   H694    1.075   .     S
C681   C683    1.406   .     A
C682   H693    1.075   .     S
C682   C684    1.405   .     A
C683   C685    1.418   .     A
C683   C687    1.427   .     A
C684   C688    1.427   .     A
C684   C686    1.418   .     A
C685   C1399   1.390   .     S
C686   C1400   1.389   1_554 S
C687   C1426   1.425   .     S
C688   C1425   1.425   1_554 S
Cu689  O712    1.963   .     S
Cu689  O709    1.964   .     S
Cu689  O716    1.944   .     S
Cu689  O713    1.957   .     S
Cu689  N707    2.010   .     S
Cu690  O711    1.963   .     S
Cu690  O710    1.964   .     S
Cu690  O715    1.944   .     S
Cu690  N708    2.010   .     S
Cu690  O714    1.957   .     S
Cu690  Cu525   2.674   1_655 S
H695   C516    1.083   1_655 S
O711   C493    1.287   1_655 S
O714   C510    1.294   1_655 S
C717   C722    1.406   .     A
C717   C718    1.404   .     A
C718   C719    1.399   .     A
C718   H723    1.082   .     S
C719   H724    1.083   .     S
C719   C720    1.398   .     A
C720   H725    1.082   .     S
C720   C721    1.398   .     A
C721   C722    1.399   .     A
C721   H726    1.082   .     S
C722   H727    1.083   .     S
C728   C733    1.404   .     A
C728   C729    1.406   .     A
C729   C730    1.399   .     A
C729   H734    1.083   .     S
C730   C731    1.398   .     A
C730   H735    1.082   .     S
C731   H736    1.082   .     S
C731   C732    1.397   .     A
C732   C733    1.399   .     A
C732   H737    1.082   .     S
C733   H738    1.082   .     S
C739   O791    1.291   .     A
C739   C750    1.450   .     S
C739   O957    1.287   1_455 S
C740   C749    1.450   .     S
C740   O792    1.292   .     A
C740   O876    1.287   .     S
C741   H781    1.076   .     S
C741   C770    1.417   .     A
C741   C743    1.386   .     A
C742   C744    1.386   .     A
C742   H782    1.075   .     S
C742   C769    1.417   .     A
C743   H773    1.084   .     S
C744   H774    1.084   .     S
C744   C30     1.389   1_556 S
C745   C799    1.484   .     S
C745   C1239   1.388   1_545 S
C745   C832    1.413   .     S
C746   C810    1.483   .     S
C746   C994    1.387   .     S
C746   C913    1.414   1_455 S
C747   H783    1.085   .     S
C747   C749    1.400   .     A
C747   C991    1.388   .     S
C748   H784    1.085   .     S
C748   C750    1.399   .     A
C748   C1238   1.387   1_545 S
C749   C828    1.414   .     S
C750   C909    1.413   1_455 S
C751   H785    1.082   .     S
C751   N790    1.367   .     A
C751   C753    1.415   .     A
C752   N789    1.367   .     A
C752   H786    1.082   .     S
C752   C754    1.415   .     A
C753   N789    1.366   .     A
C753   H787    1.082   .     S
C754   H788    1.082   .     S
C754   N790    1.366   .     A
C755   O797    1.293   .     A
C755   C757    1.466   .     S
C755   O877    1.295   .     S
C756   C758    1.464   .     S
C756   O798    1.293   .     A
C756   O960    1.294   1_455 S
C757   C761    1.399   .     A
C757   C763    1.399   .     A
C758   C762    1.398   .     A
C758   C764    1.398   .     A
C759   C767    1.404   .     A
C759   C761    1.391   .     A
C759   H861    1.083   .     S
C760   C768    1.404   .     A
C760   H780    1.083   .     S
C760   C762    1.391   .     A
C761   H860    1.083   .     S
C762   H941    1.083   1_455 S
C763   H776    1.075   .     S
C763   C765    1.406   .     A
C764   H775    1.075   .     S
C764   C766    1.405   .     A
C765   C767    1.418   .     A
C765   C769    1.427   .     A
C766   C770    1.427   .     A
C766   C768    1.418   .     A
C767   C5      1.390   1_556 S
C769   C32     1.425   1_556 S
Cu771  O794    1.963   .     S
Cu771  O791    1.964   .     S
Cu771  O798    1.944   .     S
Cu771  O795    1.957   .     S
Cu771  N789    2.010   .     S
Cu771  Cu936   2.674   1_455 S
Cu772  O793    1.963   .     S
Cu772  O792    1.964   .     S
Cu772  O797    1.944   .     S
Cu772  N790    2.010   .     S
Cu772  O796    1.957   .     S
Cu772  Cu853   2.674   .     S
H777   C844    1.083   .     S
H778   C925    1.083   1_455 S
H779   C923    1.083   1_455 S
O793   C821    1.287   .     S
O794   C904    1.287   1_455 S
O795   C919    1.295   1_455 S
O796   C838    1.294   .     S
C799   C804    1.406   .     A
C799   C800    1.404   .     A
C800   C801    1.399   .     A
C800   H805    1.082   .     S
C801   H806    1.083   .     S
C801   C802    1.398   .     A
C802   H807    1.082   .     S
C802   C803    1.398   .     A
C803   C804    1.399   .     A
C803   H808    1.082   .     S
C804   H809    1.083   .     S
C810   C815    1.404   .     A
C810   C811    1.406   .     A
C811   C812    1.399   .     A
C811   H816    1.083   .     S
C812   C813    1.398   .     A
C812   H817    1.082   .     S
C813   H818    1.082   .     S
C813   C814    1.397   .     A
C814   C815    1.399   .     A
C814   H819    1.082   .     S
C815   H820    1.082   .     S
C821   O873    1.291   .     A
C821   C832    1.450   .     S
C822   C831    1.450   .     S
C822   O874    1.292   .     A
C822   O958    1.287   .     S
C823   H863    1.076   .     S
C823   C852    1.417   .     A
C823   C825    1.386   .     A
C824   C826    1.386   .     A
C824   H864    1.075   .     S
C824   C851    1.417   .     A
C825   H855    1.084   .     S
C826   H856    1.084   .     S
C826   C112    1.389   1_556 S
C827   C881    1.484   .     S
C827   C1321   1.388   1_545 S
C827   C914    1.413   .     S
C828   C892    1.483   .     S
C828   C1076   1.387   .     S
C829   H865    1.085   .     S
C829   C831    1.400   .     A
C829   C1073   1.388   .     S
C830   H866    1.085   .     S
C830   C832    1.399   .     A
C830   C1320   1.387   1_545 S
C831   C910    1.414   .     S
C833   H867    1.082   .     S
C833   N872    1.367   .     A
C833   C835    1.415   .     A
C834   N871    1.367   .     A
C834   H868    1.082   .     S
C834   C836    1.415   .     A
C835   N871    1.366   .     A
C835   H869    1.082   .     S
C836   H870    1.082   .     S
C836   N872    1.366   .     A
C837   O879    1.293   .     A
C837   C839    1.466   .     S
C837   O959    1.295   .     S
C838   C840    1.464   .     S
C838   O880    1.293   .     A
C839   C843    1.399   .     A
C839   C845    1.399   .     A
C840   C844    1.398   .     A
C840   C846    1.398   .     A
C841   C849    1.404   .     A
C841   C843    1.391   .     A
C841   H943    1.083   .     S
C842   C850    1.404   .     A
C842   H862    1.083   .     S
C842   C844    1.391   .     A
C843   H942    1.083   .     S
C845   H858    1.075   .     S
C845   C847    1.406   .     A
C846   H857    1.075   .     S
C846   C848    1.405   .     A
C847   C849    1.418   .     A
C847   C851    1.427   .     A
C848   C852    1.427   .     A
C848   C850    1.418   .     A
C849   C87     1.390   1_556 S
C851   C114    1.425   1_556 S
Cu853  O876    1.963   .     S
Cu853  O873    1.964   .     S
Cu853  O880    1.944   .     S
Cu853  O877    1.957   .     S
Cu853  N871    2.010   .     S
Cu854  O875    1.963   .     S
Cu854  O874    1.964   .     S
Cu854  O879    1.944   .     S
Cu854  N872    2.010   .     S
Cu854  O878    1.957   .     S
Cu854  Cu935   2.674   .     S
H859   C926    1.083   .     S
O875   C903    1.287   .     S
O878   C920    1.294   .     S
C881   C886    1.406   .     A
C881   C882    1.404   .     A
C882   C883    1.399   .     A
C882   H887    1.082   .     S
C883   H888    1.083   .     S
C883   C884    1.398   .     A
C884   H889    1.082   .     S
C884   C885    1.398   .     A
C885   C886    1.399   .     A
C885   H890    1.082   .     S
C886   H891    1.083   .     S
C892   C897    1.404   .     A
C892   C893    1.406   .     A
C893   C894    1.399   .     A
C893   H898    1.083   .     S
C894   C895    1.398   .     A
C894   H899    1.082   .     S
C895   H900    1.082   .     S
C895   C896    1.397   .     A
C896   C897    1.399   .     A
C896   H901    1.082   .     S
C897   H902    1.082   .     S
C903   O955    1.291   .     A
C903   C914    1.450   .     S
C904   C913    1.450   .     S
C904   O956    1.292   .     A
C904   O794    1.287   1_655 S
C905   H945    1.076   .     S
C905   C934    1.417   .     A
C905   C907    1.386   .     A
C906   C908    1.386   .     A
C906   H946    1.075   .     S
C906   C933    1.417   .     A
C907   H937    1.084   .     S
C908   H938    1.084   .     S
C908   C194    1.389   1_556 S
C909   C963    1.484   .     S
C909   C1403   1.388   1_545 S
C909   C750    1.413   1_655 S
C910   C974    1.483   .     S
C910   C1158   1.387   .     S
C911   H947    1.085   .     S
C911   C913    1.400   .     A
C911   C1155   1.388   .     S
C912   H948    1.085   .     S
C912   C914    1.399   .     A
C912   C1402   1.387   1_545 S
C913   C746    1.414   1_655 S
C915   H949    1.082   .     S
C915   N954    1.367   .     A
C915   C917    1.415   .     A
C916   N953    1.367   .     A
C916   H950    1.082   .     S
C916   C918    1.415   .     A
C917   N953    1.366   .     A
C917   H951    1.082   .     S
C918   H952    1.082   .     S
C918   N954    1.366   .     A
C919   O961    1.293   .     A
C919   C921    1.466   .     S
C919   O795    1.295   1_655 S
C920   C922    1.464   .     S
C920   O962    1.293   .     A
C921   C925    1.399   .     A
C921   C927    1.399   .     A
C922   C926    1.398   .     A
C922   C928    1.398   .     A
C923   C931    1.404   .     A
C923   C925    1.391   .     A
C923   H779    1.083   1_655 S
C924   C932    1.404   .     A
C924   H944    1.083   .     S
C924   C926    1.391   .     A
C925   H778    1.083   1_655 S
C927   H940    1.075   .     S
C927   C929    1.406   .     A
C928   H939    1.075   .     S
C928   C930    1.405   .     A
C929   C931    1.418   .     A
C929   C933    1.427   .     A
C930   C934    1.427   .     A
C930   C932    1.418   .     A
C931   C169    1.390   1_556 S
C933   C196    1.425   1_556 S
Cu935  O958    1.963   .     S
Cu935  O955    1.964   .     S
Cu935  O962    1.944   .     S
Cu935  O959    1.957   .     S
Cu935  N953    2.010   .     S
Cu936  O957    1.963   .     S
Cu936  O956    1.964   .     S
Cu936  O961    1.944   .     S
Cu936  N954    2.010   .     S
Cu936  O960    1.957   .     S
Cu936  Cu771   2.674   1_655 S
H941   C762    1.083   1_655 S
O957   C739    1.287   1_655 S
O960   C756    1.294   1_655 S
C963   C968    1.406   .     A
C963   C964    1.404   .     A
C964   C965    1.399   .     A
C964   H969    1.082   .     S
C965   H970    1.083   .     S
C965   C966    1.398   .     A
C966   H971    1.082   .     S
C966   C967    1.398   .     A
C967   C968    1.399   .     A
C967   H972    1.082   .     S
C968   H973    1.083   .     S
C974   C979    1.404   .     A
C974   C975    1.406   .     A
C975   C976    1.399   .     A
C975   H980    1.083   .     S
C976   C977    1.398   .     A
C976   H981    1.082   .     S
C977   H982    1.082   .     S
C977   C978    1.397   .     A
C978   C979    1.399   .     A
C978   H983    1.082   .     S
C979   H984    1.082   .     S
C985   O1037   1.291   .     A
C985   C996    1.450   .     S
C985   O1203   1.287   1_455 S
C986   C995    1.450   .     S
C986   O1038   1.292   .     A
C986   O1122   1.287   .     S
C987   H1027   1.076   .     S
C987   C1016   1.417   .     A
C987   C989    1.386   .     A
C988   C990    1.386   .     A
C988   H1028   1.075   .     S
C988   C1015   1.417   .     A
C989   H1019   1.084   .     S
C990   H1020   1.084   .     S
C990   C276    1.389   1_556 S
C991   C1045   1.484   .     S
C991   C1078   1.413   .     S
C992   C1056   1.483   .     S
C992   C1240   1.387   .     S
C992   C1159   1.414   1_455 S
C993   H1029   1.085   .     S
C993   C995    1.400   .     A
C993   C1237   1.388   .     S
C994   H1030   1.085   .     S
C994   C996    1.399   .     A
C995   C1074   1.414   .     S
C996   C1155   1.413   1_455 S
C997   H1031   1.082   .     S
C997   N1036   1.367   .     A
C997   C999    1.415   .     A
C998   N1035   1.367   .     A
C998   H1032   1.082   .     S
C998   C1000   1.415   .     A
C999   N1035   1.366   .     A
C999   H1033   1.082   .     S
C1000  H1034   1.082   .     S
C1000  N1036   1.366   .     A
C1001  O1043   1.293   .     A
C1001  C1003   1.466   .     S
C1001  O1123   1.295   .     S
C1002  C1004   1.464   .     S
C1002  O1044   1.293   .     A
C1002  O1206   1.294   1_455 S
C1003  C1007   1.399   .     A
C1003  C1009   1.399   .     A
C1004  C1008   1.398   .     A
C1004  C1010   1.398   .     A
C1005  C1013   1.404   .     A
C1005  C1007   1.391   .     A
C1005  H1107   1.083   .     S
C1006  C1014   1.404   .     A
C1006  H1026   1.083   .     S
C1006  C1008   1.391   .     A
C1007  H1106   1.083   .     S
C1008  H1187   1.083   1_455 S
C1009  H1022   1.075   .     S
C1009  C1011   1.406   .     A
C1010  H1021   1.075   .     S
C1010  C1012   1.405   .     A
C1011  C1013   1.418   .     A
C1011  C1015   1.427   .     A
C1012  C1016   1.427   .     A
C1012  C1014   1.418   .     A
C1013  C251    1.390   1_556 S
C1015  C278    1.425   1_556 S
Cu1017 O1040   1.963   .     S
Cu1017 O1037   1.964   .     S
Cu1017 O1044   1.944   .     S
Cu1017 O1041   1.957   .     S
Cu1017 N1035   2.010   .     S
Cu1017 Cu1182  2.674   1_455 S
Cu1018 O1039   1.963   .     S
Cu1018 O1038   1.964   .     S
Cu1018 O1043   1.944   .     S
Cu1018 N1036   2.010   .     S
Cu1018 O1042   1.957   .     S
Cu1018 Cu1099  2.674   .     S
H1023  C1090   1.083   .     S
H1024  C1171   1.083   1_455 S
H1025  C1169   1.083   1_455 S
O1039  C1067   1.287   .     S
O1040  C1150   1.287   1_455 S
O1041  C1165   1.295   1_455 S
O1042  C1084   1.294   .     S
C1045  C1050   1.406   .     A
C1045  C1046   1.404   .     A
C1046  C1047   1.399   .     A
C1046  H1051   1.082   .     S
C1047  H1052   1.083   .     S
C1047  C1048   1.398   .     A
C1048  H1053   1.082   .     S
C1048  C1049   1.398   .     A
C1049  C1050   1.399   .     A
C1049  H1054   1.082   .     S
C1050  H1055   1.083   .     S
C1056  C1061   1.404   .     A
C1056  C1057   1.406   .     A
C1057  C1058   1.399   .     A
C1057  H1062   1.083   .     S
C1058  C1059   1.398   .     A
C1058  H1063   1.082   .     S
C1059  H1064   1.082   .     S
C1059  C1060   1.397   .     A
C1060  C1061   1.399   .     A
C1060  H1065   1.082   .     S
C1061  H1066   1.082   .     S
C1067  O1119   1.291   .     A
C1067  C1078   1.450   .     S
C1068  C1077   1.450   .     S
C1068  O1120   1.292   .     A
C1068  O1204   1.287   .     S
C1069  H1109   1.076   .     S
C1069  C1098   1.417   .     A
C1069  C1071   1.386   .     A
C1070  C1072   1.386   .     A
C1070  H1110   1.075   .     S
C1070  C1097   1.417   .     A
C1071  H1101   1.084   .     S
C1072  H1102   1.084   .     S
C1072  C358    1.389   1_556 S
C1073  C1127   1.484   .     S
C1073  C1160   1.413   .     S
C1074  C1138   1.483   .     S
C1074  C1322   1.387   .     S
C1075  H1111   1.085   .     S
C1075  C1077   1.400   .     A
C1075  C1319   1.388   .     S
C1076  H1112   1.085   .     S
C1076  C1078   1.399   .     A
C1077  C1156   1.414   .     S
C1079  H1113   1.082   .     S
C1079  N1118   1.367   .     A
C1079  C1081   1.415   .     A
C1080  N1117   1.367   .     A
C1080  H1114   1.082   .     S
C1080  C1082   1.415   .     A
C1081  N1117   1.366   .     A
C1081  H1115   1.082   .     S
C1082  H1116   1.082   .     S
C1082  N1118   1.366   .     A
C1083  O1125   1.293   .     A
C1083  C1085   1.466   .     S
C1083  O1205   1.295   .     S
C1084  C1086   1.464   .     S
C1084  O1126   1.293   .     A
C1085  C1089   1.399   .     A
C1085  C1091   1.399   .     A
C1086  C1090   1.398   .     A
C1086  C1092   1.398   .     A
C1087  C1095   1.404   .     A
C1087  C1089   1.391   .     A
C1087  H1189   1.083   .     S
C1088  C1096   1.404   .     A
C1088  H1108   1.083   .     S
C1088  C1090   1.391   .     A
C1089  H1188   1.083   .     S
C1091  H1104   1.075   .     S
C1091  C1093   1.406   .     A
C1092  H1103   1.075   .     S
C1092  C1094   1.405   .     A
C1093  C1095   1.418   .     A
C1093  C1097   1.427   .     A
C1094  C1098   1.427   .     A
C1094  C1096   1.418   .     A
C1095  C333    1.390   1_556 S
C1097  C360    1.425   1_556 S
Cu1099 O1122   1.963   .     S
Cu1099 O1119   1.964   .     S
Cu1099 O1126   1.944   .     S
Cu1099 O1123   1.957   .     S
Cu1099 N1117   2.010   .     S
Cu1100 O1121   1.963   .     S
Cu1100 O1120   1.964   .     S
Cu1100 O1125   1.944   .     S
Cu1100 N1118   2.010   .     S
Cu1100 O1124   1.957   .     S
Cu1100 Cu1181  2.674   .     S
H1105  C1172   1.083   .     S
O1121  C1149   1.287   .     S
O1124  C1166   1.294   .     S
C1127  C1132   1.406   .     A
C1127  C1128   1.404   .     A
C1128  C1129   1.399   .     A
C1128  H1133   1.082   .     S
C1129  H1134   1.083   .     S
C1129  C1130   1.398   .     A
C1130  H1135   1.082   .     S
C1130  C1131   1.398   .     A
C1131  C1132   1.399   .     A
C1131  H1136   1.082   .     S
C1132  H1137   1.083   .     S
C1138  C1143   1.404   .     A
C1138  C1139   1.406   .     A
C1139  C1140   1.399   .     A
C1139  H1144   1.083   .     S
C1140  C1141   1.398   .     A
C1140  H1145   1.082   .     S
C1141  H1146   1.082   .     S
C1141  C1142   1.397   .     A
C1142  C1143   1.399   .     A
C1142  H1147   1.082   .     S
C1143  H1148   1.082   .     S
C1149  O1201   1.291   .     A
C1149  C1160   1.450   .     S
C1150  C1159   1.450   .     S
C1150  O1202   1.292   .     A
C1150  O1040   1.287   1_655 S
C1151  H1191   1.076   .     S
C1151  C1180   1.417   .     A
C1151  C1153   1.386   .     A
C1152  C1154   1.386   .     A
C1152  H1192   1.075   .     S
C1152  C1179   1.417   .     A
C1153  H1183   1.084   .     S
C1154  H1184   1.084   .     S
C1154  C440    1.389   1_556 S
C1155  C1209   1.484   .     S
C1155  C996    1.413   1_655 S
C1156  C1220   1.483   .     S
C1156  C1404   1.387   .     S
C1157  H1193   1.085   .     S
C1157  C1159   1.400   .     A
C1157  C1401   1.388   .     S
C1158  H1194   1.085   .     S
C1158  C1160   1.399   .     A
C1159  C992    1.414   1_655 S
C1161  H1195   1.082   .     S
C1161  N1200   1.367   .     A
C1161  C1163   1.415   .     A
C1162  N1199   1.367   .     A
C1162  H1196   1.082   .     S
C1162  C1164   1.415   .     A
C1163  N1199   1.366   .     A
C1163  H1197   1.082   .     S
C1164  H1198   1.082   .     S
C1164  N1200   1.366   .     A
C1165  O1207   1.293   .     A
C1165  C1167   1.466   .     S
C1165  O1041   1.295   1_655 S
C1166  C1168   1.464   .     S
C1166  O1208   1.293   .     A
C1167  C1171   1.399   .     A
C1167  C1173   1.399   .     A
C1168  C1172   1.398   .     A
C1168  C1174   1.398   .     A
C1169  C1177   1.404   .     A
C1169  C1171   1.391   .     A
C1169  H1025   1.083   1_655 S
C1170  C1178   1.404   .     A
C1170  H1190   1.083   .     S
C1170  C1172   1.391   .     A
C1171  H1024   1.083   1_655 S
C1173  H1186   1.075   .     S
C1173  C1175   1.406   .     A
C1174  H1185   1.075   .     S
C1174  C1176   1.405   .     A
C1175  C1177   1.418   .     A
C1175  C1179   1.427   .     A
C1176  C1180   1.427   .     A
C1176  C1178   1.418   .     A
C1177  C415    1.390   1_556 S
C1179  C442    1.425   1_556 S
Cu1181 O1204   1.963   .     S
Cu1181 O1201   1.964   .     S
Cu1181 O1208   1.944   .     S
Cu1181 O1205   1.957   .     S
Cu1181 N1199   2.010   .     S
Cu1182 O1203   1.963   .     S
Cu1182 O1202   1.964   .     S
Cu1182 O1207   1.944   .     S
Cu1182 N1200   2.010   .     S
Cu1182 O1206   1.957   .     S
Cu1182 Cu1017  2.674   1_655 S
H1187  C1008   1.083   1_655 S
O1203  C985    1.287   1_655 S
O1206  C1002   1.294   1_655 S
C1209  C1214   1.406   .     A
C1209  C1210   1.404   .     A
C1210  C1211   1.399   .     A
C1210  H1215   1.082   .     S
C1211  H1216   1.083   .     S
C1211  C1212   1.398   .     A
C1212  H1217   1.082   .     S
C1212  C1213   1.398   .     A
C1213  C1214   1.399   .     A
C1213  H1218   1.082   .     S
C1214  H1219   1.083   .     S
C1220  C1225   1.404   .     A
C1220  C1221   1.406   .     A
C1221  C1222   1.399   .     A
C1221  H1226   1.083   .     S
C1222  C1223   1.398   .     A
C1222  H1227   1.082   .     S
C1223  H1228   1.082   .     S
C1223  C1224   1.397   .     A
C1224  C1225   1.399   .     A
C1224  H1229   1.082   .     S
C1225  H1230   1.082   .     S
C1231  O1283   1.291   .     A
C1231  C1242   1.450   .     S
C1231  O1449   1.287   1_455 S
C1232  C1241   1.450   .     S
C1232  O1284   1.292   .     A
C1232  O1368   1.287   .     S
C1233  H1273   1.076   .     S
C1233  C1262   1.417   .     A
C1233  C1235   1.386   .     A
C1234  C1236   1.386   .     A
C1234  H1274   1.075   .     S
C1234  C1261   1.417   .     A
C1235  H1265   1.084   .     S
C1236  H1266   1.084   .     S
C1236  C522    1.389   1_556 S
C1237  C1291   1.484   .     S
C1237  C1324   1.413   .     S
C1238  C1302   1.483   .     S
C1238  C748    1.387   1_565 S
C1238  C1405   1.414   1_455 S
C1239  H1275   1.085   .     S
C1239  C1241   1.400   .     A
C1239  C745    1.388   1_565 S
C1240  H1276   1.085   .     S
C1240  C1242   1.399   .     A
C1241  C1320   1.414   .     S
C1242  C1401   1.413   1_455 S
C1243  H1277   1.082   .     S
C1243  N1282   1.367   .     A
C1243  C1245   1.415   .     A
C1244  N1281   1.367   .     A
C1244  H1278   1.082   .     S
C1244  C1246   1.415   .     A
C1245  N1281   1.366   .     A
C1245  H1279   1.082   .     S
C1246  H1280   1.082   .     S
C1246  N1282   1.366   .     A
C1247  O1289   1.293   .     A
C1247  C1249   1.466   .     S
C1247  O1369   1.295   .     S
C1248  C1250   1.464   .     S
C1248  O1290   1.293   .     A
C1248  O1452   1.294   1_455 S
C1249  C1253   1.399   .     A
C1249  C1255   1.399   .     A
C1250  C1254   1.398   .     A
C1250  C1256   1.398   .     A
C1251  C1259   1.404   .     A
C1251  C1253   1.391   .     A
C1251  H1353   1.083   .     S
C1252  C1260   1.404   .     A
C1252  H1272   1.083   .     S
C1252  C1254   1.391   .     A
C1253  H1352   1.083   .     S
C1254  H1433   1.083   1_455 S
C1255  H1268   1.075   .     S
C1255  C1257   1.406   .     A
C1256  H1267   1.075   .     S
C1256  C1258   1.405   .     A
C1257  C1259   1.418   .     A
C1257  C1261   1.427   .     A
C1258  C1262   1.427   .     A
C1258  C1260   1.418   .     A
C1259  C497    1.390   1_556 S
C1261  C524    1.425   1_556 S
Cu1263 O1286   1.963   .     S
Cu1263 O1283   1.964   .     S
Cu1263 O1290   1.944   .     S
Cu1263 O1287   1.957   .     S
Cu1263 N1281   2.010   .     S
Cu1263 Cu1428  2.674   1_455 S
Cu1264 O1285   1.963   .     S
Cu1264 O1284   1.964   .     S
Cu1264 O1289   1.944   .     S
Cu1264 N1282   2.010   .     S
Cu1264 O1288   1.957   .     S
Cu1264 Cu1345  2.674   .     S
H1269  C1336   1.083   .     S
H1270  C1417   1.083   1_455 S
H1271  C1415   1.083   1_455 S
O1285  C1313   1.287   .     S
O1286  C1396   1.287   1_455 S
O1287  C1411   1.295   1_455 S
O1288  C1330   1.294   .     S
C1291  C1296   1.406   .     A
C1291  C1292   1.404   .     A
C1292  C1293   1.399   .     A
C1292  H1297   1.082   .     S
C1293  H1298   1.083   .     S
C1293  C1294   1.398   .     A
C1294  H1299   1.082   .     S
C1294  C1295   1.398   .     A
C1295  C1296   1.399   .     A
C1295  H1300   1.082   .     S
C1296  H1301   1.083   .     S
C1302  C1307   1.404   .     A
C1302  C1303   1.406   .     A
C1303  C1304   1.399   .     A
C1303  H1308   1.083   .     S
C1304  C1305   1.398   .     A
C1304  H1309   1.082   .     S
C1305  H1310   1.082   .     S
C1305  C1306   1.397   .     A
C1306  C1307   1.399   .     A
C1306  H1311   1.082   .     S
C1307  H1312   1.082   .     S
C1313  O1365   1.291   .     A
C1313  C1324   1.450   .     S
C1314  C1323   1.450   .     S
C1314  O1366   1.292   .     A
C1314  O1450   1.287   .     S
C1315  H1355   1.076   .     S
C1315  C1344   1.417   .     A
C1315  C1317   1.386   .     A
C1316  C1318   1.386   .     A
C1316  H1356   1.075   .     S
C1316  C1343   1.417   .     A
C1317  H1347   1.084   .     S
C1318  H1348   1.084   .     S
C1318  C604    1.389   1_556 S
C1319  C1373   1.484   .     S
C1319  C1406   1.413   .     S
C1320  C1384   1.483   .     S
C1320  C830    1.387   1_565 S
C1321  H1357   1.085   .     S
C1321  C1323   1.400   .     A
C1321  C827    1.388   1_565 S
C1322  H1358   1.085   .     S
C1322  C1324   1.399   .     A
C1323  C1402   1.414   .     S
C1325  H1359   1.082   .     S
C1325  N1364   1.367   .     A
C1325  C1327   1.415   .     A
C1326  N1363   1.367   .     A
C1326  H1360   1.082   .     S
C1326  C1328   1.415   .     A
C1327  N1363   1.366   .     A
C1327  H1361   1.082   .     S
C1328  H1362   1.082   .     S
C1328  N1364   1.366   .     A
C1329  O1371   1.293   .     A
C1329  C1331   1.466   .     S
C1329  O1451   1.295   .     S
C1330  C1332   1.464   .     S
C1330  O1372   1.293   .     A
C1331  C1335   1.399   .     A
C1331  C1337   1.399   .     A
C1332  C1336   1.398   .     A
C1332  C1338   1.398   .     A
C1333  C1341   1.404   .     A
C1333  C1335   1.391   .     A
C1333  H1435   1.083   .     S
C1334  C1342   1.404   .     A
C1334  H1354   1.083   .     S
C1334  C1336   1.391   .     A
C1335  H1434   1.083   .     S
C1337  H1350   1.075   .     S
C1337  C1339   1.406   .     A
C1338  H1349   1.075   .     S
C1338  C1340   1.405   .     A
C1339  C1341   1.418   .     A
C1339  C1343   1.427   .     A
C1340  C1344   1.427   .     A
C1340  C1342   1.418   .     A
C1341  C579    1.390   1_556 S
C1343  C606    1.425   1_556 S
Cu1345 O1368   1.963   .     S
Cu1345 O1365   1.964   .     S
Cu1345 O1372   1.944   .     S
Cu1345 O1369   1.957   .     S
Cu1345 N1363   2.010   .     S
Cu1346 O1367   1.963   .     S
Cu1346 O1366   1.964   .     S
Cu1346 O1371   1.944   .     S
Cu1346 N1364   2.010   .     S
Cu1346 O1370   1.957   .     S
Cu1346 Cu1427  2.674   .     S
H1351  C1418   1.083   .     S
O1367  C1395   1.287   .     S
O1370  C1412   1.294   .     S
C1373  C1378   1.406   .     A
C1373  C1374   1.404   .     A
C1374  C1375   1.399   .     A
C1374  H1379   1.082   .     S
C1375  H1380   1.083   .     S
C1375  C1376   1.398   .     A
C1376  H1381   1.082   .     S
C1376  C1377   1.398   .     A
C1377  C1378   1.399   .     A
C1377  H1382   1.082   .     S
C1378  H1383   1.083   .     S
C1384  C1389   1.404   .     A
C1384  C1385   1.406   .     A
C1385  C1386   1.399   .     A
C1385  H1390   1.083   .     S
C1386  C1387   1.398   .     A
C1386  H1391   1.082   .     S
C1387  H1392   1.082   .     S
C1387  C1388   1.397   .     A
C1388  C1389   1.399   .     A
C1388  H1393   1.082   .     S
C1389  H1394   1.082   .     S
C1395  O1447   1.291   .     A
C1395  C1406   1.450   .     S
C1396  C1405   1.450   .     S
C1396  O1448   1.292   .     A
C1396  O1286   1.287   1_655 S
C1397  H1437   1.076   .     S
C1397  C1426   1.417   .     A
C1397  C1399   1.386   .     A
C1398  C1400   1.386   .     A
C1398  H1438   1.075   .     S
C1398  C1425   1.417   .     A
C1399  H1429   1.084   .     S
C1400  H1430   1.084   .     S
C1400  C686    1.389   1_556 S
C1401  C1455   1.484   .     S
C1401  C1242   1.413   1_655 S
C1402  C1466   1.483   .     S
C1402  C912    1.387   1_565 S
C1403  H1439   1.085   .     S
C1403  C1405   1.400   .     A
C1403  C909    1.388   1_565 S
C1404  H1440   1.085   .     S
C1404  C1406   1.399   .     A
C1405  C1238   1.414   1_655 S
C1407  H1441   1.082   .     S
C1407  N1446   1.367   .     A
C1407  C1409   1.415   .     A
C1408  N1445   1.367   .     A
C1408  H1442   1.082   .     S
C1408  C1410   1.415   .     A
C1409  N1445   1.366   .     A
C1409  H1443   1.082   .     S
C1410  H1444   1.082   .     S
C1410  N1446   1.366   .     A
C1411  O1453   1.293   .     A
C1411  C1413   1.466   .     S
C1411  O1287   1.295   1_655 S
C1412  C1414   1.464   .     S
C1412  O1454   1.293   .     A
C1413  C1417   1.399   .     A
C1413  C1419   1.399   .     A
C1414  C1418   1.398   .     A
C1414  C1420   1.398   .     A
C1415  C1423   1.404   .     A
C1415  C1417   1.391   .     A
C1415  H1271   1.083   1_655 S
C1416  C1424   1.404   .     A
C1416  H1436   1.083   .     S
C1416  C1418   1.391   .     A
C1417  H1270   1.083   1_655 S
C1419  H1432   1.075   .     S
C1419  C1421   1.406   .     A
C1420  H1431   1.075   .     S
C1420  C1422   1.405   .     A
C1421  C1423   1.418   .     A
C1421  C1425   1.427   .     A
C1422  C1426   1.427   .     A
C1422  C1424   1.418   .     A
C1423  C661    1.390   1_556 S
C1425  C688    1.425   1_556 S
Cu1427 O1450   1.963   .     S
Cu1427 O1447   1.964   .     S
Cu1427 O1454   1.944   .     S
Cu1427 O1451   1.957   .     S
Cu1427 N1445   2.010   .     S
Cu1428 O1449   1.963   .     S
Cu1428 O1448   1.964   .     S
Cu1428 O1453   1.944   .     S
Cu1428 N1446   2.010   .     S
Cu1428 O1452   1.957   .     S
Cu1428 Cu1263  2.674   1_655 S
H1433  C1254   1.083   1_655 S
O1449  C1231   1.287   1_655 S
O1452  C1248   1.294   1_655 S
C1455  C1460   1.406   .     A
C1455  C1456   1.404   .     A
C1456  C1457   1.399   .     A
C1456  H1461   1.082   .     S
C1457  H1462   1.083   .     S
C1457  C1458   1.398   .     A
C1458  H1463   1.082   .     S
C1458  C1459   1.398   .     A
C1459  C1460   1.399   .     A
C1459  H1464   1.082   .     S
C1460  H1465   1.083   .     S
C1466  C1471   1.404   .     A
C1466  C1467   1.406   .     A
C1467  C1468   1.399   .     A
C1467  H1472   1.083   .     S
C1468  C1469   1.398   .     A
C1468  H1473   1.082   .     S
C1469  H1474   1.082   .     S
C1469  C1470   1.397   .     A
C1470  C1471   1.399   .     A
C1470  H1475   1.082   .     S
C1471  H1476   1.082   .     S
