data_str_m2_o1_o2_pcu_sym.18
_audit_creation_date              2020-01-03
_audit_creation_method            'Materials Studio'
_symmetry_space_group_name_H-M    'P1'
_symmetry_Int_Tables_number       1
_symmetry_cell_setting            triclinic
loop_
_symmetry_equiv_pos_as_xyz
  x,y,z
_cell_length_a                    32.8421
_cell_length_b                    28.7325
_cell_length_c                    30.4923
_cell_angle_alpha                 89.4207
_cell_angle_beta                  93.0170
_cell_angle_gamma                 89.2770
loop_
_atom_site_label
_atom_site_type_symbol
_atom_site_fract_x
_atom_site_fract_y
_atom_site_fract_z
_atom_site_U_iso_or_equiv
_atom_site_adp_type
_atom_site_occupancy
C1     C     0.08762   0.16686   0.25304   0.00000  Uiso   1.00
C2     C     0.31164   0.20778   0.24157   0.00000  Uiso   1.00
C3     C     0.31309   0.12340   0.25085   0.00000  Uiso   1.00
C4     C     0.02012   0.20883   0.25169   0.00000  Uiso   1.00
C5     C     0.14922   0.19502   0.04447   0.00000  Uiso   1.00
C6     C     0.15210   0.12258   0.45215   0.00000  Uiso   1.00
C7     C     0.18726   0.19658   0.45481   0.00000  Uiso   1.00
C8     C     0.19319   0.12617   0.05091   0.00000  Uiso   1.00
C9     C     0.15479   0.20196   0.08955   0.00000  Uiso   1.00
C10    C     0.15105   0.12440   0.40607   0.00000  Uiso   1.00
C11    C     0.17944   0.20248   0.40964   0.00000  Uiso   1.00
C12    C     0.24575   0.16632   0.24726   0.00000  Uiso   1.00
C13    C     0.19243   0.12835   0.09687   0.00000  Uiso   1.00
C14    C     0.17235   0.16616   0.11679   0.00000  Uiso   1.00
C15    C     0.16483   0.16476   0.38398   0.00000  Uiso   1.00
C16    C     0.17027   0.15860   0.02472   0.00000  Uiso   1.00
C17    C     0.17128   0.15808   0.47648   0.00000  Uiso   1.00
C18    C     0.29055   0.16554   0.24505   0.00000  Uiso   1.00
C19    C     0.04282   0.16693   0.25585   0.00000  Uiso   1.00
C20    C     0.11225   0.05085   0.19256   0.00000  Uiso   1.00
C21    C     0.22618   0.28325   0.30156   0.00000  Uiso   1.00
C22    C     0.21876   0.04822   0.30971   0.00000  Uiso   1.00
C23    C     0.16863   0.16680   0.16510   0.00000  Uiso   1.00
C24    C     0.10791   0.28547   0.19782   0.00000  Uiso   1.00
C25    C     0.14914   0.24888   0.10473   0.00000  Uiso   1.00
C26    C     0.13366   0.08532   0.38243   0.00000  Uiso   1.00
C27    C     0.18083   0.24947   0.39258   0.00000  Uiso   1.00
C28    C     0.21502   0.09339   0.12307   0.00000  Uiso   1.00
C29    C     0.04286   0.08236   0.27453   0.00000  Uiso   1.00
C30    C     0.29173   0.24930   0.22281   0.00000  Uiso   1.00
C31    C     0.29450   0.07832   0.24474   0.00000  Uiso   1.00
C32    C     0.03788   0.25275   0.26427   0.00000  Uiso   1.00
C33    C     0.16555   0.16636   0.33513   0.00000  Uiso   1.00
C34    C     0.13996   0.02548   0.22269   0.00000  Uiso   1.00
C35    C     0.19439   0.30803   0.27610   0.00000  Uiso   1.00
C36    C     0.19288   0.02422   0.27779   0.00000  Uiso   1.00
C37    C     0.13896   0.30923   0.22390   0.00000  Uiso   1.00
C38    C     0.02195   0.12448   0.25880   0.00000  Uiso   1.00
Cl39   Cl    0.11675   0.23366   0.01250   0.00000  Uiso   1.00
Cl40   Cl    0.12800   0.07644   0.47942   0.00000  Uiso   1.00
Cl41   Cl    0.21563   0.23918   0.48469   0.00000  Uiso   1.00
Cl42   Cl    0.22385   0.08364   0.02619   0.00000  Uiso   1.00
Cu43   Cu    0.16667   0.21355   0.25000   0.00000  Uiso   1.00
Cu44   Cu    0.16667   0.11978   0.25000   0.00000  Uiso   1.00
N45    N     0.16667   0.28402   0.25000   0.00000  Uiso   1.00
N46    N     0.23305   0.06541   0.14393   0.00000  Uiso   1.00
N47    N     0.05973   0.04909   0.28753   0.00000  Uiso   1.00
N48    N     0.27578   0.28201   0.20715   0.00000  Uiso   1.00
N49    N     0.28026   0.04212   0.23939   0.00000  Uiso   1.00
N50    N     0.05193   0.28767   0.27520   0.00000  Uiso   1.00
N51    N     0.16667   0.04931   0.25000   0.00000  Uiso   1.00
N52    N     0.08993   0.07083   0.16825   0.00000  Uiso   1.00
N53    N     0.25195   0.26395   0.32209   0.00000  Uiso   1.00
N54    N     0.23956   0.06709   0.33550   0.00000  Uiso   1.00
N55    N     0.08269   0.26693   0.17684   0.00000  Uiso   1.00
N56    N     0.14573   0.28729   0.11506   0.00000  Uiso   1.00
N57    N     0.11994   0.05378   0.36386   0.00000  Uiso   1.00
N58    N     0.18097   0.28773   0.38042   0.00000  Uiso   1.00
O59    O     0.10655   0.20625   0.24999   0.00000  Uiso   1.00
O60    O     0.22679   0.12709   0.25000   0.00000  Uiso   1.00
O61    O     0.22679   0.20625   0.25000   0.00000  Uiso   1.00
O62    O     0.10655   0.12709   0.24999   0.00000  Uiso   1.00
O63    O     0.16666   0.20626   0.18573   0.00000  Uiso   1.00
O64    O     0.16667   0.12707   0.31427   0.00000  Uiso   1.00
O65    O     0.16667   0.20626   0.31427   0.00000  Uiso   1.00
O66    O     0.16666   0.12707   0.18573   0.00000  Uiso   1.00
C67    C     0.42095   0.16686   0.25304   0.00000  Uiso   1.00
C68    C     0.64497   0.20778   0.24157   0.00000  Uiso   1.00
C69    C     0.64642   0.12340   0.25085   0.00000  Uiso   1.00
C70    C     0.35345   0.20883   0.25169   0.00000  Uiso   1.00
C71    C     0.48255   0.19502   0.04447   0.00000  Uiso   1.00
C72    C     0.48543   0.12258   0.45215   0.00000  Uiso   1.00
C73    C     0.52060   0.19658   0.45481   0.00000  Uiso   1.00
C74    C     0.52652   0.12617   0.05091   0.00000  Uiso   1.00
C75    C     0.48812   0.20196   0.08955   0.00000  Uiso   1.00
C76    C     0.48439   0.12440   0.40607   0.00000  Uiso   1.00
C77    C     0.51278   0.20248   0.40964   0.00000  Uiso   1.00
C78    C     0.57908   0.16632   0.24726   0.00000  Uiso   1.00
C79    C     0.52577   0.12835   0.09687   0.00000  Uiso   1.00
C80    C     0.50569   0.16616   0.11679   0.00000  Uiso   1.00
C81    C     0.49817   0.16476   0.38398   0.00000  Uiso   1.00
C82    C     0.50360   0.15860   0.02472   0.00000  Uiso   1.00
C83    C     0.50461   0.15808   0.47648   0.00000  Uiso   1.00
C84    C     0.62389   0.16554   0.24505   0.00000  Uiso   1.00
C85    C     0.37615   0.16693   0.25585   0.00000  Uiso   1.00
C86    C     0.44558   0.05085   0.19256   0.00000  Uiso   1.00
C87    C     0.55951   0.28325   0.30156   0.00000  Uiso   1.00
C88    C     0.55209   0.04822   0.30971   0.00000  Uiso   1.00
C89    C     0.50196   0.16680   0.16510   0.00000  Uiso   1.00
C90    C     0.44124   0.28547   0.19782   0.00000  Uiso   1.00
C91    C     0.48247   0.24888   0.10473   0.00000  Uiso   1.00
C92    C     0.46699   0.08532   0.38243   0.00000  Uiso   1.00
C93    C     0.51417   0.24947   0.39258   0.00000  Uiso   1.00
C94    C     0.54836   0.09339   0.12307   0.00000  Uiso   1.00
C95    C     0.37620   0.08236   0.27453   0.00000  Uiso   1.00
C96    C     0.62506   0.24930   0.22281   0.00000  Uiso   1.00
C97    C     0.62784   0.07832   0.24474   0.00000  Uiso   1.00
C98    C     0.37121   0.25275   0.26427   0.00000  Uiso   1.00
C99    C     0.49889   0.16636   0.33513   0.00000  Uiso   1.00
C100   C     0.47329   0.02548   0.22269   0.00000  Uiso   1.00
C101   C     0.52772   0.30803   0.27610   0.00000  Uiso   1.00
C102   C     0.52622   0.02422   0.27779   0.00000  Uiso   1.00
C103   C     0.47230   0.30923   0.22390   0.00000  Uiso   1.00
C104   C     0.35528   0.12448   0.25880   0.00000  Uiso   1.00
Cl105  Cl    0.45009   0.23366   0.01250   0.00000  Uiso   1.00
Cl106  Cl    0.46133   0.07644   0.47942   0.00000  Uiso   1.00
Cl107  Cl    0.54897   0.23918   0.48469   0.00000  Uiso   1.00
Cl108  Cl    0.55718   0.08364   0.02619   0.00000  Uiso   1.00
Cu109  Cu    0.50000   0.21355   0.25000   0.00000  Uiso   1.00
Cu110  Cu    0.50000   0.11978   0.25000   0.00000  Uiso   1.00
N111   N     0.50000   0.28402   0.25000   0.00000  Uiso   1.00
N112   N     0.56638   0.06541   0.14393   0.00000  Uiso   1.00
N113   N     0.39306   0.04909   0.28753   0.00000  Uiso   1.00
N114   N     0.60911   0.28201   0.20715   0.00000  Uiso   1.00
N115   N     0.61360   0.04212   0.23939   0.00000  Uiso   1.00
N116   N     0.38526   0.28767   0.27520   0.00000  Uiso   1.00
N117   N     0.50000   0.04931   0.25000   0.00000  Uiso   1.00
N118   N     0.42326   0.07083   0.16825   0.00000  Uiso   1.00
N119   N     0.58529   0.26395   0.32209   0.00000  Uiso   1.00
N120   N     0.57290   0.06709   0.33550   0.00000  Uiso   1.00
N121   N     0.41602   0.26693   0.17684   0.00000  Uiso   1.00
N122   N     0.47907   0.28729   0.11506   0.00000  Uiso   1.00
N123   N     0.45327   0.05378   0.36386   0.00000  Uiso   1.00
N124   N     0.51430   0.28773   0.38042   0.00000  Uiso   1.00
O125   O     0.43988   0.20625   0.24999   0.00000  Uiso   1.00
O126   O     0.56012   0.12709   0.25000   0.00000  Uiso   1.00
O127   O     0.56012   0.20625   0.25000   0.00000  Uiso   1.00
O128   O     0.43988   0.12709   0.24999   0.00000  Uiso   1.00
O129   O     0.50000   0.20626   0.18573   0.00000  Uiso   1.00
O130   O     0.50000   0.12707   0.31427   0.00000  Uiso   1.00
O131   O     0.50000   0.20626   0.31427   0.00000  Uiso   1.00
O132   O     0.50000   0.12707   0.18573   0.00000  Uiso   1.00
C133   C     0.75428   0.16686   0.25304   0.00000  Uiso   1.00
C134   C     0.97830   0.20778   0.24157   0.00000  Uiso   1.00
C135   C     0.97976   0.12340   0.25085   0.00000  Uiso   1.00
C136   C     0.68679   0.20883   0.25169   0.00000  Uiso   1.00
C137   C     0.81588   0.19502   0.04447   0.00000  Uiso   1.00
C138   C     0.81876   0.12258   0.45215   0.00000  Uiso   1.00
C139   C     0.85393   0.19658   0.45481   0.00000  Uiso   1.00
C140   C     0.85986   0.12617   0.05091   0.00000  Uiso   1.00
C141   C     0.82146   0.20196   0.08955   0.00000  Uiso   1.00
C142   C     0.81772   0.12440   0.40607   0.00000  Uiso   1.00
C143   C     0.84611   0.20248   0.40964   0.00000  Uiso   1.00
C144   C     0.91242   0.16632   0.24726   0.00000  Uiso   1.00
C145   C     0.85910   0.12835   0.09687   0.00000  Uiso   1.00
C146   C     0.83902   0.16616   0.11679   0.00000  Uiso   1.00
C147   C     0.83150   0.16476   0.38398   0.00000  Uiso   1.00
C148   C     0.83694   0.15860   0.02472   0.00000  Uiso   1.00
C149   C     0.83794   0.15808   0.47648   0.00000  Uiso   1.00
C150   C     0.95722   0.16554   0.24505   0.00000  Uiso   1.00
C151   C     0.70949   0.16693   0.25585   0.00000  Uiso   1.00
C152   C     0.77892   0.05085   0.19256   0.00000  Uiso   1.00
C153   C     0.89285   0.28325   0.30156   0.00000  Uiso   1.00
C154   C     0.88543   0.04822   0.30971   0.00000  Uiso   1.00
C155   C     0.83530   0.16680   0.16510   0.00000  Uiso   1.00
C156   C     0.77458   0.28547   0.19782   0.00000  Uiso   1.00
C157   C     0.81580   0.24888   0.10473   0.00000  Uiso   1.00
C158   C     0.80033   0.08532   0.38243   0.00000  Uiso   1.00
C159   C     0.84750   0.24947   0.39258   0.00000  Uiso   1.00
C160   C     0.88169   0.09339   0.12307   0.00000  Uiso   1.00
C161   C     0.70953   0.08236   0.27453   0.00000  Uiso   1.00
C162   C     0.95840   0.24930   0.22281   0.00000  Uiso   1.00
C163   C     0.96117   0.07832   0.24474   0.00000  Uiso   1.00
C164   C     0.70454   0.25275   0.26427   0.00000  Uiso   1.00
C165   C     0.83222   0.16636   0.33513   0.00000  Uiso   1.00
C166   C     0.80663   0.02548   0.22269   0.00000  Uiso   1.00
C167   C     0.86105   0.30803   0.27610   0.00000  Uiso   1.00
C168   C     0.85955   0.02422   0.27779   0.00000  Uiso   1.00
C169   C     0.80563   0.30923   0.22390   0.00000  Uiso   1.00
C170   C     0.68861   0.12448   0.25880   0.00000  Uiso   1.00
Cl171  Cl    0.78342   0.23366   0.01250   0.00000  Uiso   1.00
Cl172  Cl    0.79466   0.07644   0.47942   0.00000  Uiso   1.00
Cl173  Cl    0.88230   0.23918   0.48469   0.00000  Uiso   1.00
Cl174  Cl    0.89051   0.08364   0.02619   0.00000  Uiso   1.00
Cu175  Cu    0.83333   0.21355   0.25000   0.00000  Uiso   1.00
Cu176  Cu    0.83333   0.11978   0.25000   0.00000  Uiso   1.00
N177   N     0.83333   0.28402   0.25000   0.00000  Uiso   1.00
N178   N     0.89971   0.06541   0.14393   0.00000  Uiso   1.00
N179   N     0.72640   0.04909   0.28753   0.00000  Uiso   1.00
N180   N     0.94244   0.28201   0.20715   0.00000  Uiso   1.00
N181   N     0.94693   0.04212   0.23939   0.00000  Uiso   1.00
N182   N     0.71859   0.28767   0.27520   0.00000  Uiso   1.00
N183   N     0.83333   0.04931   0.25000   0.00000  Uiso   1.00
N184   N     0.75660   0.07083   0.16825   0.00000  Uiso   1.00
N185   N     0.91862   0.26395   0.32209   0.00000  Uiso   1.00
N186   N     0.90623   0.06709   0.33550   0.00000  Uiso   1.00
N187   N     0.74935   0.26693   0.17684   0.00000  Uiso   1.00
N188   N     0.81240   0.28729   0.11506   0.00000  Uiso   1.00
N189   N     0.78660   0.05378   0.36386   0.00000  Uiso   1.00
N190   N     0.84764   0.28773   0.38042   0.00000  Uiso   1.00
O191   O     0.77321   0.20625   0.24999   0.00000  Uiso   1.00
O192   O     0.89345   0.12709   0.25000   0.00000  Uiso   1.00
O193   O     0.89345   0.20625   0.25000   0.00000  Uiso   1.00
O194   O     0.77321   0.12709   0.24999   0.00000  Uiso   1.00
O195   O     0.83333   0.20626   0.18573   0.00000  Uiso   1.00
O196   O     0.83334   0.12707   0.31427   0.00000  Uiso   1.00
O197   O     0.83334   0.20626   0.31427   0.00000  Uiso   1.00
O198   O     0.83333   0.12707   0.18573   0.00000  Uiso   1.00
C199   C     0.08762   0.50019   0.25304   0.00000  Uiso   1.00
C200   C     0.31164   0.54111   0.24157   0.00000  Uiso   1.00
C201   C     0.31309   0.45674   0.25085   0.00000  Uiso   1.00
C202   C     0.02012   0.54216   0.25169   0.00000  Uiso   1.00
C203   C     0.14922   0.52836   0.04447   0.00000  Uiso   1.00
C204   C     0.15210   0.45591   0.45215   0.00000  Uiso   1.00
C205   C     0.18726   0.52991   0.45481   0.00000  Uiso   1.00
C206   C     0.19319   0.45951   0.05091   0.00000  Uiso   1.00
C207   C     0.15479   0.53529   0.08955   0.00000  Uiso   1.00
C208   C     0.15105   0.45773   0.40607   0.00000  Uiso   1.00
C209   C     0.17944   0.53582   0.40964   0.00000  Uiso   1.00
C210   C     0.24575   0.49965   0.24726   0.00000  Uiso   1.00
C211   C     0.19243   0.46168   0.09687   0.00000  Uiso   1.00
C212   C     0.17235   0.49950   0.11679   0.00000  Uiso   1.00
C213   C     0.16483   0.49809   0.38398   0.00000  Uiso   1.00
C214   C     0.17027   0.49194   0.02472   0.00000  Uiso   1.00
C215   C     0.17128   0.49141   0.47648   0.00000  Uiso   1.00
C216   C     0.29055   0.49887   0.24505   0.00000  Uiso   1.00
C217   C     0.04282   0.50027   0.25585   0.00000  Uiso   1.00
C218   C     0.11225   0.38418   0.19256   0.00000  Uiso   1.00
C219   C     0.22618   0.61658   0.30156   0.00000  Uiso   1.00
C220   C     0.21876   0.38156   0.30971   0.00000  Uiso   1.00
C221   C     0.16863   0.50013   0.16510   0.00000  Uiso   1.00
C222   C     0.10791   0.61880   0.19782   0.00000  Uiso   1.00
C223   C     0.14914   0.58221   0.10473   0.00000  Uiso   1.00
C224   C     0.13366   0.41865   0.38243   0.00000  Uiso   1.00
C225   C     0.18083   0.58281   0.39258   0.00000  Uiso   1.00
C226   C     0.21502   0.42672   0.12307   0.00000  Uiso   1.00
C227   C     0.04286   0.41569   0.27453   0.00000  Uiso   1.00
C228   C     0.29173   0.58264   0.22281   0.00000  Uiso   1.00
C229   C     0.29450   0.41166   0.24474   0.00000  Uiso   1.00
C230   C     0.03788   0.58608   0.26427   0.00000  Uiso   1.00
C231   C     0.16555   0.49969   0.33513   0.00000  Uiso   1.00
C232   C     0.13996   0.35881   0.22269   0.00000  Uiso   1.00
C233   C     0.19439   0.64136   0.27610   0.00000  Uiso   1.00
C234   C     0.19288   0.35755   0.27779   0.00000  Uiso   1.00
C235   C     0.13896   0.64257   0.22390   0.00000  Uiso   1.00
C236   C     0.02195   0.45781   0.25880   0.00000  Uiso   1.00
Cl237  Cl    0.11675   0.56700   0.01250   0.00000  Uiso   1.00
Cl238  Cl    0.12800   0.40977   0.47942   0.00000  Uiso   1.00
Cl239  Cl    0.21563   0.57251   0.48469   0.00000  Uiso   1.00
Cl240  Cl    0.22385   0.41697   0.02619   0.00000  Uiso   1.00
Cu241  Cu    0.16667   0.54689   0.25000   0.00000  Uiso   1.00
Cu242  Cu    0.16667   0.45311   0.25000   0.00000  Uiso   1.00
N243   N     0.16667   0.61736   0.25000   0.00000  Uiso   1.00
N244   N     0.23305   0.39874   0.14393   0.00000  Uiso   1.00
N245   N     0.05973   0.38242   0.28753   0.00000  Uiso   1.00
N246   N     0.27578   0.61534   0.20715   0.00000  Uiso   1.00
N247   N     0.28026   0.37546   0.23939   0.00000  Uiso   1.00
N248   N     0.05193   0.62101   0.27520   0.00000  Uiso   1.00
N249   N     0.16667   0.38264   0.25000   0.00000  Uiso   1.00
N250   N     0.08993   0.40417   0.16825   0.00000  Uiso   1.00
N251   N     0.25195   0.59728   0.32209   0.00000  Uiso   1.00
N252   N     0.23956   0.40043   0.33550   0.00000  Uiso   1.00
N253   N     0.08269   0.60026   0.17684   0.00000  Uiso   1.00
N254   N     0.14573   0.62062   0.11506   0.00000  Uiso   1.00
N255   N     0.11994   0.38712   0.36386   0.00000  Uiso   1.00
N256   N     0.18097   0.62107   0.38042   0.00000  Uiso   1.00
O257   O     0.10655   0.53958   0.24999   0.00000  Uiso   1.00
O258   O     0.22679   0.46042   0.25000   0.00000  Uiso   1.00
O259   O     0.22679   0.53958   0.25000   0.00000  Uiso   1.00
O260   O     0.10655   0.46042   0.24999   0.00000  Uiso   1.00
O261   O     0.16666   0.53959   0.18573   0.00000  Uiso   1.00
O262   O     0.16667   0.46041   0.31427   0.00000  Uiso   1.00
O263   O     0.16667   0.53959   0.31427   0.00000  Uiso   1.00
O264   O     0.16666   0.46041   0.18573   0.00000  Uiso   1.00
C265   C     0.42095   0.50019   0.25304   0.00000  Uiso   1.00
C266   C     0.64497   0.54111   0.24157   0.00000  Uiso   1.00
C267   C     0.64642   0.45674   0.25085   0.00000  Uiso   1.00
C268   C     0.35345   0.54216   0.25169   0.00000  Uiso   1.00
C269   C     0.48255   0.52836   0.04447   0.00000  Uiso   1.00
C270   C     0.48543   0.45591   0.45215   0.00000  Uiso   1.00
C271   C     0.52060   0.52991   0.45481   0.00000  Uiso   1.00
C272   C     0.52652   0.45951   0.05091   0.00000  Uiso   1.00
C273   C     0.48812   0.53529   0.08955   0.00000  Uiso   1.00
C274   C     0.48439   0.45773   0.40607   0.00000  Uiso   1.00
C275   C     0.51278   0.53582   0.40964   0.00000  Uiso   1.00
C276   C     0.57908   0.49965   0.24726   0.00000  Uiso   1.00
C277   C     0.52577   0.46168   0.09687   0.00000  Uiso   1.00
C278   C     0.50569   0.49950   0.11679   0.00000  Uiso   1.00
C279   C     0.49817   0.49809   0.38398   0.00000  Uiso   1.00
C280   C     0.50360   0.49194   0.02472   0.00000  Uiso   1.00
C281   C     0.50461   0.49141   0.47648   0.00000  Uiso   1.00
C282   C     0.62389   0.49887   0.24505   0.00000  Uiso   1.00
C283   C     0.37615   0.50027   0.25585   0.00000  Uiso   1.00
C284   C     0.44558   0.38418   0.19256   0.00000  Uiso   1.00
C285   C     0.55951   0.61658   0.30156   0.00000  Uiso   1.00
C286   C     0.55209   0.38156   0.30971   0.00000  Uiso   1.00
C287   C     0.50196   0.50013   0.16510   0.00000  Uiso   1.00
C288   C     0.44124   0.61880   0.19782   0.00000  Uiso   1.00
C289   C     0.48247   0.58221   0.10473   0.00000  Uiso   1.00
C290   C     0.46699   0.41865   0.38243   0.00000  Uiso   1.00
C291   C     0.51417   0.58281   0.39258   0.00000  Uiso   1.00
C292   C     0.54836   0.42672   0.12307   0.00000  Uiso   1.00
C293   C     0.37620   0.41569   0.27453   0.00000  Uiso   1.00
C294   C     0.62506   0.58264   0.22281   0.00000  Uiso   1.00
C295   C     0.62784   0.41166   0.24474   0.00000  Uiso   1.00
C296   C     0.37121   0.58608   0.26427   0.00000  Uiso   1.00
C297   C     0.49889   0.49969   0.33513   0.00000  Uiso   1.00
C298   C     0.47329   0.35881   0.22269   0.00000  Uiso   1.00
C299   C     0.52772   0.64136   0.27610   0.00000  Uiso   1.00
C300   C     0.52622   0.35755   0.27779   0.00000  Uiso   1.00
C301   C     0.47230   0.64257   0.22390   0.00000  Uiso   1.00
C302   C     0.35528   0.45781   0.25880   0.00000  Uiso   1.00
Cl303  Cl    0.45009   0.56700   0.01250   0.00000  Uiso   1.00
Cl304  Cl    0.46133   0.40977   0.47942   0.00000  Uiso   1.00
Cl305  Cl    0.54897   0.57251   0.48469   0.00000  Uiso   1.00
Cl306  Cl    0.55718   0.41697   0.02619   0.00000  Uiso   1.00
Cu307  Cu    0.50000   0.54689   0.25000   0.00000  Uiso   1.00
Cu308  Cu    0.50000   0.45311   0.25000   0.00000  Uiso   1.00
N309   N     0.50000   0.61736   0.25000   0.00000  Uiso   1.00
N310   N     0.56638   0.39874   0.14393   0.00000  Uiso   1.00
N311   N     0.39306   0.38242   0.28753   0.00000  Uiso   1.00
N312   N     0.60911   0.61534   0.20715   0.00000  Uiso   1.00
N313   N     0.61360   0.37546   0.23939   0.00000  Uiso   1.00
N314   N     0.38526   0.62101   0.27520   0.00000  Uiso   1.00
N315   N     0.50000   0.38264   0.25000   0.00000  Uiso   1.00
N316   N     0.42326   0.40417   0.16825   0.00000  Uiso   1.00
N317   N     0.58529   0.59728   0.32209   0.00000  Uiso   1.00
N318   N     0.57290   0.40043   0.33550   0.00000  Uiso   1.00
N319   N     0.41602   0.60026   0.17684   0.00000  Uiso   1.00
N320   N     0.47907   0.62062   0.11506   0.00000  Uiso   1.00
N321   N     0.45327   0.38712   0.36386   0.00000  Uiso   1.00
N322   N     0.51430   0.62107   0.38042   0.00000  Uiso   1.00
O323   O     0.43988   0.53958   0.24999   0.00000  Uiso   1.00
O324   O     0.56012   0.46042   0.25000   0.00000  Uiso   1.00
O325   O     0.56012   0.53958   0.25000   0.00000  Uiso   1.00
O326   O     0.43988   0.46042   0.24999   0.00000  Uiso   1.00
O327   O     0.50000   0.53959   0.18573   0.00000  Uiso   1.00
O328   O     0.50000   0.46041   0.31427   0.00000  Uiso   1.00
O329   O     0.50000   0.53959   0.31427   0.00000  Uiso   1.00
O330   O     0.50000   0.46041   0.18573   0.00000  Uiso   1.00
C331   C     0.75428   0.50019   0.25304   0.00000  Uiso   1.00
C332   C     0.97830   0.54111   0.24157   0.00000  Uiso   1.00
C333   C     0.97976   0.45674   0.25085   0.00000  Uiso   1.00
C334   C     0.68679   0.54216   0.25169   0.00000  Uiso   1.00
C335   C     0.81588   0.52836   0.04447   0.00000  Uiso   1.00
C336   C     0.81876   0.45591   0.45215   0.00000  Uiso   1.00
C337   C     0.85393   0.52991   0.45481   0.00000  Uiso   1.00
C338   C     0.85986   0.45951   0.05091   0.00000  Uiso   1.00
C339   C     0.82146   0.53529   0.08955   0.00000  Uiso   1.00
C340   C     0.81772   0.45773   0.40607   0.00000  Uiso   1.00
C341   C     0.84611   0.53582   0.40964   0.00000  Uiso   1.00
C342   C     0.91242   0.49965   0.24726   0.00000  Uiso   1.00
C343   C     0.85910   0.46168   0.09687   0.00000  Uiso   1.00
C344   C     0.83902   0.49950   0.11679   0.00000  Uiso   1.00
C345   C     0.83150   0.49809   0.38398   0.00000  Uiso   1.00
C346   C     0.83694   0.49194   0.02472   0.00000  Uiso   1.00
C347   C     0.83794   0.49141   0.47648   0.00000  Uiso   1.00
C348   C     0.95722   0.49887   0.24505   0.00000  Uiso   1.00
C349   C     0.70949   0.50027   0.25585   0.00000  Uiso   1.00
C350   C     0.77892   0.38418   0.19256   0.00000  Uiso   1.00
C351   C     0.89285   0.61658   0.30156   0.00000  Uiso   1.00
C352   C     0.88543   0.38156   0.30971   0.00000  Uiso   1.00
C353   C     0.83530   0.50013   0.16510   0.00000  Uiso   1.00
C354   C     0.77458   0.61880   0.19782   0.00000  Uiso   1.00
C355   C     0.81580   0.58221   0.10473   0.00000  Uiso   1.00
C356   C     0.80033   0.41865   0.38243   0.00000  Uiso   1.00
C357   C     0.84750   0.58281   0.39258   0.00000  Uiso   1.00
C358   C     0.88169   0.42672   0.12307   0.00000  Uiso   1.00
C359   C     0.70953   0.41569   0.27453   0.00000  Uiso   1.00
C360   C     0.95840   0.58264   0.22281   0.00000  Uiso   1.00
C361   C     0.96117   0.41166   0.24474   0.00000  Uiso   1.00
C362   C     0.70454   0.58608   0.26427   0.00000  Uiso   1.00
C363   C     0.83222   0.49969   0.33513   0.00000  Uiso   1.00
C364   C     0.80663   0.35881   0.22269   0.00000  Uiso   1.00
C365   C     0.86105   0.64136   0.27610   0.00000  Uiso   1.00
C366   C     0.85955   0.35755   0.27779   0.00000  Uiso   1.00
C367   C     0.80563   0.64257   0.22390   0.00000  Uiso   1.00
C368   C     0.68861   0.45781   0.25880   0.00000  Uiso   1.00
Cl369  Cl    0.78342   0.56700   0.01250   0.00000  Uiso   1.00
Cl370  Cl    0.79466   0.40977   0.47942   0.00000  Uiso   1.00
Cl371  Cl    0.88230   0.57251   0.48469   0.00000  Uiso   1.00
Cl372  Cl    0.89051   0.41697   0.02619   0.00000  Uiso   1.00
Cu373  Cu    0.83333   0.54689   0.25000   0.00000  Uiso   1.00
Cu374  Cu    0.83333   0.45311   0.25000   0.00000  Uiso   1.00
N375   N     0.83333   0.61736   0.25000   0.00000  Uiso   1.00
N376   N     0.89971   0.39874   0.14393   0.00000  Uiso   1.00
N377   N     0.72640   0.38242   0.28753   0.00000  Uiso   1.00
N378   N     0.94244   0.61534   0.20715   0.00000  Uiso   1.00
N379   N     0.94693   0.37546   0.23939   0.00000  Uiso   1.00
N380   N     0.71859   0.62101   0.27520   0.00000  Uiso   1.00
N381   N     0.83333   0.38264   0.25000   0.00000  Uiso   1.00
N382   N     0.75660   0.40417   0.16825   0.00000  Uiso   1.00
N383   N     0.91862   0.59728   0.32209   0.00000  Uiso   1.00
N384   N     0.90623   0.40043   0.33550   0.00000  Uiso   1.00
N385   N     0.74935   0.60026   0.17684   0.00000  Uiso   1.00
N386   N     0.81240   0.62062   0.11506   0.00000  Uiso   1.00
N387   N     0.78660   0.38712   0.36386   0.00000  Uiso   1.00
N388   N     0.84764   0.62107   0.38042   0.00000  Uiso   1.00
O389   O     0.77321   0.53958   0.24999   0.00000  Uiso   1.00
O390   O     0.89345   0.46042   0.25000   0.00000  Uiso   1.00
O391   O     0.89345   0.53958   0.25000   0.00000  Uiso   1.00
O392   O     0.77321   0.46042   0.24999   0.00000  Uiso   1.00
O393   O     0.83333   0.53959   0.18573   0.00000  Uiso   1.00
O394   O     0.83334   0.46041   0.31427   0.00000  Uiso   1.00
O395   O     0.83334   0.53959   0.31427   0.00000  Uiso   1.00
O396   O     0.83333   0.46041   0.18573   0.00000  Uiso   1.00
C397   C     0.08762   0.83353   0.25304   0.00000  Uiso   1.00
C398   C     0.31164   0.87445   0.24157   0.00000  Uiso   1.00
C399   C     0.31309   0.79007   0.25085   0.00000  Uiso   1.00
C400   C     0.02012   0.87550   0.25169   0.00000  Uiso   1.00
C401   C     0.14922   0.86169   0.04447   0.00000  Uiso   1.00
C402   C     0.15210   0.78924   0.45215   0.00000  Uiso   1.00
C403   C     0.18726   0.86325   0.45481   0.00000  Uiso   1.00
C404   C     0.19319   0.79284   0.05091   0.00000  Uiso   1.00
C405   C     0.15479   0.86863   0.08955   0.00000  Uiso   1.00
C406   C     0.15105   0.79106   0.40607   0.00000  Uiso   1.00
C407   C     0.17944   0.86915   0.40964   0.00000  Uiso   1.00
C408   C     0.24575   0.83299   0.24726   0.00000  Uiso   1.00
C409   C     0.19243   0.79502   0.09687   0.00000  Uiso   1.00
C410   C     0.17235   0.83283   0.11679   0.00000  Uiso   1.00
C411   C     0.16483   0.83142   0.38398   0.00000  Uiso   1.00
C412   C     0.17027   0.82527   0.02472   0.00000  Uiso   1.00
C413   C     0.17128   0.82475   0.47648   0.00000  Uiso   1.00
C414   C     0.29055   0.83220   0.24505   0.00000  Uiso   1.00
C415   C     0.04282   0.83360   0.25585   0.00000  Uiso   1.00
C416   C     0.11225   0.71751   0.19256   0.00000  Uiso   1.00
C417   C     0.22618   0.94991   0.30156   0.00000  Uiso   1.00
C418   C     0.21876   0.71489   0.30971   0.00000  Uiso   1.00
C419   C     0.16863   0.83347   0.16510   0.00000  Uiso   1.00
C420   C     0.10791   0.95213   0.19782   0.00000  Uiso   1.00
C421   C     0.14914   0.91554   0.10473   0.00000  Uiso   1.00
C422   C     0.13366   0.75198   0.38243   0.00000  Uiso   1.00
C423   C     0.18083   0.91614   0.39258   0.00000  Uiso   1.00
C424   C     0.21502   0.76005   0.12307   0.00000  Uiso   1.00
C425   C     0.04286   0.74902   0.27453   0.00000  Uiso   1.00
C426   C     0.29173   0.91597   0.22281   0.00000  Uiso   1.00
C427   C     0.29450   0.74499   0.24474   0.00000  Uiso   1.00
C428   C     0.03788   0.91942   0.26427   0.00000  Uiso   1.00
C429   C     0.16555   0.83303   0.33513   0.00000  Uiso   1.00
C430   C     0.13996   0.69214   0.22269   0.00000  Uiso   1.00
C431   C     0.19439   0.97470   0.27610   0.00000  Uiso   1.00
C432   C     0.19288   0.69089   0.27779   0.00000  Uiso   1.00
C433   C     0.13896   0.97590   0.22390   0.00000  Uiso   1.00
C434   C     0.02195   0.79115   0.25880   0.00000  Uiso   1.00
Cl435  Cl    0.11675   0.90033   0.01250   0.00000  Uiso   1.00
Cl436  Cl    0.12800   0.74310   0.47942   0.00000  Uiso   1.00
Cl437  Cl    0.21563   0.90584   0.48469   0.00000  Uiso   1.00
Cl438  Cl    0.22385   0.75030   0.02619   0.00000  Uiso   1.00
Cu439  Cu    0.16667   0.88022   0.25000   0.00000  Uiso   1.00
Cu440  Cu    0.16667   0.78645   0.25000   0.00000  Uiso   1.00
N441   N     0.16667   0.95069   0.25000   0.00000  Uiso   1.00
N442   N     0.23305   0.73207   0.14393   0.00000  Uiso   1.00
N443   N     0.05973   0.71576   0.28753   0.00000  Uiso   1.00
N444   N     0.27578   0.94868   0.20715   0.00000  Uiso   1.00
N445   N     0.28026   0.70879   0.23939   0.00000  Uiso   1.00
N446   N     0.05193   0.95434   0.27520   0.00000  Uiso   1.00
N447   N     0.16667   0.71598   0.25000   0.00000  Uiso   1.00
N448   N     0.08993   0.73750   0.16825   0.00000  Uiso   1.00
N449   N     0.25195   0.93061   0.32209   0.00000  Uiso   1.00
N450   N     0.23956   0.73376   0.33550   0.00000  Uiso   1.00
N451   N     0.08269   0.93360   0.17684   0.00000  Uiso   1.00
N452   N     0.14573   0.95396   0.11506   0.00000  Uiso   1.00
N453   N     0.11994   0.72045   0.36386   0.00000  Uiso   1.00
N454   N     0.18097   0.95440   0.38042   0.00000  Uiso   1.00
O455   O     0.10655   0.87291   0.24999   0.00000  Uiso   1.00
O456   O     0.22679   0.79375   0.25000   0.00000  Uiso   1.00
O457   O     0.22679   0.87291   0.25000   0.00000  Uiso   1.00
O458   O     0.10655   0.79375   0.24999   0.00000  Uiso   1.00
O459   O     0.16666   0.87293   0.18573   0.00000  Uiso   1.00
O460   O     0.16667   0.79374   0.31427   0.00000  Uiso   1.00
O461   O     0.16667   0.87293   0.31427   0.00000  Uiso   1.00
O462   O     0.16666   0.79374   0.18573   0.00000  Uiso   1.00
C463   C     0.42095   0.83353   0.25304   0.00000  Uiso   1.00
C464   C     0.64497   0.87445   0.24157   0.00000  Uiso   1.00
C465   C     0.64642   0.79007   0.25085   0.00000  Uiso   1.00
C466   C     0.35345   0.87550   0.25169   0.00000  Uiso   1.00
C467   C     0.48255   0.86169   0.04447   0.00000  Uiso   1.00
C468   C     0.48543   0.78924   0.45215   0.00000  Uiso   1.00
C469   C     0.52060   0.86325   0.45481   0.00000  Uiso   1.00
C470   C     0.52652   0.79284   0.05091   0.00000  Uiso   1.00
C471   C     0.48812   0.86863   0.08955   0.00000  Uiso   1.00
C472   C     0.48439   0.79106   0.40607   0.00000  Uiso   1.00
C473   C     0.51278   0.86915   0.40964   0.00000  Uiso   1.00
C474   C     0.57908   0.83299   0.24726   0.00000  Uiso   1.00
C475   C     0.52577   0.79502   0.09687   0.00000  Uiso   1.00
C476   C     0.50569   0.83283   0.11679   0.00000  Uiso   1.00
C477   C     0.49817   0.83142   0.38398   0.00000  Uiso   1.00
C478   C     0.50360   0.82527   0.02472   0.00000  Uiso   1.00
C479   C     0.50461   0.82475   0.47648   0.00000  Uiso   1.00
C480   C     0.62389   0.83220   0.24505   0.00000  Uiso   1.00
C481   C     0.37615   0.83360   0.25585   0.00000  Uiso   1.00
C482   C     0.44558   0.71751   0.19256   0.00000  Uiso   1.00
C483   C     0.55951   0.94991   0.30156   0.00000  Uiso   1.00
C484   C     0.55209   0.71489   0.30971   0.00000  Uiso   1.00
C485   C     0.50196   0.83347   0.16510   0.00000  Uiso   1.00
C486   C     0.44124   0.95213   0.19782   0.00000  Uiso   1.00
C487   C     0.48247   0.91554   0.10473   0.00000  Uiso   1.00
C488   C     0.46699   0.75198   0.38243   0.00000  Uiso   1.00
C489   C     0.51417   0.91614   0.39258   0.00000  Uiso   1.00
C490   C     0.54836   0.76005   0.12307   0.00000  Uiso   1.00
C491   C     0.37620   0.74902   0.27453   0.00000  Uiso   1.00
C492   C     0.62506   0.91597   0.22281   0.00000  Uiso   1.00
C493   C     0.62784   0.74499   0.24474   0.00000  Uiso   1.00
C494   C     0.37121   0.91942   0.26427   0.00000  Uiso   1.00
C495   C     0.49889   0.83303   0.33513   0.00000  Uiso   1.00
C496   C     0.47329   0.69214   0.22269   0.00000  Uiso   1.00
C497   C     0.52772   0.97470   0.27610   0.00000  Uiso   1.00
C498   C     0.52622   0.69089   0.27779   0.00000  Uiso   1.00
C499   C     0.47230   0.97590   0.22390   0.00000  Uiso   1.00
C500   C     0.35528   0.79115   0.25880   0.00000  Uiso   1.00
Cl501  Cl    0.45009   0.90033   0.01250   0.00000  Uiso   1.00
Cl502  Cl    0.46133   0.74310   0.47942   0.00000  Uiso   1.00
Cl503  Cl    0.54897   0.90584   0.48469   0.00000  Uiso   1.00
Cl504  Cl    0.55718   0.75030   0.02619   0.00000  Uiso   1.00
Cu505  Cu    0.50000   0.88022   0.25000   0.00000  Uiso   1.00
Cu506  Cu    0.50000   0.78645   0.25000   0.00000  Uiso   1.00
N507   N     0.50000   0.95069   0.25000   0.00000  Uiso   1.00
N508   N     0.56638   0.73207   0.14393   0.00000  Uiso   1.00
N509   N     0.39306   0.71576   0.28753   0.00000  Uiso   1.00
N510   N     0.60911   0.94868   0.20715   0.00000  Uiso   1.00
N511   N     0.61360   0.70879   0.23939   0.00000  Uiso   1.00
N512   N     0.38526   0.95434   0.27520   0.00000  Uiso   1.00
N513   N     0.50000   0.71598   0.25000   0.00000  Uiso   1.00
N514   N     0.42326   0.73750   0.16825   0.00000  Uiso   1.00
N515   N     0.58529   0.93061   0.32209   0.00000  Uiso   1.00
N516   N     0.57290   0.73376   0.33550   0.00000  Uiso   1.00
N517   N     0.41602   0.93360   0.17684   0.00000  Uiso   1.00
N518   N     0.47907   0.95396   0.11506   0.00000  Uiso   1.00
N519   N     0.45327   0.72045   0.36386   0.00000  Uiso   1.00
N520   N     0.51430   0.95440   0.38042   0.00000  Uiso   1.00
O521   O     0.43988   0.87291   0.24999   0.00000  Uiso   1.00
O522   O     0.56012   0.79375   0.25000   0.00000  Uiso   1.00
O523   O     0.56012   0.87291   0.25000   0.00000  Uiso   1.00
O524   O     0.43988   0.79375   0.24999   0.00000  Uiso   1.00
O525   O     0.50000   0.87293   0.18573   0.00000  Uiso   1.00
O526   O     0.50000   0.79374   0.31427   0.00000  Uiso   1.00
O527   O     0.50000   0.87293   0.31427   0.00000  Uiso   1.00
O528   O     0.50000   0.79374   0.18573   0.00000  Uiso   1.00
C529   C     0.75428   0.83353   0.25304   0.00000  Uiso   1.00
C530   C     0.97830   0.87445   0.24157   0.00000  Uiso   1.00
C531   C     0.97976   0.79007   0.25085   0.00000  Uiso   1.00
C532   C     0.68679   0.87550   0.25169   0.00000  Uiso   1.00
C533   C     0.81588   0.86169   0.04447   0.00000  Uiso   1.00
C534   C     0.81876   0.78924   0.45215   0.00000  Uiso   1.00
C535   C     0.85393   0.86325   0.45481   0.00000  Uiso   1.00
C536   C     0.85986   0.79284   0.05091   0.00000  Uiso   1.00
C537   C     0.82146   0.86863   0.08955   0.00000  Uiso   1.00
C538   C     0.81772   0.79106   0.40607   0.00000  Uiso   1.00
C539   C     0.84611   0.86915   0.40964   0.00000  Uiso   1.00
C540   C     0.91242   0.83299   0.24726   0.00000  Uiso   1.00
C541   C     0.85910   0.79502   0.09687   0.00000  Uiso   1.00
C542   C     0.83902   0.83283   0.11679   0.00000  Uiso   1.00
C543   C     0.83150   0.83142   0.38398   0.00000  Uiso   1.00
C544   C     0.83694   0.82527   0.02472   0.00000  Uiso   1.00
C545   C     0.83794   0.82475   0.47648   0.00000  Uiso   1.00
C546   C     0.95722   0.83220   0.24505   0.00000  Uiso   1.00
C547   C     0.70949   0.83360   0.25585   0.00000  Uiso   1.00
C548   C     0.77892   0.71751   0.19256   0.00000  Uiso   1.00
C549   C     0.89285   0.94991   0.30156   0.00000  Uiso   1.00
C550   C     0.88543   0.71489   0.30971   0.00000  Uiso   1.00
C551   C     0.83530   0.83347   0.16510   0.00000  Uiso   1.00
C552   C     0.77458   0.95213   0.19782   0.00000  Uiso   1.00
C553   C     0.81580   0.91554   0.10473   0.00000  Uiso   1.00
C554   C     0.80033   0.75198   0.38243   0.00000  Uiso   1.00
C555   C     0.84750   0.91614   0.39258   0.00000  Uiso   1.00
C556   C     0.88169   0.76005   0.12307   0.00000  Uiso   1.00
C557   C     0.70953   0.74902   0.27453   0.00000  Uiso   1.00
C558   C     0.95840   0.91597   0.22281   0.00000  Uiso   1.00
C559   C     0.96117   0.74499   0.24474   0.00000  Uiso   1.00
C560   C     0.70454   0.91942   0.26427   0.00000  Uiso   1.00
C561   C     0.83222   0.83303   0.33513   0.00000  Uiso   1.00
C562   C     0.80663   0.69214   0.22269   0.00000  Uiso   1.00
C563   C     0.86105   0.97470   0.27610   0.00000  Uiso   1.00
C564   C     0.85955   0.69089   0.27779   0.00000  Uiso   1.00
C565   C     0.80563   0.97590   0.22390   0.00000  Uiso   1.00
C566   C     0.68861   0.79115   0.25880   0.00000  Uiso   1.00
Cl567  Cl    0.78342   0.90033   0.01250   0.00000  Uiso   1.00
Cl568  Cl    0.79466   0.74310   0.47942   0.00000  Uiso   1.00
Cl569  Cl    0.88230   0.90584   0.48469   0.00000  Uiso   1.00
Cl570  Cl    0.89051   0.75030   0.02619   0.00000  Uiso   1.00
Cu571  Cu    0.83333   0.88022   0.25000   0.00000  Uiso   1.00
Cu572  Cu    0.83333   0.78645   0.25000   0.00000  Uiso   1.00
N573   N     0.83333   0.95069   0.25000   0.00000  Uiso   1.00
N574   N     0.89971   0.73207   0.14393   0.00000  Uiso   1.00
N575   N     0.72640   0.71576   0.28753   0.00000  Uiso   1.00
N576   N     0.94244   0.94868   0.20715   0.00000  Uiso   1.00
N577   N     0.94693   0.70879   0.23939   0.00000  Uiso   1.00
N578   N     0.71859   0.95434   0.27520   0.00000  Uiso   1.00
N579   N     0.83333   0.71598   0.25000   0.00000  Uiso   1.00
N580   N     0.75660   0.73750   0.16825   0.00000  Uiso   1.00
N581   N     0.91862   0.93061   0.32209   0.00000  Uiso   1.00
N582   N     0.90623   0.73376   0.33550   0.00000  Uiso   1.00
N583   N     0.74935   0.93360   0.17684   0.00000  Uiso   1.00
N584   N     0.81240   0.95396   0.11506   0.00000  Uiso   1.00
N585   N     0.78660   0.72045   0.36386   0.00000  Uiso   1.00
N586   N     0.84764   0.95440   0.38042   0.00000  Uiso   1.00
O587   O     0.77321   0.87291   0.24999   0.00000  Uiso   1.00
O588   O     0.89345   0.79375   0.25000   0.00000  Uiso   1.00
O589   O     0.89345   0.87291   0.25000   0.00000  Uiso   1.00
O590   O     0.77321   0.79375   0.24999   0.00000  Uiso   1.00
O591   O     0.83333   0.87293   0.18573   0.00000  Uiso   1.00
O592   O     0.83334   0.79374   0.31427   0.00000  Uiso   1.00
O593   O     0.83334   0.87293   0.31427   0.00000  Uiso   1.00
O594   O     0.83333   0.79374   0.18573   0.00000  Uiso   1.00
C595   C     0.08762   0.16686   0.75304   0.00000  Uiso   1.00
C596   C     0.31164   0.20778   0.74157   0.00000  Uiso   1.00
C597   C     0.31309   0.12340   0.75085   0.00000  Uiso   1.00
C598   C     0.02012   0.20883   0.75169   0.00000  Uiso   1.00
C599   C     0.14922   0.19502   0.54447   0.00000  Uiso   1.00
C600   C     0.15210   0.12258   0.95215   0.00000  Uiso   1.00
C601   C     0.18726   0.19658   0.95481   0.00000  Uiso   1.00
C602   C     0.19319   0.12617   0.55091   0.00000  Uiso   1.00
C603   C     0.15479   0.20196   0.58955   0.00000  Uiso   1.00
C604   C     0.15105   0.12440   0.90607   0.00000  Uiso   1.00
C605   C     0.17944   0.20248   0.90964   0.00000  Uiso   1.00
C606   C     0.24575   0.16632   0.74726   0.00000  Uiso   1.00
C607   C     0.19243   0.12835   0.59687   0.00000  Uiso   1.00
C608   C     0.17235   0.16616   0.61679   0.00000  Uiso   1.00
C609   C     0.16483   0.16476   0.88398   0.00000  Uiso   1.00
C610   C     0.17027   0.15860   0.52472   0.00000  Uiso   1.00
C611   C     0.17128   0.15808   0.97648   0.00000  Uiso   1.00
C612   C     0.29055   0.16554   0.74505   0.00000  Uiso   1.00
C613   C     0.04282   0.16693   0.75585   0.00000  Uiso   1.00
C614   C     0.11225   0.05085   0.69256   0.00000  Uiso   1.00
C615   C     0.22618   0.28325   0.80156   0.00000  Uiso   1.00
C616   C     0.21876   0.04822   0.80971   0.00000  Uiso   1.00
C617   C     0.16863   0.16680   0.66510   0.00000  Uiso   1.00
C618   C     0.10791   0.28547   0.69782   0.00000  Uiso   1.00
C619   C     0.14914   0.24888   0.60473   0.00000  Uiso   1.00
C620   C     0.13366   0.08532   0.88243   0.00000  Uiso   1.00
C621   C     0.18083   0.24947   0.89258   0.00000  Uiso   1.00
C622   C     0.21502   0.09339   0.62307   0.00000  Uiso   1.00
C623   C     0.04286   0.08236   0.77453   0.00000  Uiso   1.00
C624   C     0.29173   0.24930   0.72281   0.00000  Uiso   1.00
C625   C     0.29450   0.07832   0.74474   0.00000  Uiso   1.00
C626   C     0.03788   0.25275   0.76427   0.00000  Uiso   1.00
C627   C     0.16555   0.16636   0.83513   0.00000  Uiso   1.00
C628   C     0.13996   0.02548   0.72269   0.00000  Uiso   1.00
C629   C     0.19439   0.30803   0.77610   0.00000  Uiso   1.00
C630   C     0.19288   0.02422   0.77779   0.00000  Uiso   1.00
C631   C     0.13896   0.30923   0.72390   0.00000  Uiso   1.00
C632   C     0.02195   0.12448   0.75880   0.00000  Uiso   1.00
Cl633  Cl    0.11675   0.23366   0.51250   0.00000  Uiso   1.00
Cl634  Cl    0.12800   0.07644   0.97942   0.00000  Uiso   1.00
Cl635  Cl    0.21563   0.23918   0.98469   0.00000  Uiso   1.00
Cl636  Cl    0.22385   0.08364   0.52619   0.00000  Uiso   1.00
Cu637  Cu    0.16667   0.21355   0.75000   0.00000  Uiso   1.00
Cu638  Cu    0.16667   0.11978   0.75000   0.00000  Uiso   1.00
N639   N     0.16667   0.28402   0.75000   0.00000  Uiso   1.00
N640   N     0.23305   0.06541   0.64393   0.00000  Uiso   1.00
N641   N     0.05973   0.04909   0.78753   0.00000  Uiso   1.00
N642   N     0.27578   0.28201   0.70715   0.00000  Uiso   1.00
N643   N     0.28026   0.04212   0.73939   0.00000  Uiso   1.00
N644   N     0.05193   0.28767   0.77520   0.00000  Uiso   1.00
N645   N     0.16667   0.04931   0.75000   0.00000  Uiso   1.00
N646   N     0.08993   0.07083   0.66825   0.00000  Uiso   1.00
N647   N     0.25195   0.26395   0.82209   0.00000  Uiso   1.00
N648   N     0.23956   0.06709   0.83550   0.00000  Uiso   1.00
N649   N     0.08269   0.26693   0.67684   0.00000  Uiso   1.00
N650   N     0.14573   0.28729   0.61506   0.00000  Uiso   1.00
N651   N     0.11994   0.05378   0.86386   0.00000  Uiso   1.00
N652   N     0.18097   0.28773   0.88042   0.00000  Uiso   1.00
O653   O     0.10655   0.20625   0.74999   0.00000  Uiso   1.00
O654   O     0.22679   0.12709   0.75000   0.00000  Uiso   1.00
O655   O     0.22679   0.20625   0.75000   0.00000  Uiso   1.00
O656   O     0.10655   0.12709   0.74999   0.00000  Uiso   1.00
O657   O     0.16666   0.20626   0.68573   0.00000  Uiso   1.00
O658   O     0.16667   0.12707   0.81427   0.00000  Uiso   1.00
O659   O     0.16667   0.20626   0.81427   0.00000  Uiso   1.00
O660   O     0.16666   0.12707   0.68573   0.00000  Uiso   1.00
C661   C     0.42095   0.16686   0.75304   0.00000  Uiso   1.00
C662   C     0.64497   0.20778   0.74157   0.00000  Uiso   1.00
C663   C     0.64642   0.12340   0.75085   0.00000  Uiso   1.00
C664   C     0.35345   0.20883   0.75169   0.00000  Uiso   1.00
C665   C     0.48255   0.19502   0.54447   0.00000  Uiso   1.00
C666   C     0.48543   0.12258   0.95215   0.00000  Uiso   1.00
C667   C     0.52060   0.19658   0.95481   0.00000  Uiso   1.00
C668   C     0.52652   0.12617   0.55091   0.00000  Uiso   1.00
C669   C     0.48812   0.20196   0.58955   0.00000  Uiso   1.00
C670   C     0.48439   0.12440   0.90607   0.00000  Uiso   1.00
C671   C     0.51278   0.20248   0.90964   0.00000  Uiso   1.00
C672   C     0.57908   0.16632   0.74726   0.00000  Uiso   1.00
C673   C     0.52577   0.12835   0.59687   0.00000  Uiso   1.00
C674   C     0.50569   0.16616   0.61679   0.00000  Uiso   1.00
C675   C     0.49817   0.16476   0.88398   0.00000  Uiso   1.00
C676   C     0.50360   0.15860   0.52472   0.00000  Uiso   1.00
C677   C     0.50461   0.15808   0.97648   0.00000  Uiso   1.00
C678   C     0.62389   0.16554   0.74505   0.00000  Uiso   1.00
C679   C     0.37615   0.16693   0.75585   0.00000  Uiso   1.00
C680   C     0.44558   0.05085   0.69256   0.00000  Uiso   1.00
C681   C     0.55951   0.28325   0.80156   0.00000  Uiso   1.00
C682   C     0.55209   0.04822   0.80971   0.00000  Uiso   1.00
C683   C     0.50196   0.16680   0.66510   0.00000  Uiso   1.00
C684   C     0.44124   0.28547   0.69782   0.00000  Uiso   1.00
C685   C     0.48247   0.24888   0.60473   0.00000  Uiso   1.00
C686   C     0.46699   0.08532   0.88243   0.00000  Uiso   1.00
C687   C     0.51417   0.24947   0.89258   0.00000  Uiso   1.00
C688   C     0.54836   0.09339   0.62307   0.00000  Uiso   1.00
C689   C     0.37620   0.08236   0.77453   0.00000  Uiso   1.00
C690   C     0.62506   0.24930   0.72281   0.00000  Uiso   1.00
C691   C     0.62784   0.07832   0.74474   0.00000  Uiso   1.00
C692   C     0.37121   0.25275   0.76427   0.00000  Uiso   1.00
C693   C     0.49889   0.16636   0.83513   0.00000  Uiso   1.00
C694   C     0.47329   0.02548   0.72269   0.00000  Uiso   1.00
C695   C     0.52772   0.30803   0.77610   0.00000  Uiso   1.00
C696   C     0.52622   0.02422   0.77779   0.00000  Uiso   1.00
C697   C     0.47230   0.30923   0.72390   0.00000  Uiso   1.00
C698   C     0.35528   0.12448   0.75880   0.00000  Uiso   1.00
Cl699  Cl    0.45009   0.23366   0.51250   0.00000  Uiso   1.00
Cl700  Cl    0.46133   0.07644   0.97942   0.00000  Uiso   1.00
Cl701  Cl    0.54897   0.23918   0.98469   0.00000  Uiso   1.00
Cl702  Cl    0.55718   0.08364   0.52619   0.00000  Uiso   1.00
Cu703  Cu    0.50000   0.21355   0.75000   0.00000  Uiso   1.00
Cu704  Cu    0.50000   0.11978   0.75000   0.00000  Uiso   1.00
N705   N     0.50000   0.28402   0.75000   0.00000  Uiso   1.00
N706   N     0.56638   0.06541   0.64393   0.00000  Uiso   1.00
N707   N     0.39306   0.04909   0.78753   0.00000  Uiso   1.00
N708   N     0.60911   0.28201   0.70715   0.00000  Uiso   1.00
N709   N     0.61360   0.04212   0.73939   0.00000  Uiso   1.00
N710   N     0.38526   0.28767   0.77520   0.00000  Uiso   1.00
N711   N     0.50000   0.04931   0.75000   0.00000  Uiso   1.00
N712   N     0.42326   0.07083   0.66825   0.00000  Uiso   1.00
N713   N     0.58529   0.26395   0.82209   0.00000  Uiso   1.00
N714   N     0.57290   0.06709   0.83550   0.00000  Uiso   1.00
N715   N     0.41602   0.26693   0.67684   0.00000  Uiso   1.00
N716   N     0.47907   0.28729   0.61506   0.00000  Uiso   1.00
N717   N     0.45327   0.05378   0.86386   0.00000  Uiso   1.00
N718   N     0.51430   0.28773   0.88042   0.00000  Uiso   1.00
O719   O     0.43988   0.20625   0.74999   0.00000  Uiso   1.00
O720   O     0.56012   0.12709   0.75000   0.00000  Uiso   1.00
O721   O     0.56012   0.20625   0.75000   0.00000  Uiso   1.00
O722   O     0.43988   0.12709   0.74999   0.00000  Uiso   1.00
O723   O     0.50000   0.20626   0.68573   0.00000  Uiso   1.00
O724   O     0.50000   0.12707   0.81427   0.00000  Uiso   1.00
O725   O     0.50000   0.20626   0.81427   0.00000  Uiso   1.00
O726   O     0.50000   0.12707   0.68573   0.00000  Uiso   1.00
C727   C     0.75428   0.16686   0.75304   0.00000  Uiso   1.00
C728   C     0.97830   0.20778   0.74157   0.00000  Uiso   1.00
C729   C     0.97976   0.12340   0.75085   0.00000  Uiso   1.00
C730   C     0.68679   0.20883   0.75169   0.00000  Uiso   1.00
C731   C     0.81588   0.19502   0.54447   0.00000  Uiso   1.00
C732   C     0.81876   0.12258   0.95215   0.00000  Uiso   1.00
C733   C     0.85393   0.19658   0.95481   0.00000  Uiso   1.00
C734   C     0.85986   0.12617   0.55091   0.00000  Uiso   1.00
C735   C     0.82146   0.20196   0.58955   0.00000  Uiso   1.00
C736   C     0.81772   0.12440   0.90607   0.00000  Uiso   1.00
C737   C     0.84611   0.20248   0.90964   0.00000  Uiso   1.00
C738   C     0.91242   0.16632   0.74726   0.00000  Uiso   1.00
C739   C     0.85910   0.12835   0.59687   0.00000  Uiso   1.00
C740   C     0.83902   0.16616   0.61679   0.00000  Uiso   1.00
C741   C     0.83150   0.16476   0.88398   0.00000  Uiso   1.00
C742   C     0.83694   0.15860   0.52472   0.00000  Uiso   1.00
C743   C     0.83794   0.15808   0.97648   0.00000  Uiso   1.00
C744   C     0.95722   0.16554   0.74505   0.00000  Uiso   1.00
C745   C     0.70949   0.16693   0.75585   0.00000  Uiso   1.00
C746   C     0.77892   0.05085   0.69256   0.00000  Uiso   1.00
C747   C     0.89285   0.28325   0.80156   0.00000  Uiso   1.00
C748   C     0.88543   0.04822   0.80971   0.00000  Uiso   1.00
C749   C     0.83530   0.16680   0.66510   0.00000  Uiso   1.00
C750   C     0.77458   0.28547   0.69782   0.00000  Uiso   1.00
C751   C     0.81580   0.24888   0.60473   0.00000  Uiso   1.00
C752   C     0.80033   0.08532   0.88243   0.00000  Uiso   1.00
C753   C     0.84750   0.24947   0.89258   0.00000  Uiso   1.00
C754   C     0.88169   0.09339   0.62307   0.00000  Uiso   1.00
C755   C     0.70953   0.08236   0.77453   0.00000  Uiso   1.00
C756   C     0.95840   0.24930   0.72281   0.00000  Uiso   1.00
C757   C     0.96117   0.07832   0.74474   0.00000  Uiso   1.00
C758   C     0.70454   0.25275   0.76427   0.00000  Uiso   1.00
C759   C     0.83222   0.16636   0.83513   0.00000  Uiso   1.00
C760   C     0.80663   0.02548   0.72269   0.00000  Uiso   1.00
C761   C     0.86105   0.30803   0.77610   0.00000  Uiso   1.00
C762   C     0.85955   0.02422   0.77779   0.00000  Uiso   1.00
C763   C     0.80563   0.30923   0.72390   0.00000  Uiso   1.00
C764   C     0.68861   0.12448   0.75880   0.00000  Uiso   1.00
Cl765  Cl    0.78342   0.23366   0.51250   0.00000  Uiso   1.00
Cl766  Cl    0.79466   0.07644   0.97942   0.00000  Uiso   1.00
Cl767  Cl    0.88230   0.23918   0.98469   0.00000  Uiso   1.00
Cl768  Cl    0.89051   0.08364   0.52619   0.00000  Uiso   1.00
Cu769  Cu    0.83333   0.21355   0.75000   0.00000  Uiso   1.00
Cu770  Cu    0.83333   0.11978   0.75000   0.00000  Uiso   1.00
N771   N     0.83333   0.28402   0.75000   0.00000  Uiso   1.00
N772   N     0.89971   0.06541   0.64393   0.00000  Uiso   1.00
N773   N     0.72640   0.04909   0.78753   0.00000  Uiso   1.00
N774   N     0.94244   0.28201   0.70715   0.00000  Uiso   1.00
N775   N     0.94693   0.04212   0.73939   0.00000  Uiso   1.00
N776   N     0.71859   0.28767   0.77520   0.00000  Uiso   1.00
N777   N     0.83333   0.04931   0.75000   0.00000  Uiso   1.00
N778   N     0.75660   0.07083   0.66825   0.00000  Uiso   1.00
N779   N     0.91862   0.26395   0.82209   0.00000  Uiso   1.00
N780   N     0.90623   0.06709   0.83550   0.00000  Uiso   1.00
N781   N     0.74935   0.26693   0.67684   0.00000  Uiso   1.00
N782   N     0.81240   0.28729   0.61506   0.00000  Uiso   1.00
N783   N     0.78660   0.05378   0.86386   0.00000  Uiso   1.00
N784   N     0.84764   0.28773   0.88042   0.00000  Uiso   1.00
O785   O     0.77321   0.20625   0.74999   0.00000  Uiso   1.00
O786   O     0.89345   0.12709   0.75000   0.00000  Uiso   1.00
O787   O     0.89345   0.20625   0.75000   0.00000  Uiso   1.00
O788   O     0.77321   0.12709   0.74999   0.00000  Uiso   1.00
O789   O     0.83333   0.20626   0.68573   0.00000  Uiso   1.00
O790   O     0.83334   0.12707   0.81427   0.00000  Uiso   1.00
O791   O     0.83334   0.20626   0.81427   0.00000  Uiso   1.00
O792   O     0.83333   0.12707   0.68573   0.00000  Uiso   1.00
C793   C     0.08762   0.50019   0.75304   0.00000  Uiso   1.00
C794   C     0.31164   0.54111   0.74157   0.00000  Uiso   1.00
C795   C     0.31309   0.45674   0.75085   0.00000  Uiso   1.00
C796   C     0.02012   0.54216   0.75169   0.00000  Uiso   1.00
C797   C     0.14922   0.52836   0.54447   0.00000  Uiso   1.00
C798   C     0.15210   0.45591   0.95215   0.00000  Uiso   1.00
C799   C     0.18726   0.52991   0.95481   0.00000  Uiso   1.00
C800   C     0.19319   0.45951   0.55091   0.00000  Uiso   1.00
C801   C     0.15479   0.53529   0.58955   0.00000  Uiso   1.00
C802   C     0.15105   0.45773   0.90607   0.00000  Uiso   1.00
C803   C     0.17944   0.53582   0.90964   0.00000  Uiso   1.00
C804   C     0.24575   0.49965   0.74726   0.00000  Uiso   1.00
C805   C     0.19243   0.46168   0.59687   0.00000  Uiso   1.00
C806   C     0.17235   0.49950   0.61679   0.00000  Uiso   1.00
C807   C     0.16483   0.49809   0.88398   0.00000  Uiso   1.00
C808   C     0.17027   0.49194   0.52472   0.00000  Uiso   1.00
C809   C     0.17128   0.49141   0.97648   0.00000  Uiso   1.00
C810   C     0.29055   0.49887   0.74505   0.00000  Uiso   1.00
C811   C     0.04282   0.50027   0.75585   0.00000  Uiso   1.00
C812   C     0.11225   0.38418   0.69256   0.00000  Uiso   1.00
C813   C     0.22618   0.61658   0.80156   0.00000  Uiso   1.00
C814   C     0.21876   0.38156   0.80971   0.00000  Uiso   1.00
C815   C     0.16863   0.50013   0.66510   0.00000  Uiso   1.00
C816   C     0.10791   0.61880   0.69782   0.00000  Uiso   1.00
C817   C     0.14914   0.58221   0.60473   0.00000  Uiso   1.00
C818   C     0.13366   0.41865   0.88243   0.00000  Uiso   1.00
C819   C     0.18083   0.58281   0.89258   0.00000  Uiso   1.00
C820   C     0.21502   0.42672   0.62307   0.00000  Uiso   1.00
C821   C     0.04286   0.41569   0.77453   0.00000  Uiso   1.00
C822   C     0.29173   0.58264   0.72281   0.00000  Uiso   1.00
C823   C     0.29450   0.41166   0.74474   0.00000  Uiso   1.00
C824   C     0.03788   0.58608   0.76427   0.00000  Uiso   1.00
C825   C     0.16555   0.49969   0.83513   0.00000  Uiso   1.00
C826   C     0.13996   0.35881   0.72269   0.00000  Uiso   1.00
C827   C     0.19439   0.64136   0.77610   0.00000  Uiso   1.00
C828   C     0.19288   0.35755   0.77779   0.00000  Uiso   1.00
C829   C     0.13896   0.64257   0.72390   0.00000  Uiso   1.00
C830   C     0.02195   0.45781   0.75880   0.00000  Uiso   1.00
Cl831  Cl    0.11675   0.56700   0.51250   0.00000  Uiso   1.00
Cl832  Cl    0.12800   0.40977   0.97942   0.00000  Uiso   1.00
Cl833  Cl    0.21563   0.57251   0.98469   0.00000  Uiso   1.00
Cl834  Cl    0.22385   0.41697   0.52619   0.00000  Uiso   1.00
Cu835  Cu    0.16667   0.54689   0.75000   0.00000  Uiso   1.00
Cu836  Cu    0.16667   0.45311   0.75000   0.00000  Uiso   1.00
N837   N     0.16667   0.61736   0.75000   0.00000  Uiso   1.00
N838   N     0.23305   0.39874   0.64393   0.00000  Uiso   1.00
N839   N     0.05973   0.38242   0.78753   0.00000  Uiso   1.00
N840   N     0.27578   0.61534   0.70715   0.00000  Uiso   1.00
N841   N     0.28026   0.37546   0.73939   0.00000  Uiso   1.00
N842   N     0.05193   0.62101   0.77520   0.00000  Uiso   1.00
N843   N     0.16667   0.38264   0.75000   0.00000  Uiso   1.00
N844   N     0.08993   0.40417   0.66825   0.00000  Uiso   1.00
N845   N     0.25195   0.59728   0.82209   0.00000  Uiso   1.00
N846   N     0.23956   0.40043   0.83550   0.00000  Uiso   1.00
N847   N     0.08269   0.60026   0.67684   0.00000  Uiso   1.00
N848   N     0.14573   0.62062   0.61506   0.00000  Uiso   1.00
N849   N     0.11994   0.38712   0.86386   0.00000  Uiso   1.00
N850   N     0.18097   0.62107   0.88042   0.00000  Uiso   1.00
O851   O     0.10655   0.53958   0.74999   0.00000  Uiso   1.00
O852   O     0.22679   0.46042   0.75000   0.00000  Uiso   1.00
O853   O     0.22679   0.53958   0.75000   0.00000  Uiso   1.00
O854   O     0.10655   0.46042   0.74999   0.00000  Uiso   1.00
O855   O     0.16666   0.53959   0.68573   0.00000  Uiso   1.00
O856   O     0.16667   0.46041   0.81427   0.00000  Uiso   1.00
O857   O     0.16667   0.53959   0.81427   0.00000  Uiso   1.00
O858   O     0.16666   0.46041   0.68573   0.00000  Uiso   1.00
C859   C     0.42095   0.50019   0.75304   0.00000  Uiso   1.00
C860   C     0.64497   0.54111   0.74157   0.00000  Uiso   1.00
C861   C     0.64642   0.45674   0.75085   0.00000  Uiso   1.00
C862   C     0.35345   0.54216   0.75169   0.00000  Uiso   1.00
C863   C     0.48255   0.52836   0.54447   0.00000  Uiso   1.00
C864   C     0.48543   0.45591   0.95215   0.00000  Uiso   1.00
C865   C     0.52060   0.52991   0.95481   0.00000  Uiso   1.00
C866   C     0.52652   0.45951   0.55091   0.00000  Uiso   1.00
C867   C     0.48812   0.53529   0.58955   0.00000  Uiso   1.00
C868   C     0.48439   0.45773   0.90607   0.00000  Uiso   1.00
C869   C     0.51278   0.53582   0.90964   0.00000  Uiso   1.00
C870   C     0.57908   0.49965   0.74726   0.00000  Uiso   1.00
C871   C     0.52577   0.46168   0.59687   0.00000  Uiso   1.00
C872   C     0.50569   0.49950   0.61679   0.00000  Uiso   1.00
C873   C     0.49817   0.49809   0.88398   0.00000  Uiso   1.00
C874   C     0.50360   0.49194   0.52472   0.00000  Uiso   1.00
C875   C     0.50461   0.49141   0.97648   0.00000  Uiso   1.00
C876   C     0.62389   0.49887   0.74505   0.00000  Uiso   1.00
C877   C     0.37615   0.50027   0.75585   0.00000  Uiso   1.00
C878   C     0.44558   0.38418   0.69256   0.00000  Uiso   1.00
C879   C     0.55951   0.61658   0.80156   0.00000  Uiso   1.00
C880   C     0.55209   0.38156   0.80971   0.00000  Uiso   1.00
C881   C     0.50196   0.50013   0.66510   0.00000  Uiso   1.00
C882   C     0.44124   0.61880   0.69782   0.00000  Uiso   1.00
C883   C     0.48247   0.58221   0.60473   0.00000  Uiso   1.00
C884   C     0.46699   0.41865   0.88243   0.00000  Uiso   1.00
C885   C     0.51417   0.58281   0.89258   0.00000  Uiso   1.00
C886   C     0.54836   0.42672   0.62307   0.00000  Uiso   1.00
C887   C     0.37620   0.41569   0.77453   0.00000  Uiso   1.00
C888   C     0.62506   0.58264   0.72281   0.00000  Uiso   1.00
C889   C     0.62784   0.41166   0.74474   0.00000  Uiso   1.00
C890   C     0.37121   0.58608   0.76427   0.00000  Uiso   1.00
C891   C     0.49889   0.49969   0.83513   0.00000  Uiso   1.00
C892   C     0.47329   0.35881   0.72269   0.00000  Uiso   1.00
C893   C     0.52772   0.64136   0.77610   0.00000  Uiso   1.00
C894   C     0.52622   0.35755   0.77779   0.00000  Uiso   1.00
C895   C     0.47230   0.64257   0.72390   0.00000  Uiso   1.00
C896   C     0.35528   0.45781   0.75880   0.00000  Uiso   1.00
Cl897  Cl    0.45009   0.56700   0.51250   0.00000  Uiso   1.00
Cl898  Cl    0.46133   0.40977   0.97942   0.00000  Uiso   1.00
Cl899  Cl    0.54897   0.57251   0.98469   0.00000  Uiso   1.00
Cl900  Cl    0.55718   0.41697   0.52619   0.00000  Uiso   1.00
Cu901  Cu    0.50000   0.54689   0.75000   0.00000  Uiso   1.00
Cu902  Cu    0.50000   0.45311   0.75000   0.00000  Uiso   1.00
N903   N     0.50000   0.61736   0.75000   0.00000  Uiso   1.00
N904   N     0.56638   0.39874   0.64393   0.00000  Uiso   1.00
N905   N     0.39306   0.38242   0.78753   0.00000  Uiso   1.00
N906   N     0.60911   0.61534   0.70715   0.00000  Uiso   1.00
N907   N     0.61360   0.37546   0.73939   0.00000  Uiso   1.00
N908   N     0.38526   0.62101   0.77520   0.00000  Uiso   1.00
N909   N     0.50000   0.38264   0.75000   0.00000  Uiso   1.00
N910   N     0.42326   0.40417   0.66825   0.00000  Uiso   1.00
N911   N     0.58529   0.59728   0.82209   0.00000  Uiso   1.00
N912   N     0.57290   0.40043   0.83550   0.00000  Uiso   1.00
N913   N     0.41602   0.60026   0.67684   0.00000  Uiso   1.00
N914   N     0.47907   0.62062   0.61506   0.00000  Uiso   1.00
N915   N     0.45327   0.38712   0.86386   0.00000  Uiso   1.00
N916   N     0.51430   0.62107   0.88042   0.00000  Uiso   1.00
O917   O     0.43988   0.53958   0.74999   0.00000  Uiso   1.00
O918   O     0.56012   0.46042   0.75000   0.00000  Uiso   1.00
O919   O     0.56012   0.53958   0.75000   0.00000  Uiso   1.00
O920   O     0.43988   0.46042   0.74999   0.00000  Uiso   1.00
O921   O     0.50000   0.53959   0.68573   0.00000  Uiso   1.00
O922   O     0.50000   0.46041   0.81427   0.00000  Uiso   1.00
O923   O     0.50000   0.53959   0.81427   0.00000  Uiso   1.00
O924   O     0.50000   0.46041   0.68573   0.00000  Uiso   1.00
C925   C     0.75428   0.50019   0.75304   0.00000  Uiso   1.00
C926   C     0.97830   0.54111   0.74157   0.00000  Uiso   1.00
C927   C     0.97976   0.45674   0.75085   0.00000  Uiso   1.00
C928   C     0.68679   0.54216   0.75169   0.00000  Uiso   1.00
C929   C     0.81588   0.52836   0.54447   0.00000  Uiso   1.00
C930   C     0.81876   0.45591   0.95215   0.00000  Uiso   1.00
C931   C     0.85393   0.52991   0.95481   0.00000  Uiso   1.00
C932   C     0.85986   0.45951   0.55091   0.00000  Uiso   1.00
C933   C     0.82146   0.53529   0.58955   0.00000  Uiso   1.00
C934   C     0.81772   0.45773   0.90607   0.00000  Uiso   1.00
C935   C     0.84611   0.53582   0.90964   0.00000  Uiso   1.00
C936   C     0.91242   0.49965   0.74726   0.00000  Uiso   1.00
C937   C     0.85910   0.46168   0.59687   0.00000  Uiso   1.00
C938   C     0.83902   0.49950   0.61679   0.00000  Uiso   1.00
C939   C     0.83150   0.49809   0.88398   0.00000  Uiso   1.00
C940   C     0.83694   0.49194   0.52472   0.00000  Uiso   1.00
C941   C     0.83794   0.49141   0.97648   0.00000  Uiso   1.00
C942   C     0.95722   0.49887   0.74505   0.00000  Uiso   1.00
C943   C     0.70949   0.50027   0.75585   0.00000  Uiso   1.00
C944   C     0.77892   0.38418   0.69256   0.00000  Uiso   1.00
C945   C     0.89285   0.61658   0.80156   0.00000  Uiso   1.00
C946   C     0.88543   0.38156   0.80971   0.00000  Uiso   1.00
C947   C     0.83530   0.50013   0.66510   0.00000  Uiso   1.00
C948   C     0.77458   0.61880   0.69782   0.00000  Uiso   1.00
C949   C     0.81580   0.58221   0.60473   0.00000  Uiso   1.00
C950   C     0.80033   0.41865   0.88243   0.00000  Uiso   1.00
C951   C     0.84750   0.58281   0.89258   0.00000  Uiso   1.00
C952   C     0.88169   0.42672   0.62307   0.00000  Uiso   1.00
C953   C     0.70953   0.41569   0.77453   0.00000  Uiso   1.00
C954   C     0.95840   0.58264   0.72281   0.00000  Uiso   1.00
C955   C     0.96117   0.41166   0.74474   0.00000  Uiso   1.00
C956   C     0.70454   0.58608   0.76427   0.00000  Uiso   1.00
C957   C     0.83222   0.49969   0.83513   0.00000  Uiso   1.00
C958   C     0.80663   0.35881   0.72269   0.00000  Uiso   1.00
C959   C     0.86105   0.64136   0.77610   0.00000  Uiso   1.00
C960   C     0.85955   0.35755   0.77779   0.00000  Uiso   1.00
C961   C     0.80563   0.64257   0.72390   0.00000  Uiso   1.00
C962   C     0.68861   0.45781   0.75880   0.00000  Uiso   1.00
Cl963  Cl    0.78342   0.56700   0.51250   0.00000  Uiso   1.00
Cl964  Cl    0.79466   0.40977   0.97942   0.00000  Uiso   1.00
Cl965  Cl    0.88230   0.57251   0.98469   0.00000  Uiso   1.00
Cl966  Cl    0.89051   0.41697   0.52619   0.00000  Uiso   1.00
Cu967  Cu    0.83333   0.54689   0.75000   0.00000  Uiso   1.00
Cu968  Cu    0.83333   0.45311   0.75000   0.00000  Uiso   1.00
N969   N     0.83333   0.61736   0.75000   0.00000  Uiso   1.00
N970   N     0.89971   0.39874   0.64393   0.00000  Uiso   1.00
N971   N     0.72640   0.38242   0.78753   0.00000  Uiso   1.00
N972   N     0.94244   0.61534   0.70715   0.00000  Uiso   1.00
N973   N     0.94693   0.37546   0.73939   0.00000  Uiso   1.00
N974   N     0.71859   0.62101   0.77520   0.00000  Uiso   1.00
N975   N     0.83333   0.38264   0.75000   0.00000  Uiso   1.00
N976   N     0.75660   0.40417   0.66825   0.00000  Uiso   1.00
N977   N     0.91862   0.59728   0.82209   0.00000  Uiso   1.00
N978   N     0.90623   0.40043   0.83550   0.00000  Uiso   1.00
N979   N     0.74935   0.60026   0.67684   0.00000  Uiso   1.00
N980   N     0.81240   0.62062   0.61506   0.00000  Uiso   1.00
N981   N     0.78660   0.38712   0.86386   0.00000  Uiso   1.00
N982   N     0.84764   0.62107   0.88042   0.00000  Uiso   1.00
O983   O     0.77321   0.53958   0.74999   0.00000  Uiso   1.00
O984   O     0.89345   0.46042   0.75000   0.00000  Uiso   1.00
O985   O     0.89345   0.53958   0.75000   0.00000  Uiso   1.00
O986   O     0.77321   0.46042   0.74999   0.00000  Uiso   1.00
O987   O     0.83333   0.53959   0.68573   0.00000  Uiso   1.00
O988   O     0.83334   0.46041   0.81427   0.00000  Uiso   1.00
O989   O     0.83334   0.53959   0.81427   0.00000  Uiso   1.00
O990   O     0.83333   0.46041   0.68573   0.00000  Uiso   1.00
C991   C     0.08762   0.83353   0.75304   0.00000  Uiso   1.00
C992   C     0.31164   0.87445   0.74157   0.00000  Uiso   1.00
C993   C     0.31309   0.79007   0.75085   0.00000  Uiso   1.00
C994   C     0.02012   0.87550   0.75169   0.00000  Uiso   1.00
C995   C     0.14922   0.86169   0.54447   0.00000  Uiso   1.00
C996   C     0.15210   0.78924   0.95215   0.00000  Uiso   1.00
C997   C     0.18726   0.86325   0.95481   0.00000  Uiso   1.00
C998   C     0.19319   0.79284   0.55091   0.00000  Uiso   1.00
C999   C     0.15479   0.86863   0.58955   0.00000  Uiso   1.00
C1000  C     0.15105   0.79106   0.90607   0.00000  Uiso   1.00
C1001  C     0.17944   0.86915   0.90964   0.00000  Uiso   1.00
C1002  C     0.24575   0.83299   0.74726   0.00000  Uiso   1.00
C1003  C     0.19243   0.79502   0.59687   0.00000  Uiso   1.00
C1004  C     0.17235   0.83283   0.61679   0.00000  Uiso   1.00
C1005  C     0.16483   0.83142   0.88398   0.00000  Uiso   1.00
C1006  C     0.17027   0.82527   0.52472   0.00000  Uiso   1.00
C1007  C     0.17128   0.82475   0.97648   0.00000  Uiso   1.00
C1008  C     0.29055   0.83220   0.74505   0.00000  Uiso   1.00
C1009  C     0.04282   0.83360   0.75585   0.00000  Uiso   1.00
C1010  C     0.11225   0.71751   0.69256   0.00000  Uiso   1.00
C1011  C     0.22618   0.94991   0.80156   0.00000  Uiso   1.00
C1012  C     0.21876   0.71489   0.80971   0.00000  Uiso   1.00
C1013  C     0.16863   0.83347   0.66510   0.00000  Uiso   1.00
C1014  C     0.10791   0.95213   0.69782   0.00000  Uiso   1.00
C1015  C     0.14914   0.91554   0.60473   0.00000  Uiso   1.00
C1016  C     0.13366   0.75198   0.88243   0.00000  Uiso   1.00
C1017  C     0.18083   0.91614   0.89258   0.00000  Uiso   1.00
C1018  C     0.21502   0.76005   0.62307   0.00000  Uiso   1.00
C1019  C     0.04286   0.74902   0.77453   0.00000  Uiso   1.00
C1020  C     0.29173   0.91597   0.72281   0.00000  Uiso   1.00
C1021  C     0.29450   0.74499   0.74474   0.00000  Uiso   1.00
C1022  C     0.03788   0.91942   0.76427   0.00000  Uiso   1.00
C1023  C     0.16555   0.83303   0.83513   0.00000  Uiso   1.00
C1024  C     0.13996   0.69214   0.72269   0.00000  Uiso   1.00
C1025  C     0.19439   0.97470   0.77610   0.00000  Uiso   1.00
C1026  C     0.19288   0.69089   0.77779   0.00000  Uiso   1.00
C1027  C     0.13896   0.97590   0.72390   0.00000  Uiso   1.00
C1028  C     0.02195   0.79115   0.75880   0.00000  Uiso   1.00
Cl1029 Cl    0.11675   0.90033   0.51250   0.00000  Uiso   1.00
Cl1030 Cl    0.12800   0.74310   0.97942   0.00000  Uiso   1.00
Cl1031 Cl    0.21563   0.90584   0.98469   0.00000  Uiso   1.00
Cl1032 Cl    0.22385   0.75030   0.52619   0.00000  Uiso   1.00
Cu1033 Cu    0.16667   0.88022   0.75000   0.00000  Uiso   1.00
Cu1034 Cu    0.16667   0.78645   0.75000   0.00000  Uiso   1.00
N1035  N     0.16667   0.95069   0.75000   0.00000  Uiso   1.00
N1036  N     0.23305   0.73207   0.64393   0.00000  Uiso   1.00
N1037  N     0.05973   0.71576   0.78753   0.00000  Uiso   1.00
N1038  N     0.27578   0.94868   0.70715   0.00000  Uiso   1.00
N1039  N     0.28026   0.70879   0.73939   0.00000  Uiso   1.00
N1040  N     0.05193   0.95434   0.77520   0.00000  Uiso   1.00
N1041  N     0.16667   0.71598   0.75000   0.00000  Uiso   1.00
N1042  N     0.08993   0.73750   0.66825   0.00000  Uiso   1.00
N1043  N     0.25195   0.93061   0.82209   0.00000  Uiso   1.00
N1044  N     0.23956   0.73376   0.83550   0.00000  Uiso   1.00
N1045  N     0.08269   0.93360   0.67684   0.00000  Uiso   1.00
N1046  N     0.14573   0.95396   0.61506   0.00000  Uiso   1.00
N1047  N     0.11994   0.72045   0.86386   0.00000  Uiso   1.00
N1048  N     0.18097   0.95440   0.88042   0.00000  Uiso   1.00
O1049  O     0.10655   0.87291   0.74999   0.00000  Uiso   1.00
O1050  O     0.22679   0.79375   0.75000   0.00000  Uiso   1.00
O1051  O     0.22679   0.87291   0.75000   0.00000  Uiso   1.00
O1052  O     0.10655   0.79375   0.74999   0.00000  Uiso   1.00
O1053  O     0.16666   0.87293   0.68573   0.00000  Uiso   1.00
O1054  O     0.16667   0.79374   0.81427   0.00000  Uiso   1.00
O1055  O     0.16667   0.87293   0.81427   0.00000  Uiso   1.00
O1056  O     0.16666   0.79374   0.68573   0.00000  Uiso   1.00
C1057  C     0.42095   0.83353   0.75304   0.00000  Uiso   1.00
C1058  C     0.64497   0.87445   0.74157   0.00000  Uiso   1.00
C1059  C     0.64642   0.79007   0.75085   0.00000  Uiso   1.00
C1060  C     0.35345   0.87550   0.75169   0.00000  Uiso   1.00
C1061  C     0.48255   0.86169   0.54447   0.00000  Uiso   1.00
C1062  C     0.48543   0.78924   0.95215   0.00000  Uiso   1.00
C1063  C     0.52060   0.86325   0.95481   0.00000  Uiso   1.00
C1064  C     0.52652   0.79284   0.55091   0.00000  Uiso   1.00
C1065  C     0.48812   0.86863   0.58955   0.00000  Uiso   1.00
C1066  C     0.48439   0.79106   0.90607   0.00000  Uiso   1.00
C1067  C     0.51278   0.86915   0.90964   0.00000  Uiso   1.00
C1068  C     0.57908   0.83299   0.74726   0.00000  Uiso   1.00
C1069  C     0.52577   0.79502   0.59687   0.00000  Uiso   1.00
C1070  C     0.50569   0.83283   0.61679   0.00000  Uiso   1.00
C1071  C     0.49817   0.83142   0.88398   0.00000  Uiso   1.00
C1072  C     0.50360   0.82527   0.52472   0.00000  Uiso   1.00
C1073  C     0.50461   0.82475   0.97648   0.00000  Uiso   1.00
C1074  C     0.62389   0.83220   0.74505   0.00000  Uiso   1.00
C1075  C     0.37615   0.83360   0.75585   0.00000  Uiso   1.00
C1076  C     0.44558   0.71751   0.69256   0.00000  Uiso   1.00
C1077  C     0.55951   0.94991   0.80156   0.00000  Uiso   1.00
C1078  C     0.55209   0.71489   0.80971   0.00000  Uiso   1.00
C1079  C     0.50196   0.83347   0.66510   0.00000  Uiso   1.00
C1080  C     0.44124   0.95213   0.69782   0.00000  Uiso   1.00
C1081  C     0.48247   0.91554   0.60473   0.00000  Uiso   1.00
C1082  C     0.46699   0.75198   0.88243   0.00000  Uiso   1.00
C1083  C     0.51417   0.91614   0.89258   0.00000  Uiso   1.00
C1084  C     0.54836   0.76005   0.62307   0.00000  Uiso   1.00
C1085  C     0.37620   0.74902   0.77453   0.00000  Uiso   1.00
C1086  C     0.62506   0.91597   0.72281   0.00000  Uiso   1.00
C1087  C     0.62784   0.74499   0.74474   0.00000  Uiso   1.00
C1088  C     0.37121   0.91942   0.76427   0.00000  Uiso   1.00
C1089  C     0.49889   0.83303   0.83513   0.00000  Uiso   1.00
C1090  C     0.47329   0.69214   0.72269   0.00000  Uiso   1.00
C1091  C     0.52772   0.97470   0.77610   0.00000  Uiso   1.00
C1092  C     0.52622   0.69089   0.77779   0.00000  Uiso   1.00
C1093  C     0.47230   0.97590   0.72390   0.00000  Uiso   1.00
C1094  C     0.35528   0.79115   0.75880   0.00000  Uiso   1.00
Cl1095 Cl    0.45009   0.90033   0.51250   0.00000  Uiso   1.00
Cl1096 Cl    0.46133   0.74310   0.97942   0.00000  Uiso   1.00
Cl1097 Cl    0.54897   0.90584   0.98469   0.00000  Uiso   1.00
Cl1098 Cl    0.55718   0.75030   0.52619   0.00000  Uiso   1.00
Cu1099 Cu    0.50000   0.88022   0.75000   0.00000  Uiso   1.00
Cu1100 Cu    0.50000   0.78645   0.75000   0.00000  Uiso   1.00
N1101  N     0.50000   0.95069   0.75000   0.00000  Uiso   1.00
N1102  N     0.56638   0.73207   0.64393   0.00000  Uiso   1.00
N1103  N     0.39306   0.71576   0.78753   0.00000  Uiso   1.00
N1104  N     0.60911   0.94868   0.70715   0.00000  Uiso   1.00
N1105  N     0.61360   0.70879   0.73939   0.00000  Uiso   1.00
N1106  N     0.38526   0.95434   0.77520   0.00000  Uiso   1.00
N1107  N     0.50000   0.71598   0.75000   0.00000  Uiso   1.00
N1108  N     0.42326   0.73750   0.66825   0.00000  Uiso   1.00
N1109  N     0.58529   0.93061   0.82209   0.00000  Uiso   1.00
N1110  N     0.57290   0.73376   0.83550   0.00000  Uiso   1.00
N1111  N     0.41602   0.93360   0.67684   0.00000  Uiso   1.00
N1112  N     0.47907   0.95396   0.61506   0.00000  Uiso   1.00
N1113  N     0.45327   0.72045   0.86386   0.00000  Uiso   1.00
N1114  N     0.51430   0.95440   0.88042   0.00000  Uiso   1.00
O1115  O     0.43988   0.87291   0.74999   0.00000  Uiso   1.00
O1116  O     0.56012   0.79375   0.75000   0.00000  Uiso   1.00
O1117  O     0.56012   0.87291   0.75000   0.00000  Uiso   1.00
O1118  O     0.43988   0.79375   0.74999   0.00000  Uiso   1.00
O1119  O     0.50000   0.87293   0.68573   0.00000  Uiso   1.00
O1120  O     0.50000   0.79374   0.81427   0.00000  Uiso   1.00
O1121  O     0.50000   0.87293   0.81427   0.00000  Uiso   1.00
O1122  O     0.50000   0.79374   0.68573   0.00000  Uiso   1.00
C1123  C     0.75428   0.83353   0.75304   0.00000  Uiso   1.00
C1124  C     0.97830   0.87445   0.74157   0.00000  Uiso   1.00
C1125  C     0.97976   0.79007   0.75085   0.00000  Uiso   1.00
C1126  C     0.68679   0.87550   0.75169   0.00000  Uiso   1.00
C1127  C     0.81588   0.86169   0.54447   0.00000  Uiso   1.00
C1128  C     0.81876   0.78924   0.95215   0.00000  Uiso   1.00
C1129  C     0.85393   0.86325   0.95481   0.00000  Uiso   1.00
C1130  C     0.85986   0.79284   0.55091   0.00000  Uiso   1.00
C1131  C     0.82146   0.86863   0.58955   0.00000  Uiso   1.00
C1132  C     0.81772   0.79106   0.90607   0.00000  Uiso   1.00
C1133  C     0.84611   0.86915   0.90964   0.00000  Uiso   1.00
C1134  C     0.91242   0.83299   0.74726   0.00000  Uiso   1.00
C1135  C     0.85910   0.79502   0.59687   0.00000  Uiso   1.00
C1136  C     0.83902   0.83283   0.61679   0.00000  Uiso   1.00
C1137  C     0.83150   0.83142   0.88398   0.00000  Uiso   1.00
C1138  C     0.83694   0.82527   0.52472   0.00000  Uiso   1.00
C1139  C     0.83794   0.82475   0.97648   0.00000  Uiso   1.00
C1140  C     0.95722   0.83220   0.74505   0.00000  Uiso   1.00
C1141  C     0.70949   0.83360   0.75585   0.00000  Uiso   1.00
C1142  C     0.77892   0.71751   0.69256   0.00000  Uiso   1.00
C1143  C     0.89285   0.94991   0.80156   0.00000  Uiso   1.00
C1144  C     0.88543   0.71489   0.80971   0.00000  Uiso   1.00
C1145  C     0.83530   0.83347   0.66510   0.00000  Uiso   1.00
C1146  C     0.77458   0.95213   0.69782   0.00000  Uiso   1.00
C1147  C     0.81580   0.91554   0.60473   0.00000  Uiso   1.00
C1148  C     0.80033   0.75198   0.88243   0.00000  Uiso   1.00
C1149  C     0.84750   0.91614   0.89258   0.00000  Uiso   1.00
C1150  C     0.88169   0.76005   0.62307   0.00000  Uiso   1.00
C1151  C     0.70953   0.74902   0.77453   0.00000  Uiso   1.00
C1152  C     0.95840   0.91597   0.72281   0.00000  Uiso   1.00
C1153  C     0.96117   0.74499   0.74474   0.00000  Uiso   1.00
C1154  C     0.70454   0.91942   0.76427   0.00000  Uiso   1.00
C1155  C     0.83222   0.83303   0.83513   0.00000  Uiso   1.00
C1156  C     0.80663   0.69214   0.72269   0.00000  Uiso   1.00
C1157  C     0.86105   0.97470   0.77610   0.00000  Uiso   1.00
C1158  C     0.85955   0.69089   0.77779   0.00000  Uiso   1.00
C1159  C     0.80563   0.97590   0.72390   0.00000  Uiso   1.00
C1160  C     0.68861   0.79115   0.75880   0.00000  Uiso   1.00
Cl1161 Cl    0.78342   0.90033   0.51250   0.00000  Uiso   1.00
Cl1162 Cl    0.79466   0.74310   0.97942   0.00000  Uiso   1.00
Cl1163 Cl    0.88230   0.90584   0.98469   0.00000  Uiso   1.00
Cl1164 Cl    0.89051   0.75030   0.52619   0.00000  Uiso   1.00
Cu1165 Cu    0.83333   0.88022   0.75000   0.00000  Uiso   1.00
Cu1166 Cu    0.83333   0.78645   0.75000   0.00000  Uiso   1.00
N1167  N     0.83333   0.95069   0.75000   0.00000  Uiso   1.00
N1168  N     0.89971   0.73207   0.64393   0.00000  Uiso   1.00
N1169  N     0.72640   0.71576   0.78753   0.00000  Uiso   1.00
N1170  N     0.94244   0.94868   0.70715   0.00000  Uiso   1.00
N1171  N     0.94693   0.70879   0.73939   0.00000  Uiso   1.00
N1172  N     0.71859   0.95434   0.77520   0.00000  Uiso   1.00
N1173  N     0.83333   0.71598   0.75000   0.00000  Uiso   1.00
N1174  N     0.75660   0.73750   0.66825   0.00000  Uiso   1.00
N1175  N     0.91862   0.93061   0.82209   0.00000  Uiso   1.00
N1176  N     0.90623   0.73376   0.83550   0.00000  Uiso   1.00
N1177  N     0.74935   0.93360   0.67684   0.00000  Uiso   1.00
N1178  N     0.81240   0.95396   0.61506   0.00000  Uiso   1.00
N1179  N     0.78660   0.72045   0.86386   0.00000  Uiso   1.00
N1180  N     0.84764   0.95440   0.88042   0.00000  Uiso   1.00
O1181  O     0.77321   0.87291   0.74999   0.00000  Uiso   1.00
O1182  O     0.89345   0.79375   0.75000   0.00000  Uiso   1.00
O1183  O     0.89345   0.87291   0.75000   0.00000  Uiso   1.00
O1184  O     0.77321   0.79375   0.74999   0.00000  Uiso   1.00
O1185  O     0.83333   0.87293   0.68573   0.00000  Uiso   1.00
O1186  O     0.83334   0.79374   0.81427   0.00000  Uiso   1.00
O1187  O     0.83334   0.87293   0.81427   0.00000  Uiso   1.00
O1188  O     0.83333   0.79374   0.68573   0.00000  Uiso   1.00
loop_
_geom_bond_atom_site_label_1
_geom_bond_atom_site_label_2
_geom_bond_distance
_geom_bond_site_symmetry_2
_ccdc_geom_bond_type
C1     O62     1.301   .     A
C1     C19     1.478   .     S
C1     O59     1.303   .     A
C2     C18     1.411   .     A
C2     C30     1.451   .     S
C2     C70     1.392   .     S
C3     C31     1.448   .     S
C3     C18     1.416   .     A
C3     C104    1.395   .     S
C4     C32     1.444   .     S
C4     C19     1.409   .     A
C4     C134    1.392   1_455 S
C5     C9      1.394   .     A
C5     Cl39    1.777   .     S
C5     C16     1.405   .     A
C6     C10     1.404   .     A
C6     Cl40    1.775   .     S
C6     C17     1.404   .     A
C7     C11     1.396   .     A
C7     Cl41    1.777   .     S
C7     C17     1.404   .     A
C8     C13     1.405   .     A
C8     C16     1.406   .     A
C8     Cl42    1.773   .     S
C9     C14     1.414   .     A
C9     C25     1.443   .     S
C10    C26     1.448   .     S
C10    C15     1.426   .     A
C11    C27     1.444   .     S
C11    C15     1.417   .     A
C12    O61     1.304   .     A
C12    C18     1.476   .     S
C12    O60     1.299   .     A
C13    C28     1.449   .     S
C13    C14     1.422   .     A
C14    C23     1.485   .     S
C15    C33     1.491   .     S
C16    C611    1.473   1_554 S
C17    C610    1.473   .     S
C19    C38     1.411   .     A
C20    C34     1.444   .     S
C20    N52     1.158   .     T
C21    C35     1.444   .     S
C21    N53     1.158   .     T
C22    C36     1.445   .     S
C22    N54     1.158   .     T
C23    O63     1.305   .     A
C23    O66     1.302   .     A
C24    C37     1.443   .     S
C24    N55     1.158   .     T
C25    N56     1.156   .     T
C26    N57     1.157   .     T
C27    N58     1.157   .     T
C28    N46     1.157   .     T
C29    C38     1.449   .     S
C29    N47     1.155   .     T
C30    N48     1.157   .     T
C31    N49     1.155   .     T
C32    N50     1.155   .     T
C33    O65     1.307   .     A
C33    O64     1.302   .     A
C34    N51     1.372   .     A
C34    C433    1.425   1_545 S
C35    N45     1.374   .     A
C35    C234    1.425   .     S
C36    N51     1.369   .     A
C36    C431    1.425   1_545 S
C37    N45     1.372   .     A
C37    C232    1.425   .     S
C38    C135    1.395   1_455 S
Cu43   Cu44    2.694   .     S
Cu43   O59     1.988   .     S
Cu43   N45     2.025   .     S
Cu43   O63     1.973   .     S
Cu43   O65     1.969   .     S
Cu43   O61     1.983   .     S
Cu44   O66     1.969   .     S
Cu44   O64     1.973   .     S
Cu44   O60     1.988   .     S
Cu44   N51     2.025   .     S
Cu44   O62     1.983   .     S
C67    O128    1.301   .     A
C67    C85     1.478   .     S
C67    O125    1.303   .     A
C68    C84     1.411   .     A
C68    C96     1.451   .     S
C68    C136    1.392   .     S
C69    C97     1.448   .     S
C69    C84     1.416   .     A
C69    C170    1.395   .     S
C70    C98     1.444   .     S
C70    C85     1.409   .     A
C71    C75     1.394   .     A
C71    Cl105   1.777   .     S
C71    C82     1.405   .     A
C72    C76     1.404   .     A
C72    Cl106   1.775   .     S
C72    C83     1.404   .     A
C73    C77     1.396   .     A
C73    Cl107   1.777   .     S
C73    C83     1.404   .     A
C74    C79     1.405   .     A
C74    C82     1.406   .     A
C74    Cl108   1.773   .     S
C75    C80     1.414   .     A
C75    C91     1.443   .     S
C76    C92     1.448   .     S
C76    C81     1.426   .     A
C77    C93     1.444   .     S
C77    C81     1.417   .     A
C78    O127    1.304   .     A
C78    C84     1.476   .     S
C78    O126    1.299   .     A
C79    C94     1.449   .     S
C79    C80     1.422   .     A
C80    C89     1.485   .     S
C81    C99     1.491   .     S
C82    C677    1.473   1_554 S
C83    C676    1.473   .     S
C85    C104    1.411   .     A
C86    C100    1.444   .     S
C86    N118    1.158   .     T
C87    C101    1.444   .     S
C87    N119    1.158   .     T
C88    C102    1.445   .     S
C88    N120    1.158   .     T
C89    O129    1.305   .     A
C89    O132    1.302   .     A
C90    C103    1.443   .     S
C90    N121    1.158   .     T
C91    N122    1.156   .     T
C92    N123    1.157   .     T
C93    N124    1.157   .     T
C94    N112    1.157   .     T
C95    C104    1.449   .     S
C95    N113    1.155   .     T
C96    N114    1.157   .     T
C97    N115    1.155   .     T
C98    N116    1.155   .     T
C99    O131    1.307   .     A
C99    O130    1.302   .     A
C100   N117    1.372   .     A
C100   C499    1.425   1_545 S
C101   N111    1.374   .     A
C101   C300    1.425   .     S
C102   N117    1.369   .     A
C102   C497    1.425   1_545 S
C103   N111    1.372   .     A
C103   C298    1.425   .     S
Cu109  Cu110   2.694   .     S
Cu109  O125    1.988   .     S
Cu109  N111    2.025   .     S
Cu109  O129    1.973   .     S
Cu109  O131    1.969   .     S
Cu109  O127    1.983   .     S
Cu110  O132    1.969   .     S
Cu110  O130    1.973   .     S
Cu110  O126    1.988   .     S
Cu110  N117    2.025   .     S
Cu110  O128    1.983   .     S
C133   O194    1.301   .     A
C133   C151    1.478   .     S
C133   O191    1.303   .     A
C134   C150    1.411   .     A
C134   C162    1.451   .     S
C134   C4      1.392   1_655 S
C135   C163    1.448   .     S
C135   C150    1.416   .     A
C135   C38     1.395   1_655 S
C136   C164    1.444   .     S
C136   C151    1.409   .     A
C137   C141    1.394   .     A
C137   Cl171   1.777   .     S
C137   C148    1.405   .     A
C138   C142    1.404   .     A
C138   Cl172   1.775   .     S
C138   C149    1.404   .     A
C139   C143    1.396   .     A
C139   Cl173   1.777   .     S
C139   C149    1.404   .     A
C140   C145    1.405   .     A
C140   C148    1.406   .     A
C140   Cl174   1.773   .     S
C141   C146    1.414   .     A
C141   C157    1.443   .     S
C142   C158    1.448   .     S
C142   C147    1.426   .     A
C143   C159    1.444   .     S
C143   C147    1.417   .     A
C144   O193    1.304   .     A
C144   C150    1.476   .     S
C144   O192    1.299   .     A
C145   C160    1.449   .     S
C145   C146    1.422   .     A
C146   C155    1.485   .     S
C147   C165    1.491   .     S
C148   C743    1.473   1_554 S
C149   C742    1.473   .     S
C151   C170    1.411   .     A
C152   C166    1.444   .     S
C152   N184    1.158   .     T
C153   C167    1.444   .     S
C153   N185    1.158   .     T
C154   C168    1.445   .     S
C154   N186    1.158   .     T
C155   O195    1.305   .     A
C155   O198    1.302   .     A
C156   C169    1.443   .     S
C156   N187    1.158   .     T
C157   N188    1.156   .     T
C158   N189    1.157   .     T
C159   N190    1.157   .     T
C160   N178    1.157   .     T
C161   C170    1.449   .     S
C161   N179    1.155   .     T
C162   N180    1.157   .     T
C163   N181    1.155   .     T
C164   N182    1.155   .     T
C165   O197    1.307   .     A
C165   O196    1.302   .     A
C166   N183    1.372   .     A
C166   C565    1.425   1_545 S
C167   N177    1.374   .     A
C167   C366    1.425   .     S
C168   N183    1.369   .     A
C168   C563    1.425   1_545 S
C169   N177    1.372   .     A
C169   C364    1.425   .     S
Cu175  Cu176   2.694   .     S
Cu175  O191    1.988   .     S
Cu175  N177    2.025   .     S
Cu175  O195    1.973   .     S
Cu175  O197    1.969   .     S
Cu175  O193    1.983   .     S
Cu176  O198    1.969   .     S
Cu176  O196    1.973   .     S
Cu176  O192    1.988   .     S
Cu176  N183    2.025   .     S
Cu176  O194    1.983   .     S
C199   O260    1.301   .     A
C199   C217    1.478   .     S
C199   O257    1.303   .     A
C200   C216    1.411   .     A
C200   C228    1.451   .     S
C200   C268    1.392   .     S
C201   C229    1.448   .     S
C201   C216    1.416   .     A
C201   C302    1.395   .     S
C202   C230    1.444   .     S
C202   C217    1.409   .     A
C202   C332    1.392   1_455 S
C203   C207    1.394   .     A
C203   Cl237   1.777   .     S
C203   C214    1.405   .     A
C204   C208    1.404   .     A
C204   Cl238   1.775   .     S
C204   C215    1.404   .     A
C205   C209    1.396   .     A
C205   Cl239   1.777   .     S
C205   C215    1.404   .     A
C206   C211    1.405   .     A
C206   C214    1.406   .     A
C206   Cl240   1.773   .     S
C207   C212    1.414   .     A
C207   C223    1.443   .     S
C208   C224    1.448   .     S
C208   C213    1.426   .     A
C209   C225    1.444   .     S
C209   C213    1.417   .     A
C210   O259    1.304   .     A
C210   C216    1.476   .     S
C210   O258    1.299   .     A
C211   C226    1.449   .     S
C211   C212    1.422   .     A
C212   C221    1.485   .     S
C213   C231    1.491   .     S
C214   C809    1.473   1_554 S
C215   C808    1.473   .     S
C217   C236    1.411   .     A
C218   C232    1.444   .     S
C218   N250    1.158   .     T
C219   C233    1.444   .     S
C219   N251    1.158   .     T
C220   C234    1.445   .     S
C220   N252    1.158   .     T
C221   O261    1.305   .     A
C221   O264    1.302   .     A
C222   C235    1.443   .     S
C222   N253    1.158   .     T
C223   N254    1.156   .     T
C224   N255    1.157   .     T
C225   N256    1.157   .     T
C226   N244    1.157   .     T
C227   C236    1.449   .     S
C227   N245    1.155   .     T
C228   N246    1.157   .     T
C229   N247    1.155   .     T
C230   N248    1.155   .     T
C231   O263    1.307   .     A
C231   O262    1.302   .     A
C232   N249    1.372   .     A
C233   N243    1.374   .     A
C233   C432    1.425   .     S
C234   N249    1.369   .     A
C235   N243    1.372   .     A
C235   C430    1.425   .     S
C236   C333    1.395   1_455 S
Cu241  Cu242   2.694   .     S
Cu241  O257    1.988   .     S
Cu241  N243    2.025   .     S
Cu241  O261    1.973   .     S
Cu241  O263    1.969   .     S
Cu241  O259    1.983   .     S
Cu242  O264    1.969   .     S
Cu242  O262    1.973   .     S
Cu242  O258    1.988   .     S
Cu242  N249    2.025   .     S
Cu242  O260    1.983   .     S
C265   O326    1.301   .     A
C265   C283    1.478   .     S
C265   O323    1.303   .     A
C266   C282    1.411   .     A
C266   C294    1.451   .     S
C266   C334    1.392   .     S
C267   C295    1.448   .     S
C267   C282    1.416   .     A
C267   C368    1.395   .     S
C268   C296    1.444   .     S
C268   C283    1.409   .     A
C269   C273    1.394   .     A
C269   Cl303   1.777   .     S
C269   C280    1.405   .     A
C270   C274    1.404   .     A
C270   Cl304   1.775   .     S
C270   C281    1.404   .     A
C271   C275    1.396   .     A
C271   Cl305   1.777   .     S
C271   C281    1.404   .     A
C272   C277    1.405   .     A
C272   C280    1.406   .     A
C272   Cl306   1.773   .     S
C273   C278    1.414   .     A
C273   C289    1.443   .     S
C274   C290    1.448   .     S
C274   C279    1.426   .     A
C275   C291    1.444   .     S
C275   C279    1.417   .     A
C276   O325    1.304   .     A
C276   C282    1.476   .     S
C276   O324    1.299   .     A
C277   C292    1.449   .     S
C277   C278    1.422   .     A
C278   C287    1.485   .     S
C279   C297    1.491   .     S
C280   C875    1.473   1_554 S
C281   C874    1.473   .     S
C283   C302    1.411   .     A
C284   C298    1.444   .     S
C284   N316    1.158   .     T
C285   C299    1.444   .     S
C285   N317    1.158   .     T
C286   C300    1.445   .     S
C286   N318    1.158   .     T
C287   O327    1.305   .     A
C287   O330    1.302   .     A
C288   C301    1.443   .     S
C288   N319    1.158   .     T
C289   N320    1.156   .     T
C290   N321    1.157   .     T
C291   N322    1.157   .     T
C292   N310    1.157   .     T
C293   C302    1.449   .     S
C293   N311    1.155   .     T
C294   N312    1.157   .     T
C295   N313    1.155   .     T
C296   N314    1.155   .     T
C297   O329    1.307   .     A
C297   O328    1.302   .     A
C298   N315    1.372   .     A
C299   N309    1.374   .     A
C299   C498    1.425   .     S
C300   N315    1.369   .     A
C301   N309    1.372   .     A
C301   C496    1.425   .     S
Cu307  Cu308   2.694   .     S
Cu307  O323    1.988   .     S
Cu307  N309    2.025   .     S
Cu307  O327    1.973   .     S
Cu307  O329    1.969   .     S
Cu307  O325    1.983   .     S
Cu308  O330    1.969   .     S
Cu308  O328    1.973   .     S
Cu308  O324    1.988   .     S
Cu308  N315    2.025   .     S
Cu308  O326    1.983   .     S
C331   O392    1.301   .     A
C331   C349    1.478   .     S
C331   O389    1.303   .     A
C332   C348    1.411   .     A
C332   C360    1.451   .     S
C332   C202    1.392   1_655 S
C333   C361    1.448   .     S
C333   C348    1.416   .     A
C333   C236    1.395   1_655 S
C334   C362    1.444   .     S
C334   C349    1.409   .     A
C335   C339    1.394   .     A
C335   Cl369   1.777   .     S
C335   C346    1.405   .     A
C336   C340    1.404   .     A
C336   Cl370   1.775   .     S
C336   C347    1.404   .     A
C337   C341    1.396   .     A
C337   Cl371   1.777   .     S
C337   C347    1.404   .     A
C338   C343    1.405   .     A
C338   C346    1.406   .     A
C338   Cl372   1.773   .     S
C339   C344    1.414   .     A
C339   C355    1.443   .     S
C340   C356    1.448   .     S
C340   C345    1.426   .     A
C341   C357    1.444   .     S
C341   C345    1.417   .     A
C342   O391    1.304   .     A
C342   C348    1.476   .     S
C342   O390    1.299   .     A
C343   C358    1.449   .     S
C343   C344    1.422   .     A
C344   C353    1.485   .     S
C345   C363    1.491   .     S
C346   C941    1.473   1_554 S
C347   C940    1.473   .     S
C349   C368    1.411   .     A
C350   C364    1.444   .     S
C350   N382    1.158   .     T
C351   C365    1.444   .     S
C351   N383    1.158   .     T
C352   C366    1.445   .     S
C352   N384    1.158   .     T
C353   O393    1.305   .     A
C353   O396    1.302   .     A
C354   C367    1.443   .     S
C354   N385    1.158   .     T
C355   N386    1.156   .     T
C356   N387    1.157   .     T
C357   N388    1.157   .     T
C358   N376    1.157   .     T
C359   C368    1.449   .     S
C359   N377    1.155   .     T
C360   N378    1.157   .     T
C361   N379    1.155   .     T
C362   N380    1.155   .     T
C363   O395    1.307   .     A
C363   O394    1.302   .     A
C364   N381    1.372   .     A
C365   N375    1.374   .     A
C365   C564    1.425   .     S
C366   N381    1.369   .     A
C367   N375    1.372   .     A
C367   C562    1.425   .     S
Cu373  Cu374   2.694   .     S
Cu373  O389    1.988   .     S
Cu373  N375    2.025   .     S
Cu373  O393    1.973   .     S
Cu373  O395    1.969   .     S
Cu373  O391    1.983   .     S
Cu374  O396    1.969   .     S
Cu374  O394    1.973   .     S
Cu374  O390    1.988   .     S
Cu374  N381    2.025   .     S
Cu374  O392    1.983   .     S
C397   O458    1.301   .     A
C397   C415    1.478   .     S
C397   O455    1.303   .     A
C398   C414    1.411   .     A
C398   C426    1.451   .     S
C398   C466    1.392   .     S
C399   C427    1.448   .     S
C399   C414    1.416   .     A
C399   C500    1.395   .     S
C400   C428    1.444   .     S
C400   C415    1.409   .     A
C400   C530    1.392   1_455 S
C401   C405    1.394   .     A
C401   Cl435   1.777   .     S
C401   C412    1.405   .     A
C402   C406    1.404   .     A
C402   Cl436   1.775   .     S
C402   C413    1.404   .     A
C403   C407    1.396   .     A
C403   Cl437   1.777   .     S
C403   C413    1.404   .     A
C404   C409    1.405   .     A
C404   C412    1.406   .     A
C404   Cl438   1.773   .     S
C405   C410    1.414   .     A
C405   C421    1.443   .     S
C406   C422    1.448   .     S
C406   C411    1.426   .     A
C407   C423    1.444   .     S
C407   C411    1.417   .     A
C408   O457    1.304   .     A
C408   C414    1.476   .     S
C408   O456    1.299   .     A
C409   C424    1.449   .     S
C409   C410    1.422   .     A
C410   C419    1.485   .     S
C411   C429    1.491   .     S
C412   C1007   1.473   1_554 S
C413   C1006   1.473   .     S
C415   C434    1.411   .     A
C416   C430    1.444   .     S
C416   N448    1.158   .     T
C417   C431    1.444   .     S
C417   N449    1.158   .     T
C418   C432    1.445   .     S
C418   N450    1.158   .     T
C419   O459    1.305   .     A
C419   O462    1.302   .     A
C420   C433    1.443   .     S
C420   N451    1.158   .     T
C421   N452    1.156   .     T
C422   N453    1.157   .     T
C423   N454    1.157   .     T
C424   N442    1.157   .     T
C425   C434    1.449   .     S
C425   N443    1.155   .     T
C426   N444    1.157   .     T
C427   N445    1.155   .     T
C428   N446    1.155   .     T
C429   O461    1.307   .     A
C429   O460    1.302   .     A
C430   N447    1.372   .     A
C431   N441    1.374   .     A
C431   C36     1.425   1_565 S
C432   N447    1.369   .     A
C433   N441    1.372   .     A
C433   C34     1.425   1_565 S
C434   C531    1.395   1_455 S
Cu439  Cu440   2.694   .     S
Cu439  O455    1.988   .     S
Cu439  N441    2.025   .     S
Cu439  O459    1.973   .     S
Cu439  O461    1.969   .     S
Cu439  O457    1.983   .     S
Cu440  O462    1.969   .     S
Cu440  O460    1.973   .     S
Cu440  O456    1.988   .     S
Cu440  N447    2.025   .     S
Cu440  O458    1.983   .     S
C463   O524    1.301   .     A
C463   C481    1.478   .     S
C463   O521    1.303   .     A
C464   C480    1.411   .     A
C464   C492    1.451   .     S
C464   C532    1.392   .     S
C465   C493    1.448   .     S
C465   C480    1.416   .     A
C465   C566    1.395   .     S
C466   C494    1.444   .     S
C466   C481    1.409   .     A
C467   C471    1.394   .     A
C467   Cl501   1.777   .     S
C467   C478    1.405   .     A
C468   C472    1.404   .     A
C468   Cl502   1.775   .     S
C468   C479    1.404   .     A
C469   C473    1.396   .     A
C469   Cl503   1.777   .     S
C469   C479    1.404   .     A
C470   C475    1.405   .     A
C470   C478    1.406   .     A
C470   Cl504   1.773   .     S
C471   C476    1.414   .     A
C471   C487    1.443   .     S
C472   C488    1.448   .     S
C472   C477    1.426   .     A
C473   C489    1.444   .     S
C473   C477    1.417   .     A
C474   O523    1.304   .     A
C474   C480    1.476   .     S
C474   O522    1.299   .     A
C475   C490    1.449   .     S
C475   C476    1.422   .     A
C476   C485    1.485   .     S
C477   C495    1.491   .     S
C478   C1073   1.473   1_554 S
C479   C1072   1.473   .     S
C481   C500    1.411   .     A
C482   C496    1.444   .     S
C482   N514    1.158   .     T
C483   C497    1.444   .     S
C483   N515    1.158   .     T
C484   C498    1.445   .     S
C484   N516    1.158   .     T
C485   O525    1.305   .     A
C485   O528    1.302   .     A
C486   C499    1.443   .     S
C486   N517    1.158   .     T
C487   N518    1.156   .     T
C488   N519    1.157   .     T
C489   N520    1.157   .     T
C490   N508    1.157   .     T
C491   C500    1.449   .     S
C491   N509    1.155   .     T
C492   N510    1.157   .     T
C493   N511    1.155   .     T
C494   N512    1.155   .     T
C495   O527    1.307   .     A
C495   O526    1.302   .     A
C496   N513    1.372   .     A
C497   N507    1.374   .     A
C497   C102    1.425   1_565 S
C498   N513    1.369   .     A
C499   N507    1.372   .     A
C499   C100    1.425   1_565 S
Cu505  Cu506   2.694   .     S
Cu505  O521    1.988   .     S
Cu505  N507    2.025   .     S
Cu505  O525    1.973   .     S
Cu505  O527    1.969   .     S
Cu505  O523    1.983   .     S
Cu506  O528    1.969   .     S
Cu506  O526    1.973   .     S
Cu506  O522    1.988   .     S
Cu506  N513    2.025   .     S
Cu506  O524    1.983   .     S
C529   O590    1.301   .     A
C529   C547    1.478   .     S
C529   O587    1.303   .     A
C530   C546    1.411   .     A
C530   C558    1.451   .     S
C530   C400    1.392   1_655 S
C531   C559    1.448   .     S
C531   C546    1.416   .     A
C531   C434    1.395   1_655 S
C532   C560    1.444   .     S
C532   C547    1.409   .     A
C533   C537    1.394   .     A
C533   Cl567   1.777   .     S
C533   C544    1.405   .     A
C534   C538    1.404   .     A
C534   Cl568   1.775   .     S
C534   C545    1.404   .     A
C535   C539    1.396   .     A
C535   Cl569   1.777   .     S
C535   C545    1.404   .     A
C536   C541    1.405   .     A
C536   C544    1.406   .     A
C536   Cl570   1.773   .     S
C537   C542    1.414   .     A
C537   C553    1.443   .     S
C538   C554    1.448   .     S
C538   C543    1.426   .     A
C539   C555    1.444   .     S
C539   C543    1.417   .     A
C540   O589    1.304   .     A
C540   C546    1.476   .     S
C540   O588    1.299   .     A
C541   C556    1.449   .     S
C541   C542    1.422   .     A
C542   C551    1.485   .     S
C543   C561    1.491   .     S
C544   C1139   1.473   1_554 S
C545   C1138   1.473   .     S
C547   C566    1.411   .     A
C548   C562    1.444   .     S
C548   N580    1.158   .     T
C549   C563    1.444   .     S
C549   N581    1.158   .     T
C550   C564    1.445   .     S
C550   N582    1.158   .     T
C551   O591    1.305   .     A
C551   O594    1.302   .     A
C552   C565    1.443   .     S
C552   N583    1.158   .     T
C553   N584    1.156   .     T
C554   N585    1.157   .     T
C555   N586    1.157   .     T
C556   N574    1.157   .     T
C557   C566    1.449   .     S
C557   N575    1.155   .     T
C558   N576    1.157   .     T
C559   N577    1.155   .     T
C560   N578    1.155   .     T
C561   O593    1.307   .     A
C561   O592    1.302   .     A
C562   N579    1.372   .     A
C563   N573    1.374   .     A
C563   C168    1.425   1_565 S
C564   N579    1.369   .     A
C565   N573    1.372   .     A
C565   C166    1.425   1_565 S
Cu571  Cu572   2.694   .     S
Cu571  O587    1.988   .     S
Cu571  N573    2.025   .     S
Cu571  O591    1.973   .     S
Cu571  O593    1.969   .     S
Cu571  O589    1.983   .     S
Cu572  O594    1.969   .     S
Cu572  O592    1.973   .     S
Cu572  O588    1.988   .     S
Cu572  N579    2.025   .     S
Cu572  O590    1.983   .     S
C595   O656    1.301   .     A
C595   C613    1.478   .     S
C595   O653    1.303   .     A
C596   C612    1.411   .     A
C596   C624    1.451   .     S
C596   C664    1.392   .     S
C597   C625    1.448   .     S
C597   C612    1.416   .     A
C597   C698    1.395   .     S
C598   C626    1.444   .     S
C598   C613    1.409   .     A
C598   C728    1.392   1_455 S
C599   C603    1.394   .     A
C599   Cl633   1.777   .     S
C599   C610    1.405   .     A
C600   C604    1.404   .     A
C600   Cl634   1.775   .     S
C600   C611    1.404   .     A
C601   C605    1.396   .     A
C601   Cl635   1.777   .     S
C601   C611    1.404   .     A
C602   C607    1.405   .     A
C602   C610    1.406   .     A
C602   Cl636   1.773   .     S
C603   C608    1.414   .     A
C603   C619    1.443   .     S
C604   C620    1.448   .     S
C604   C609    1.426   .     A
C605   C621    1.444   .     S
C605   C609    1.417   .     A
C606   O655    1.304   .     A
C606   C612    1.476   .     S
C606   O654    1.299   .     A
C607   C622    1.449   .     S
C607   C608    1.422   .     A
C608   C617    1.485   .     S
C609   C627    1.491   .     S
C611   C16     1.473   1_556 S
C613   C632    1.411   .     A
C614   C628    1.444   .     S
C614   N646    1.158   .     T
C615   C629    1.444   .     S
C615   N647    1.158   .     T
C616   C630    1.445   .     S
C616   N648    1.158   .     T
C617   O657    1.305   .     A
C617   O660    1.302   .     A
C618   C631    1.443   .     S
C618   N649    1.158   .     T
C619   N650    1.156   .     T
C620   N651    1.157   .     T
C621   N652    1.157   .     T
C622   N640    1.157   .     T
C623   C632    1.449   .     S
C623   N641    1.155   .     T
C624   N642    1.157   .     T
C625   N643    1.155   .     T
C626   N644    1.155   .     T
C627   O659    1.307   .     A
C627   O658    1.302   .     A
C628   N645    1.372   .     A
C628   C1027   1.425   1_545 S
C629   N639    1.374   .     A
C629   C828    1.425   .     S
C630   N645    1.369   .     A
C630   C1025   1.425   1_545 S
C631   N639    1.372   .     A
C631   C826    1.425   .     S
C632   C729    1.395   1_455 S
Cu637  Cu638   2.694   .     S
Cu637  O653    1.988   .     S
Cu637  N639    2.025   .     S
Cu637  O657    1.973   .     S
Cu637  O659    1.969   .     S
Cu637  O655    1.983   .     S
Cu638  O660    1.969   .     S
Cu638  O658    1.973   .     S
Cu638  O654    1.988   .     S
Cu638  N645    2.025   .     S
Cu638  O656    1.983   .     S
C661   O722    1.301   .     A
C661   C679    1.478   .     S
C661   O719    1.303   .     A
C662   C678    1.411   .     A
C662   C690    1.451   .     S
C662   C730    1.392   .     S
C663   C691    1.448   .     S
C663   C678    1.416   .     A
C663   C764    1.395   .     S
C664   C692    1.444   .     S
C664   C679    1.409   .     A
C665   C669    1.394   .     A
C665   Cl699   1.777   .     S
C665   C676    1.405   .     A
C666   C670    1.404   .     A
C666   Cl700   1.775   .     S
C666   C677    1.404   .     A
C667   C671    1.396   .     A
C667   Cl701   1.777   .     S
C667   C677    1.404   .     A
C668   C673    1.405   .     A
C668   C676    1.406   .     A
C668   Cl702   1.773   .     S
C669   C674    1.414   .     A
C669   C685    1.443   .     S
C670   C686    1.448   .     S
C670   C675    1.426   .     A
C671   C687    1.444   .     S
C671   C675    1.417   .     A
C672   O721    1.304   .     A
C672   C678    1.476   .     S
C672   O720    1.299   .     A
C673   C688    1.449   .     S
C673   C674    1.422   .     A
C674   C683    1.485   .     S
C675   C693    1.491   .     S
C677   C82     1.473   1_556 S
C679   C698    1.411   .     A
C680   C694    1.444   .     S
C680   N712    1.158   .     T
C681   C695    1.444   .     S
C681   N713    1.158   .     T
C682   C696    1.445   .     S
C682   N714    1.158   .     T
C683   O723    1.305   .     A
C683   O726    1.302   .     A
C684   C697    1.443   .     S
C684   N715    1.158   .     T
C685   N716    1.156   .     T
C686   N717    1.157   .     T
C687   N718    1.157   .     T
C688   N706    1.157   .     T
C689   C698    1.449   .     S
C689   N707    1.155   .     T
C690   N708    1.157   .     T
C691   N709    1.155   .     T
C692   N710    1.155   .     T
C693   O725    1.307   .     A
C693   O724    1.302   .     A
C694   N711    1.372   .     A
C694   C1093   1.425   1_545 S
C695   N705    1.374   .     A
C695   C894    1.425   .     S
C696   N711    1.369   .     A
C696   C1091   1.425   1_545 S
C697   N705    1.372   .     A
C697   C892    1.425   .     S
Cu703  Cu704   2.694   .     S
Cu703  O719    1.988   .     S
Cu703  N705    2.025   .     S
Cu703  O723    1.973   .     S
Cu703  O725    1.969   .     S
Cu703  O721    1.983   .     S
Cu704  O726    1.969   .     S
Cu704  O724    1.973   .     S
Cu704  O720    1.988   .     S
Cu704  N711    2.025   .     S
Cu704  O722    1.983   .     S
C727   O788    1.301   .     A
C727   C745    1.478   .     S
C727   O785    1.303   .     A
C728   C744    1.411   .     A
C728   C756    1.451   .     S
C728   C598    1.392   1_655 S
C729   C757    1.448   .     S
C729   C744    1.416   .     A
C729   C632    1.395   1_655 S
C730   C758    1.444   .     S
C730   C745    1.409   .     A
C731   C735    1.394   .     A
C731   Cl765   1.777   .     S
C731   C742    1.405   .     A
C732   C736    1.404   .     A
C732   Cl766   1.775   .     S
C732   C743    1.404   .     A
C733   C737    1.396   .     A
C733   Cl767   1.777   .     S
C733   C743    1.404   .     A
C734   C739    1.405   .     A
C734   C742    1.406   .     A
C734   Cl768   1.773   .     S
C735   C740    1.414   .     A
C735   C751    1.443   .     S
C736   C752    1.448   .     S
C736   C741    1.426   .     A
C737   C753    1.444   .     S
C737   C741    1.417   .     A
C738   O787    1.304   .     A
C738   C744    1.476   .     S
C738   O786    1.299   .     A
C739   C754    1.449   .     S
C739   C740    1.422   .     A
C740   C749    1.485   .     S
C741   C759    1.491   .     S
C743   C148    1.473   1_556 S
C745   C764    1.411   .     A
C746   C760    1.444   .     S
C746   N778    1.158   .     T
C747   C761    1.444   .     S
C747   N779    1.158   .     T
C748   C762    1.445   .     S
C748   N780    1.158   .     T
C749   O789    1.305   .     A
C749   O792    1.302   .     A
C750   C763    1.443   .     S
C750   N781    1.158   .     T
C751   N782    1.156   .     T
C752   N783    1.157   .     T
C753   N784    1.157   .     T
C754   N772    1.157   .     T
C755   C764    1.449   .     S
C755   N773    1.155   .     T
C756   N774    1.157   .     T
C757   N775    1.155   .     T
C758   N776    1.155   .     T
C759   O791    1.307   .     A
C759   O790    1.302   .     A
C760   N777    1.372   .     A
C760   C1159   1.425   1_545 S
C761   N771    1.374   .     A
C761   C960    1.425   .     S
C762   N777    1.369   .     A
C762   C1157   1.425   1_545 S
C763   N771    1.372   .     A
C763   C958    1.425   .     S
Cu769  Cu770   2.694   .     S
Cu769  O785    1.988   .     S
Cu769  N771    2.025   .     S
Cu769  O789    1.973   .     S
Cu769  O791    1.969   .     S
Cu769  O787    1.983   .     S
Cu770  O792    1.969   .     S
Cu770  O790    1.973   .     S
Cu770  O786    1.988   .     S
Cu770  N777    2.025   .     S
Cu770  O788    1.983   .     S
C793   O854    1.301   .     A
C793   C811    1.478   .     S
C793   O851    1.303   .     A
C794   C810    1.411   .     A
C794   C822    1.451   .     S
C794   C862    1.392   .     S
C795   C823    1.448   .     S
C795   C810    1.416   .     A
C795   C896    1.395   .     S
C796   C824    1.444   .     S
C796   C811    1.409   .     A
C796   C926    1.392   1_455 S
C797   C801    1.394   .     A
C797   Cl831   1.777   .     S
C797   C808    1.405   .     A
C798   C802    1.404   .     A
C798   Cl832   1.775   .     S
C798   C809    1.404   .     A
C799   C803    1.396   .     A
C799   Cl833   1.777   .     S
C799   C809    1.404   .     A
C800   C805    1.405   .     A
C800   C808    1.406   .     A
C800   Cl834   1.773   .     S
C801   C806    1.414   .     A
C801   C817    1.443   .     S
C802   C818    1.448   .     S
C802   C807    1.426   .     A
C803   C819    1.444   .     S
C803   C807    1.417   .     A
C804   O853    1.304   .     A
C804   C810    1.476   .     S
C804   O852    1.299   .     A
C805   C820    1.449   .     S
C805   C806    1.422   .     A
C806   C815    1.485   .     S
C807   C825    1.491   .     S
C809   C214    1.473   1_556 S
C811   C830    1.411   .     A
C812   C826    1.444   .     S
C812   N844    1.158   .     T
C813   C827    1.444   .     S
C813   N845    1.158   .     T
C814   C828    1.445   .     S
C814   N846    1.158   .     T
C815   O855    1.305   .     A
C815   O858    1.302   .     A
C816   C829    1.443   .     S
C816   N847    1.158   .     T
C817   N848    1.156   .     T
C818   N849    1.157   .     T
C819   N850    1.157   .     T
C820   N838    1.157   .     T
C821   C830    1.449   .     S
C821   N839    1.155   .     T
C822   N840    1.157   .     T
C823   N841    1.155   .     T
C824   N842    1.155   .     T
C825   O857    1.307   .     A
C825   O856    1.302   .     A
C826   N843    1.372   .     A
C827   N837    1.374   .     A
C827   C1026   1.425   .     S
C828   N843    1.369   .     A
C829   N837    1.372   .     A
C829   C1024   1.425   .     S
C830   C927    1.395   1_455 S
Cu835  Cu836   2.694   .     S
Cu835  O851    1.988   .     S
Cu835  N837    2.025   .     S
Cu835  O855    1.973   .     S
Cu835  O857    1.969   .     S
Cu835  O853    1.983   .     S
Cu836  O858    1.969   .     S
Cu836  O856    1.973   .     S
Cu836  O852    1.988   .     S
Cu836  N843    2.025   .     S
Cu836  O854    1.983   .     S
C859   O920    1.301   .     A
C859   C877    1.478   .     S
C859   O917    1.303   .     A
C860   C876    1.411   .     A
C860   C888    1.451   .     S
C860   C928    1.392   .     S
C861   C889    1.448   .     S
C861   C876    1.416   .     A
C861   C962    1.395   .     S
C862   C890    1.444   .     S
C862   C877    1.409   .     A
C863   C867    1.394   .     A
C863   Cl897   1.777   .     S
C863   C874    1.405   .     A
C864   C868    1.404   .     A
C864   Cl898   1.775   .     S
C864   C875    1.404   .     A
C865   C869    1.396   .     A
C865   Cl899   1.777   .     S
C865   C875    1.404   .     A
C866   C871    1.405   .     A
C866   C874    1.406   .     A
C866   Cl900   1.773   .     S
C867   C872    1.414   .     A
C867   C883    1.443   .     S
C868   C884    1.448   .     S
C868   C873    1.426   .     A
C869   C885    1.444   .     S
C869   C873    1.417   .     A
C870   O919    1.304   .     A
C870   C876    1.476   .     S
C870   O918    1.299   .     A
C871   C886    1.449   .     S
C871   C872    1.422   .     A
C872   C881    1.485   .     S
C873   C891    1.491   .     S
C875   C280    1.473   1_556 S
C877   C896    1.411   .     A
C878   C892    1.444   .     S
C878   N910    1.158   .     T
C879   C893    1.444   .     S
C879   N911    1.158   .     T
C880   C894    1.445   .     S
C880   N912    1.158   .     T
C881   O921    1.305   .     A
C881   O924    1.302   .     A
C882   C895    1.443   .     S
C882   N913    1.158   .     T
C883   N914    1.156   .     T
C884   N915    1.157   .     T
C885   N916    1.157   .     T
C886   N904    1.157   .     T
C887   C896    1.449   .     S
C887   N905    1.155   .     T
C888   N906    1.157   .     T
C889   N907    1.155   .     T
C890   N908    1.155   .     T
C891   O923    1.307   .     A
C891   O922    1.302   .     A
C892   N909    1.372   .     A
C893   N903    1.374   .     A
C893   C1092   1.425   .     S
C894   N909    1.369   .     A
C895   N903    1.372   .     A
C895   C1090   1.425   .     S
Cu901  Cu902   2.694   .     S
Cu901  O917    1.988   .     S
Cu901  N903    2.025   .     S
Cu901  O921    1.973   .     S
Cu901  O923    1.969   .     S
Cu901  O919    1.983   .     S
Cu902  O924    1.969   .     S
Cu902  O922    1.973   .     S
Cu902  O918    1.988   .     S
Cu902  N909    2.025   .     S
Cu902  O920    1.983   .     S
C925   O986    1.301   .     A
C925   C943    1.478   .     S
C925   O983    1.303   .     A
C926   C942    1.411   .     A
C926   C954    1.451   .     S
C926   C796    1.392   1_655 S
C927   C955    1.448   .     S
C927   C942    1.416   .     A
C927   C830    1.395   1_655 S
C928   C956    1.444   .     S
C928   C943    1.409   .     A
C929   C933    1.394   .     A
C929   Cl963   1.777   .     S
C929   C940    1.405   .     A
C930   C934    1.404   .     A
C930   Cl964   1.775   .     S
C930   C941    1.404   .     A
C931   C935    1.396   .     A
C931   Cl965   1.777   .     S
C931   C941    1.404   .     A
C932   C937    1.405   .     A
C932   C940    1.406   .     A
C932   Cl966   1.773   .     S
C933   C938    1.414   .     A
C933   C949    1.443   .     S
C934   C950    1.448   .     S
C934   C939    1.426   .     A
C935   C951    1.444   .     S
C935   C939    1.417   .     A
C936   O985    1.304   .     A
C936   C942    1.476   .     S
C936   O984    1.299   .     A
C937   C952    1.449   .     S
C937   C938    1.422   .     A
C938   C947    1.485   .     S
C939   C957    1.491   .     S
C941   C346    1.473   1_556 S
C943   C962    1.411   .     A
C944   C958    1.444   .     S
C944   N976    1.158   .     T
C945   C959    1.444   .     S
C945   N977    1.158   .     T
C946   C960    1.445   .     S
C946   N978    1.158   .     T
C947   O987    1.305   .     A
C947   O990    1.302   .     A
C948   C961    1.443   .     S
C948   N979    1.158   .     T
C949   N980    1.156   .     T
C950   N981    1.157   .     T
C951   N982    1.157   .     T
C952   N970    1.157   .     T
C953   C962    1.449   .     S
C953   N971    1.155   .     T
C954   N972    1.157   .     T
C955   N973    1.155   .     T
C956   N974    1.155   .     T
C957   O989    1.307   .     A
C957   O988    1.302   .     A
C958   N975    1.372   .     A
C959   N969    1.374   .     A
C959   C1158   1.425   .     S
C960   N975    1.369   .     A
C961   N969    1.372   .     A
C961   C1156   1.425   .     S
Cu967  Cu968   2.694   .     S
Cu967  O983    1.988   .     S
Cu967  N969    2.025   .     S
Cu967  O987    1.973   .     S
Cu967  O989    1.969   .     S
Cu967  O985    1.983   .     S
Cu968  O990    1.969   .     S
Cu968  O988    1.973   .     S
Cu968  O984    1.988   .     S
Cu968  N975    2.025   .     S
Cu968  O986    1.983   .     S
C991   O1052   1.301   .     A
C991   C1009   1.478   .     S
C991   O1049   1.303   .     A
C992   C1008   1.411   .     A
C992   C1020   1.451   .     S
C992   C1060   1.392   .     S
C993   C1021   1.448   .     S
C993   C1008   1.416   .     A
C993   C1094   1.395   .     S
C994   C1022   1.444   .     S
C994   C1009   1.409   .     A
C994   C1124   1.392   1_455 S
C995   C999    1.394   .     A
C995   Cl1029  1.777   .     S
C995   C1006   1.405   .     A
C996   C1000   1.404   .     A
C996   Cl1030  1.775   .     S
C996   C1007   1.404   .     A
C997   C1001   1.396   .     A
C997   Cl1031  1.777   .     S
C997   C1007   1.404   .     A
C998   C1003   1.405   .     A
C998   C1006   1.406   .     A
C998   Cl1032  1.773   .     S
C999   C1004   1.414   .     A
C999   C1015   1.443   .     S
C1000  C1016   1.448   .     S
C1000  C1005   1.426   .     A
C1001  C1017   1.444   .     S
C1001  C1005   1.417   .     A
C1002  O1051   1.304   .     A
C1002  C1008   1.476   .     S
C1002  O1050   1.299   .     A
C1003  C1018   1.449   .     S
C1003  C1004   1.422   .     A
C1004  C1013   1.485   .     S
C1005  C1023   1.491   .     S
C1007  C412    1.473   1_556 S
C1009  C1028   1.411   .     A
C1010  C1024   1.444   .     S
C1010  N1042   1.158   .     T
C1011  C1025   1.444   .     S
C1011  N1043   1.158   .     T
C1012  C1026   1.445   .     S
C1012  N1044   1.158   .     T
C1013  O1053   1.305   .     A
C1013  O1056   1.302   .     A
C1014  C1027   1.443   .     S
C1014  N1045   1.158   .     T
C1015  N1046   1.156   .     T
C1016  N1047   1.157   .     T
C1017  N1048   1.157   .     T
C1018  N1036   1.157   .     T
C1019  C1028   1.449   .     S
C1019  N1037   1.155   .     T
C1020  N1038   1.157   .     T
C1021  N1039   1.155   .     T
C1022  N1040   1.155   .     T
C1023  O1055   1.307   .     A
C1023  O1054   1.302   .     A
C1024  N1041   1.372   .     A
C1025  N1035   1.374   .     A
C1025  C630    1.425   1_565 S
C1026  N1041   1.369   .     A
C1027  N1035   1.372   .     A
C1027  C628    1.425   1_565 S
C1028  C1125   1.395   1_455 S
Cu1033 Cu1034  2.694   .     S
Cu1033 O1049   1.988   .     S
Cu1033 N1035   2.025   .     S
Cu1033 O1053   1.973   .     S
Cu1033 O1055   1.969   .     S
Cu1033 O1051   1.983   .     S
Cu1034 O1056   1.969   .     S
Cu1034 O1054   1.973   .     S
Cu1034 O1050   1.988   .     S
Cu1034 N1041   2.025   .     S
Cu1034 O1052   1.983   .     S
C1057  O1118   1.301   .     A
C1057  C1075   1.478   .     S
C1057  O1115   1.303   .     A
C1058  C1074   1.411   .     A
C1058  C1086   1.451   .     S
C1058  C1126   1.392   .     S
C1059  C1087   1.448   .     S
C1059  C1074   1.416   .     A
C1059  C1160   1.395   .     S
C1060  C1088   1.444   .     S
C1060  C1075   1.409   .     A
C1061  C1065   1.394   .     A
C1061  Cl1095  1.777   .     S
C1061  C1072   1.405   .     A
C1062  C1066   1.404   .     A
C1062  Cl1096  1.775   .     S
C1062  C1073   1.404   .     A
C1063  C1067   1.396   .     A
C1063  Cl1097  1.777   .     S
C1063  C1073   1.404   .     A
C1064  C1069   1.405   .     A
C1064  C1072   1.406   .     A
C1064  Cl1098  1.773   .     S
C1065  C1070   1.414   .     A
C1065  C1081   1.443   .     S
C1066  C1082   1.448   .     S
C1066  C1071   1.426   .     A
C1067  C1083   1.444   .     S
C1067  C1071   1.417   .     A
C1068  O1117   1.304   .     A
C1068  C1074   1.476   .     S
C1068  O1116   1.299   .     A
C1069  C1084   1.449   .     S
C1069  C1070   1.422   .     A
C1070  C1079   1.485   .     S
C1071  C1089   1.491   .     S
C1073  C478    1.473   1_556 S
C1075  C1094   1.411   .     A
C1076  C1090   1.444   .     S
C1076  N1108   1.158   .     T
C1077  C1091   1.444   .     S
C1077  N1109   1.158   .     T
C1078  C1092   1.445   .     S
C1078  N1110   1.158   .     T
C1079  O1119   1.305   .     A
C1079  O1122   1.302   .     A
C1080  C1093   1.443   .     S
C1080  N1111   1.158   .     T
C1081  N1112   1.156   .     T
C1082  N1113   1.157   .     T
C1083  N1114   1.157   .     T
C1084  N1102   1.157   .     T
C1085  C1094   1.449   .     S
C1085  N1103   1.155   .     T
C1086  N1104   1.157   .     T
C1087  N1105   1.155   .     T
C1088  N1106   1.155   .     T
C1089  O1121   1.307   .     A
C1089  O1120   1.302   .     A
C1090  N1107   1.372   .     A
C1091  N1101   1.374   .     A
C1091  C696    1.425   1_565 S
C1092  N1107   1.369   .     A
C1093  N1101   1.372   .     A
C1093  C694    1.425   1_565 S
Cu1099 Cu1100  2.694   .     S
Cu1099 O1115   1.988   .     S
Cu1099 N1101   2.025   .     S
Cu1099 O1119   1.973   .     S
Cu1099 O1121   1.969   .     S
Cu1099 O1117   1.983   .     S
Cu1100 O1122   1.969   .     S
Cu1100 O1120   1.973   .     S
Cu1100 O1116   1.988   .     S
Cu1100 N1107   2.025   .     S
Cu1100 O1118   1.983   .     S
C1123  O1184   1.301   .     A
C1123  C1141   1.478   .     S
C1123  O1181   1.303   .     A
C1124  C1140   1.411   .     A
C1124  C1152   1.451   .     S
C1124  C994    1.392   1_655 S
C1125  C1153   1.448   .     S
C1125  C1140   1.416   .     A
C1125  C1028   1.395   1_655 S
C1126  C1154   1.444   .     S
C1126  C1141   1.409   .     A
C1127  C1131   1.394   .     A
C1127  Cl1161  1.777   .     S
C1127  C1138   1.405   .     A
C1128  C1132   1.404   .     A
C1128  Cl1162  1.775   .     S
C1128  C1139   1.404   .     A
C1129  C1133   1.396   .     A
C1129  Cl1163  1.777   .     S
C1129  C1139   1.404   .     A
C1130  C1135   1.405   .     A
C1130  C1138   1.406   .     A
C1130  Cl1164  1.773   .     S
C1131  C1136   1.414   .     A
C1131  C1147   1.443   .     S
C1132  C1148   1.448   .     S
C1132  C1137   1.426   .     A
C1133  C1149   1.444   .     S
C1133  C1137   1.417   .     A
C1134  O1183   1.304   .     A
C1134  C1140   1.476   .     S
C1134  O1182   1.299   .     A
C1135  C1150   1.449   .     S
C1135  C1136   1.422   .     A
C1136  C1145   1.485   .     S
C1137  C1155   1.491   .     S
C1139  C544    1.473   1_556 S
C1141  C1160   1.411   .     A
C1142  C1156   1.444   .     S
C1142  N1174   1.158   .     T
C1143  C1157   1.444   .     S
C1143  N1175   1.158   .     T
C1144  C1158   1.445   .     S
C1144  N1176   1.158   .     T
C1145  O1185   1.305   .     A
C1145  O1188   1.302   .     A
C1146  C1159   1.443   .     S
C1146  N1177   1.158   .     T
C1147  N1178   1.156   .     T
C1148  N1179   1.157   .     T
C1149  N1180   1.157   .     T
C1150  N1168   1.157   .     T
C1151  C1160   1.449   .     S
C1151  N1169   1.155   .     T
C1152  N1170   1.157   .     T
C1153  N1171   1.155   .     T
C1154  N1172   1.155   .     T
C1155  O1187   1.307   .     A
C1155  O1186   1.302   .     A
C1156  N1173   1.372   .     A
C1157  N1167   1.374   .     A
C1157  C762    1.425   1_565 S
C1158  N1173   1.369   .     A
C1159  N1167   1.372   .     A
C1159  C760    1.425   1_565 S
Cu1165 Cu1166  2.694   .     S
Cu1165 O1181   1.988   .     S
Cu1165 N1167   2.025   .     S
Cu1165 O1185   1.973   .     S
Cu1165 O1187   1.969   .     S
Cu1165 O1183   1.983   .     S
Cu1166 O1188   1.969   .     S
Cu1166 O1186   1.973   .     S
Cu1166 O1182   1.988   .     S
Cu1166 N1173   2.025   .     S
Cu1166 O1184   1.983   .     S
