data_str_m2_o1_o18_pcu_sym.73
_audit_creation_date              2020-01-03
_audit_creation_method            'Materials Studio'
_symmetry_space_group_name_H-M    'P1'
_symmetry_Int_Tables_number       1
_symmetry_cell_setting            triclinic
loop_
_symmetry_equiv_pos_as_xyz
  x,y,z
_cell_length_a                    28.6900
_cell_length_b                    32.5018
_cell_length_c                    31.1511
_cell_angle_alpha                 88.0870
_cell_angle_beta                  75.1714
_cell_angle_gamma                 89.9418
loop_
_atom_site_label
_atom_site_type_symbol
_atom_site_fract_x
_atom_site_fract_y
_atom_site_fract_z
_atom_site_U_iso_or_equiv
_atom_site_adp_type
_atom_site_occupancy
C1     C     0.00002   0.08740   0.24994   0.00000  Uiso   1.00
C2     C     0.04312   0.02135   0.24665   0.00000  Uiso   1.00
C3     C     0.33329   0.29057   0.25018   0.00000  Uiso   1.00
C4     C     0.00004   0.04277   0.24982   0.00000  Uiso   1.00
C5     C     0.18410   0.13873   0.27597   0.00000  Uiso   1.00
C6     C     0.14924   0.19461   0.22403   0.00000  Uiso   1.00
C7     C     0.13452   0.13839   0.27553   0.00000  Uiso   1.00
C8     C     0.19882   0.19494   0.22447   0.00000  Uiso   1.00
C9     C     0.30623   0.16929   0.33596   0.00000  Uiso   1.00
C10    C     0.02710   0.16404   0.16404   0.00000  Uiso   1.00
C11    C     0.29091   0.17175   0.38542   0.00000  Uiso   1.00
C12    C     0.33332   0.24593   0.25006   0.00000  Uiso   1.00
C13    C     0.04243   0.16159   0.11458   0.00000  Uiso   1.00
C14    C     0.30503   0.14818   0.45545   0.00000  Uiso   1.00
C15    C     0.02831   0.18515   0.04455   0.00000  Uiso   1.00
C16    C     0.32317   0.16176   0.41160   0.00000  Uiso   1.00
C17    C     0.01017   0.17158   0.08840   0.00000  Uiso   1.00
C18    C     0.24191   0.18027   0.40747   0.00000  Uiso   1.00
C19    C     0.09143   0.15306   0.09253   0.00000  Uiso   1.00
C20    C     0.22426   0.17076   0.45392   0.00000  Uiso   1.00
C21    C     0.10907   0.16258   0.04608   0.00000  Uiso   1.00
C22    C     0.25562   0.14919   0.47509   0.00000  Uiso   1.00
C23    C     0.18798   0.12646   0.03393   0.00000  Uiso   1.00
C24    C     0.07772   0.18415   0.02491   0.00000  Uiso   1.00
C25    C     0.17581   0.17780   0.47942   0.00000  Uiso   1.00
C26    C     0.15752   0.15553   0.02058   0.00000  Uiso   1.00
C27    C     0.12360   0.13836   0.11876   0.00000  Uiso   1.00
C28    C     0.20972   0.19497   0.38124   0.00000  Uiso   1.00
C29    C     0.29191   0.16758   0.10478   0.00000  Uiso   1.00
C30    C     0.04143   0.16576   0.39522   0.00000  Uiso   1.00
C31    C     0.20019   0.10999   0.30532   0.00000  Uiso   1.00
C32    C     0.13315   0.22334   0.19468   0.00000  Uiso   1.00
C33    C     0.14536   0.20687   0.46608   0.00000  Uiso   1.00
C34    C     0.23703   0.12659   0.01441   0.00000  Uiso   1.00
C35    C     0.09630   0.20675   0.48559   0.00000  Uiso   1.00
C36    C     0.29028   0.02122   0.25300   0.00000  Uiso   1.00
C37    C     0.04305   0.31211   0.24700   0.00000  Uiso   1.00
C38    C     0.29021   0.31198   0.25335   0.00000  Uiso   1.00
Cu39   Cu    0.04689   0.16667   0.25000   0.00000  Uiso   1.00
Cu40   Cu    0.28645   0.16666   0.25000   0.00000  Uiso   1.00
H41    H     0.26004   0.10650   0.02831   0.00000  Uiso   1.00
H42    H     0.07690   0.03737   0.24369   0.00000  Uiso   1.00
H43    H     0.10344   0.10813   0.33392   0.00000  Uiso   1.00
H44    H     0.11506   0.07883   0.28901   0.00000  Uiso   1.00
H45    H     0.22989   0.22521   0.16608   0.00000  Uiso   1.00
H46    H     0.21828   0.25450   0.21098   0.00000  Uiso   1.00
H47    H     0.07330   0.22684   0.47170   0.00000  Uiso   1.00
H48    H     0.32943   0.13576   0.47401   0.00000  Uiso   1.00
H49    H     0.00391   0.19758   0.02599   0.00000  Uiso   1.00
H50    H     0.17469   0.10263   0.05887   0.00000  Uiso   1.00
H51    H     0.15864   0.23070   0.44113   0.00000  Uiso   1.00
H52    H     0.25660   0.03713   0.25533   0.00000  Uiso   1.00
H53    H     0.07673   0.29620   0.24467   0.00000  Uiso   1.00
H54    H     0.25643   0.29596   0.25631   0.00000  Uiso   1.00
N55    N     0.11736   0.16668   0.24999   0.00000  Uiso   1.00
N56    N     0.23100   0.22578   0.19925   0.00000  Uiso   1.00
N57    N     0.21597   0.16666   0.25001   0.00000  Uiso   1.00
N58    N     0.14883   0.12656   0.14011   0.00000  Uiso   1.00
N59    N     0.18450   0.20676   0.35989   0.00000  Uiso   1.00
N60    N     0.25053   0.16366   0.11722   0.00000  Uiso   1.00
N61    N     0.08281   0.16968   0.38278   0.00000  Uiso   1.00
N62    N     0.21259   0.08693   0.32921   0.00000  Uiso   1.00
N63    N     0.12075   0.24640   0.17079   0.00000  Uiso   1.00
N64    N     0.10233   0.10755   0.30074   0.00000  Uiso   1.00
O65    O     0.03958   0.10655   0.25000   0.00000  Uiso   1.00
O66    O     0.29375   0.22678   0.25000   0.00000  Uiso   1.00
O67    O     0.29372   0.10654   0.25001   0.00000  Uiso   1.00
O68    O     0.03961   0.22679   0.25000   0.00000  Uiso   1.00
O69    O     0.01852   0.16668   0.31492   0.00000  Uiso   1.00
O70    O     0.31481   0.16666   0.18509   0.00000  Uiso   1.00
O71    O     0.27267   0.16667   0.31492   0.00000  Uiso   1.00
O72    O     0.06067   0.16667   0.18508   0.00000  Uiso   1.00
C73    C     0.33335   0.08740   0.24994   0.00000  Uiso   1.00
C74    C     0.37645   0.02135   0.24665   0.00000  Uiso   1.00
C75    C     0.66662   0.29057   0.25018   0.00000  Uiso   1.00
C76    C     0.33338   0.04277   0.24982   0.00000  Uiso   1.00
C77    C     0.51743   0.13873   0.27597   0.00000  Uiso   1.00
C78    C     0.48257   0.19461   0.22403   0.00000  Uiso   1.00
C79    C     0.46785   0.13839   0.27553   0.00000  Uiso   1.00
C80    C     0.53215   0.19494   0.22447   0.00000  Uiso   1.00
C81    C     0.63957   0.16929   0.33596   0.00000  Uiso   1.00
C82    C     0.36043   0.16404   0.16404   0.00000  Uiso   1.00
C83    C     0.62424   0.17175   0.38542   0.00000  Uiso   1.00
C84    C     0.66665   0.24593   0.25006   0.00000  Uiso   1.00
C85    C     0.37576   0.16159   0.11458   0.00000  Uiso   1.00
C86    C     0.63836   0.14818   0.45545   0.00000  Uiso   1.00
C87    C     0.36164   0.18515   0.04455   0.00000  Uiso   1.00
C88    C     0.65650   0.16176   0.41160   0.00000  Uiso   1.00
C89    C     0.34350   0.17158   0.08840   0.00000  Uiso   1.00
C90    C     0.57524   0.18027   0.40747   0.00000  Uiso   1.00
C91    C     0.42476   0.15306   0.09253   0.00000  Uiso   1.00
C92    C     0.55760   0.17076   0.45392   0.00000  Uiso   1.00
C93    C     0.44241   0.16258   0.04608   0.00000  Uiso   1.00
C94    C     0.58895   0.14919   0.47509   0.00000  Uiso   1.00
C95    C     0.52131   0.12646   0.03393   0.00000  Uiso   1.00
C96    C     0.41105   0.18415   0.02491   0.00000  Uiso   1.00
C97    C     0.50915   0.17780   0.47942   0.00000  Uiso   1.00
C98    C     0.49086   0.15553   0.02058   0.00000  Uiso   1.00
C99    C     0.45694   0.13836   0.11876   0.00000  Uiso   1.00
C100   C     0.54306   0.19497   0.38124   0.00000  Uiso   1.00
C101   C     0.62524   0.16758   0.10478   0.00000  Uiso   1.00
C102   C     0.37476   0.16576   0.39522   0.00000  Uiso   1.00
C103   C     0.53352   0.10999   0.30532   0.00000  Uiso   1.00
C104   C     0.46648   0.22334   0.19468   0.00000  Uiso   1.00
C105   C     0.47869   0.20687   0.46608   0.00000  Uiso   1.00
C106   C     0.57037   0.12659   0.01441   0.00000  Uiso   1.00
C107   C     0.42964   0.20675   0.48559   0.00000  Uiso   1.00
C108   C     0.62362   0.02122   0.25300   0.00000  Uiso   1.00
C109   C     0.37638   0.31211   0.24700   0.00000  Uiso   1.00
C110   C     0.62355   0.31198   0.25335   0.00000  Uiso   1.00
Cu111  Cu    0.38022   0.16667   0.25000   0.00000  Uiso   1.00
Cu112  Cu    0.61978   0.16666   0.25000   0.00000  Uiso   1.00
H113   H     0.59337   0.10650   0.02831   0.00000  Uiso   1.00
H114   H     0.41023   0.03737   0.24369   0.00000  Uiso   1.00
H115   H     0.43678   0.10813   0.33392   0.00000  Uiso   1.00
H116   H     0.44840   0.07883   0.28901   0.00000  Uiso   1.00
H117   H     0.56322   0.22521   0.16608   0.00000  Uiso   1.00
H118   H     0.55161   0.25450   0.21098   0.00000  Uiso   1.00
H119   H     0.40663   0.22684   0.47170   0.00000  Uiso   1.00
H120   H     0.66276   0.13576   0.47401   0.00000  Uiso   1.00
H121   H     0.33724   0.19758   0.02599   0.00000  Uiso   1.00
H122   H     0.50803   0.10263   0.05887   0.00000  Uiso   1.00
H123   H     0.49198   0.23070   0.44113   0.00000  Uiso   1.00
H124   H     0.58993   0.03713   0.25533   0.00000  Uiso   1.00
H125   H     0.41007   0.29620   0.24467   0.00000  Uiso   1.00
H126   H     0.58977   0.29596   0.25631   0.00000  Uiso   1.00
N127   N     0.45069   0.16668   0.24999   0.00000  Uiso   1.00
N128   N     0.56434   0.22578   0.19925   0.00000  Uiso   1.00
N129   N     0.54931   0.16666   0.25001   0.00000  Uiso   1.00
N130   N     0.48216   0.12656   0.14011   0.00000  Uiso   1.00
N131   N     0.51783   0.20676   0.35989   0.00000  Uiso   1.00
N132   N     0.58386   0.16366   0.11722   0.00000  Uiso   1.00
N133   N     0.41614   0.16968   0.38278   0.00000  Uiso   1.00
N134   N     0.54592   0.08693   0.32921   0.00000  Uiso   1.00
N135   N     0.45408   0.24640   0.17079   0.00000  Uiso   1.00
N136   N     0.43566   0.10755   0.30074   0.00000  Uiso   1.00
O137   O     0.37291   0.10655   0.25000   0.00000  Uiso   1.00
O138   O     0.62709   0.22678   0.25000   0.00000  Uiso   1.00
O139   O     0.62706   0.10654   0.25001   0.00000  Uiso   1.00
O140   O     0.37294   0.22679   0.25000   0.00000  Uiso   1.00
O141   O     0.35186   0.16668   0.31492   0.00000  Uiso   1.00
O142   O     0.64814   0.16666   0.18509   0.00000  Uiso   1.00
O143   O     0.60600   0.16667   0.31492   0.00000  Uiso   1.00
O144   O     0.39400   0.16667   0.18508   0.00000  Uiso   1.00
C145   C     0.66668   0.08740   0.24994   0.00000  Uiso   1.00
C146   C     0.70979   0.02135   0.24665   0.00000  Uiso   1.00
C147   C     0.99996   0.29057   0.25018   0.00000  Uiso   1.00
C148   C     0.66671   0.04277   0.24982   0.00000  Uiso   1.00
C149   C     0.85076   0.13873   0.27597   0.00000  Uiso   1.00
C150   C     0.81590   0.19461   0.22403   0.00000  Uiso   1.00
C151   C     0.80119   0.13839   0.27553   0.00000  Uiso   1.00
C152   C     0.86548   0.19494   0.22447   0.00000  Uiso   1.00
C153   C     0.97290   0.16929   0.33596   0.00000  Uiso   1.00
C154   C     0.69377   0.16404   0.16404   0.00000  Uiso   1.00
C155   C     0.95757   0.17175   0.38542   0.00000  Uiso   1.00
C156   C     0.99998   0.24593   0.25006   0.00000  Uiso   1.00
C157   C     0.70909   0.16159   0.11458   0.00000  Uiso   1.00
C158   C     0.97169   0.14818   0.45545   0.00000  Uiso   1.00
C159   C     0.69498   0.18515   0.04455   0.00000  Uiso   1.00
C160   C     0.98983   0.16176   0.41160   0.00000  Uiso   1.00
C161   C     0.67684   0.17158   0.08840   0.00000  Uiso   1.00
C162   C     0.90857   0.18027   0.40747   0.00000  Uiso   1.00
C163   C     0.75809   0.15306   0.09253   0.00000  Uiso   1.00
C164   C     0.89093   0.17076   0.45392   0.00000  Uiso   1.00
C165   C     0.77574   0.16258   0.04608   0.00000  Uiso   1.00
C166   C     0.92229   0.14919   0.47509   0.00000  Uiso   1.00
C167   C     0.85465   0.12646   0.03393   0.00000  Uiso   1.00
C168   C     0.74438   0.18415   0.02491   0.00000  Uiso   1.00
C169   C     0.84248   0.17780   0.47942   0.00000  Uiso   1.00
C170   C     0.82419   0.15553   0.02058   0.00000  Uiso   1.00
C171   C     0.79027   0.13836   0.11876   0.00000  Uiso   1.00
C172   C     0.87639   0.19497   0.38124   0.00000  Uiso   1.00
C173   C     0.95857   0.16758   0.10478   0.00000  Uiso   1.00
C174   C     0.70809   0.16576   0.39522   0.00000  Uiso   1.00
C175   C     0.86685   0.10999   0.30532   0.00000  Uiso   1.00
C176   C     0.79982   0.22334   0.19468   0.00000  Uiso   1.00
C177   C     0.81203   0.20687   0.46608   0.00000  Uiso   1.00
C178   C     0.90370   0.12659   0.01441   0.00000  Uiso   1.00
C179   C     0.76297   0.20675   0.48559   0.00000  Uiso   1.00
C180   C     0.95695   0.02122   0.25300   0.00000  Uiso   1.00
C181   C     0.70972   0.31211   0.24700   0.00000  Uiso   1.00
C182   C     0.95688   0.31198   0.25335   0.00000  Uiso   1.00
Cu183  Cu    0.71355   0.16667   0.25000   0.00000  Uiso   1.00
Cu184  Cu    0.95311   0.16666   0.25000   0.00000  Uiso   1.00
H185   H     0.92671   0.10650   0.02831   0.00000  Uiso   1.00
H186   H     0.74357   0.03737   0.24369   0.00000  Uiso   1.00
H187   H     0.77011   0.10813   0.33392   0.00000  Uiso   1.00
H188   H     0.78173   0.07883   0.28901   0.00000  Uiso   1.00
H189   H     0.89656   0.22521   0.16608   0.00000  Uiso   1.00
H190   H     0.88494   0.25450   0.21098   0.00000  Uiso   1.00
H191   H     0.73996   0.22684   0.47170   0.00000  Uiso   1.00
H192   H     0.99609   0.13576   0.47401   0.00000  Uiso   1.00
H193   H     0.67058   0.19758   0.02599   0.00000  Uiso   1.00
H194   H     0.84136   0.10263   0.05887   0.00000  Uiso   1.00
H195   H     0.82531   0.23070   0.44113   0.00000  Uiso   1.00
H196   H     0.92327   0.03713   0.25533   0.00000  Uiso   1.00
H197   H     0.74340   0.29620   0.24467   0.00000  Uiso   1.00
H198   H     0.92310   0.29596   0.25631   0.00000  Uiso   1.00
N199   N     0.78403   0.16668   0.24999   0.00000  Uiso   1.00
N200   N     0.89767   0.22578   0.19925   0.00000  Uiso   1.00
N201   N     0.88264   0.16666   0.25001   0.00000  Uiso   1.00
N202   N     0.81549   0.12656   0.14011   0.00000  Uiso   1.00
N203   N     0.85116   0.20676   0.35989   0.00000  Uiso   1.00
N204   N     0.91720   0.16366   0.11722   0.00000  Uiso   1.00
N205   N     0.74947   0.16968   0.38278   0.00000  Uiso   1.00
N206   N     0.87925   0.08693   0.32921   0.00000  Uiso   1.00
N207   N     0.78741   0.24640   0.17079   0.00000  Uiso   1.00
N208   N     0.76900   0.10755   0.30074   0.00000  Uiso   1.00
O209   O     0.70625   0.10655   0.25000   0.00000  Uiso   1.00
O210   O     0.96042   0.22678   0.25000   0.00000  Uiso   1.00
O211   O     0.96039   0.10654   0.25001   0.00000  Uiso   1.00
O212   O     0.70628   0.22679   0.25000   0.00000  Uiso   1.00
O213   O     0.68519   0.16668   0.31492   0.00000  Uiso   1.00
O214   O     0.98148   0.16666   0.18509   0.00000  Uiso   1.00
O215   O     0.93933   0.16667   0.31492   0.00000  Uiso   1.00
O216   O     0.72733   0.16667   0.18508   0.00000  Uiso   1.00
C217   C     0.00002   0.42074   0.24994   0.00000  Uiso   1.00
C218   C     0.04312   0.35468   0.24665   0.00000  Uiso   1.00
C219   C     0.33329   0.62390   0.25018   0.00000  Uiso   1.00
C220   C     0.00004   0.37610   0.24982   0.00000  Uiso   1.00
C221   C     0.18410   0.47206   0.27597   0.00000  Uiso   1.00
C222   C     0.14924   0.52794   0.22403   0.00000  Uiso   1.00
C223   C     0.13452   0.47172   0.27553   0.00000  Uiso   1.00
C224   C     0.19882   0.52828   0.22447   0.00000  Uiso   1.00
C225   C     0.30623   0.50263   0.33596   0.00000  Uiso   1.00
C226   C     0.02710   0.49737   0.16404   0.00000  Uiso   1.00
C227   C     0.29091   0.50508   0.38542   0.00000  Uiso   1.00
C228   C     0.33332   0.57926   0.25006   0.00000  Uiso   1.00
C229   C     0.04243   0.49492   0.11458   0.00000  Uiso   1.00
C230   C     0.30503   0.48152   0.45545   0.00000  Uiso   1.00
C231   C     0.02831   0.51849   0.04455   0.00000  Uiso   1.00
C232   C     0.32317   0.49509   0.41160   0.00000  Uiso   1.00
C233   C     0.01017   0.50491   0.08840   0.00000  Uiso   1.00
C234   C     0.24191   0.51360   0.40747   0.00000  Uiso   1.00
C235   C     0.09143   0.48640   0.09253   0.00000  Uiso   1.00
C236   C     0.22426   0.50409   0.45392   0.00000  Uiso   1.00
C237   C     0.10907   0.49591   0.04608   0.00000  Uiso   1.00
C238   C     0.25562   0.48252   0.47509   0.00000  Uiso   1.00
C239   C     0.18798   0.45980   0.03393   0.00000  Uiso   1.00
C240   C     0.07772   0.51748   0.02491   0.00000  Uiso   1.00
C241   C     0.17581   0.51113   0.47942   0.00000  Uiso   1.00
C242   C     0.15752   0.48887   0.02058   0.00000  Uiso   1.00
C243   C     0.12360   0.47169   0.11876   0.00000  Uiso   1.00
C244   C     0.20972   0.52830   0.38124   0.00000  Uiso   1.00
C245   C     0.29191   0.50091   0.10478   0.00000  Uiso   1.00
C246   C     0.04143   0.49909   0.39522   0.00000  Uiso   1.00
C247   C     0.20019   0.44332   0.30532   0.00000  Uiso   1.00
C248   C     0.13315   0.55668   0.19468   0.00000  Uiso   1.00
C249   C     0.14536   0.54021   0.46608   0.00000  Uiso   1.00
C250   C     0.23703   0.45992   0.01441   0.00000  Uiso   1.00
C251   C     0.09630   0.54008   0.48559   0.00000  Uiso   1.00
C252   C     0.29028   0.35455   0.25300   0.00000  Uiso   1.00
C253   C     0.04305   0.64545   0.24700   0.00000  Uiso   1.00
C254   C     0.29021   0.64532   0.25335   0.00000  Uiso   1.00
Cu255  Cu    0.04689   0.50001   0.25000   0.00000  Uiso   1.00
Cu256  Cu    0.28645   0.49999   0.25000   0.00000  Uiso   1.00
H257   H     0.26004   0.43983   0.02831   0.00000  Uiso   1.00
H258   H     0.07690   0.37070   0.24369   0.00000  Uiso   1.00
H259   H     0.10344   0.44146   0.33392   0.00000  Uiso   1.00
H260   H     0.11506   0.41216   0.28901   0.00000  Uiso   1.00
H261   H     0.22989   0.55854   0.16608   0.00000  Uiso   1.00
H262   H     0.21828   0.58784   0.21098   0.00000  Uiso   1.00
H263   H     0.07330   0.56018   0.47170   0.00000  Uiso   1.00
H264   H     0.32943   0.46909   0.47401   0.00000  Uiso   1.00
H265   H     0.00391   0.53091   0.02599   0.00000  Uiso   1.00
H266   H     0.17469   0.43596   0.05887   0.00000  Uiso   1.00
H267   H     0.15864   0.56404   0.44113   0.00000  Uiso   1.00
H268   H     0.25660   0.37046   0.25533   0.00000  Uiso   1.00
H269   H     0.07673   0.62954   0.24467   0.00000  Uiso   1.00
H270   H     0.25643   0.62930   0.25631   0.00000  Uiso   1.00
N271   N     0.11736   0.50001   0.24999   0.00000  Uiso   1.00
N272   N     0.23100   0.55911   0.19925   0.00000  Uiso   1.00
N273   N     0.21597   0.49999   0.25001   0.00000  Uiso   1.00
N274   N     0.14883   0.45989   0.14011   0.00000  Uiso   1.00
N275   N     0.18450   0.54009   0.35989   0.00000  Uiso   1.00
N276   N     0.25053   0.49699   0.11722   0.00000  Uiso   1.00
N277   N     0.08281   0.50301   0.38278   0.00000  Uiso   1.00
N278   N     0.21259   0.42026   0.32921   0.00000  Uiso   1.00
N279   N     0.12075   0.57974   0.17079   0.00000  Uiso   1.00
N280   N     0.10233   0.44089   0.30074   0.00000  Uiso   1.00
O281   O     0.03958   0.43989   0.25000   0.00000  Uiso   1.00
O282   O     0.29375   0.56011   0.25000   0.00000  Uiso   1.00
O283   O     0.29372   0.43988   0.25001   0.00000  Uiso   1.00
O284   O     0.03961   0.56012   0.25000   0.00000  Uiso   1.00
O285   O     0.01852   0.50001   0.31492   0.00000  Uiso   1.00
O286   O     0.31481   0.49999   0.18509   0.00000  Uiso   1.00
O287   O     0.27267   0.50000   0.31492   0.00000  Uiso   1.00
O288   O     0.06067   0.50000   0.18508   0.00000  Uiso   1.00
C289   C     0.33335   0.42074   0.24994   0.00000  Uiso   1.00
C290   C     0.37645   0.35468   0.24665   0.00000  Uiso   1.00
C291   C     0.66662   0.62390   0.25018   0.00000  Uiso   1.00
C292   C     0.33338   0.37610   0.24982   0.00000  Uiso   1.00
C293   C     0.51743   0.47206   0.27597   0.00000  Uiso   1.00
C294   C     0.48257   0.52794   0.22403   0.00000  Uiso   1.00
C295   C     0.46785   0.47172   0.27553   0.00000  Uiso   1.00
C296   C     0.53215   0.52828   0.22447   0.00000  Uiso   1.00
C297   C     0.63957   0.50263   0.33596   0.00000  Uiso   1.00
C298   C     0.36043   0.49737   0.16404   0.00000  Uiso   1.00
C299   C     0.62424   0.50508   0.38542   0.00000  Uiso   1.00
C300   C     0.66665   0.57926   0.25006   0.00000  Uiso   1.00
C301   C     0.37576   0.49492   0.11458   0.00000  Uiso   1.00
C302   C     0.63836   0.48152   0.45545   0.00000  Uiso   1.00
C303   C     0.36164   0.51849   0.04455   0.00000  Uiso   1.00
C304   C     0.65650   0.49509   0.41160   0.00000  Uiso   1.00
C305   C     0.34350   0.50491   0.08840   0.00000  Uiso   1.00
C306   C     0.57524   0.51360   0.40747   0.00000  Uiso   1.00
C307   C     0.42476   0.48640   0.09253   0.00000  Uiso   1.00
C308   C     0.55760   0.50409   0.45392   0.00000  Uiso   1.00
C309   C     0.44241   0.49591   0.04608   0.00000  Uiso   1.00
C310   C     0.58895   0.48252   0.47509   0.00000  Uiso   1.00
C311   C     0.52131   0.45980   0.03393   0.00000  Uiso   1.00
C312   C     0.41105   0.51748   0.02491   0.00000  Uiso   1.00
C313   C     0.50915   0.51113   0.47942   0.00000  Uiso   1.00
C314   C     0.49086   0.48887   0.02058   0.00000  Uiso   1.00
C315   C     0.45694   0.47169   0.11876   0.00000  Uiso   1.00
C316   C     0.54306   0.52830   0.38124   0.00000  Uiso   1.00
C317   C     0.62524   0.50091   0.10478   0.00000  Uiso   1.00
C318   C     0.37476   0.49909   0.39522   0.00000  Uiso   1.00
C319   C     0.53352   0.44332   0.30532   0.00000  Uiso   1.00
C320   C     0.46648   0.55668   0.19468   0.00000  Uiso   1.00
C321   C     0.47869   0.54021   0.46608   0.00000  Uiso   1.00
C322   C     0.57037   0.45992   0.01441   0.00000  Uiso   1.00
C323   C     0.42964   0.54008   0.48559   0.00000  Uiso   1.00
C324   C     0.62362   0.35455   0.25300   0.00000  Uiso   1.00
C325   C     0.37638   0.64545   0.24700   0.00000  Uiso   1.00
C326   C     0.62355   0.64532   0.25335   0.00000  Uiso   1.00
Cu327  Cu    0.38022   0.50001   0.25000   0.00000  Uiso   1.00
Cu328  Cu    0.61978   0.49999   0.25000   0.00000  Uiso   1.00
H329   H     0.59337   0.43983   0.02831   0.00000  Uiso   1.00
H330   H     0.41023   0.37070   0.24369   0.00000  Uiso   1.00
H331   H     0.43678   0.44146   0.33392   0.00000  Uiso   1.00
H332   H     0.44840   0.41216   0.28901   0.00000  Uiso   1.00
H333   H     0.56322   0.55854   0.16608   0.00000  Uiso   1.00
H334   H     0.55161   0.58784   0.21098   0.00000  Uiso   1.00
H335   H     0.40663   0.56018   0.47170   0.00000  Uiso   1.00
H336   H     0.66276   0.46909   0.47401   0.00000  Uiso   1.00
H337   H     0.33724   0.53091   0.02599   0.00000  Uiso   1.00
H338   H     0.50803   0.43596   0.05887   0.00000  Uiso   1.00
H339   H     0.49198   0.56404   0.44113   0.00000  Uiso   1.00
H340   H     0.58993   0.37046   0.25533   0.00000  Uiso   1.00
H341   H     0.41007   0.62954   0.24467   0.00000  Uiso   1.00
H342   H     0.58977   0.62930   0.25631   0.00000  Uiso   1.00
N343   N     0.45069   0.50001   0.24999   0.00000  Uiso   1.00
N344   N     0.56434   0.55911   0.19925   0.00000  Uiso   1.00
N345   N     0.54931   0.49999   0.25001   0.00000  Uiso   1.00
N346   N     0.48216   0.45989   0.14011   0.00000  Uiso   1.00
N347   N     0.51783   0.54009   0.35989   0.00000  Uiso   1.00
N348   N     0.58386   0.49699   0.11722   0.00000  Uiso   1.00
N349   N     0.41614   0.50301   0.38278   0.00000  Uiso   1.00
N350   N     0.54592   0.42026   0.32921   0.00000  Uiso   1.00
N351   N     0.45408   0.57974   0.17079   0.00000  Uiso   1.00
N352   N     0.43566   0.44089   0.30074   0.00000  Uiso   1.00
O353   O     0.37291   0.43989   0.25000   0.00000  Uiso   1.00
O354   O     0.62709   0.56011   0.25000   0.00000  Uiso   1.00
O355   O     0.62706   0.43988   0.25001   0.00000  Uiso   1.00
O356   O     0.37294   0.56012   0.25000   0.00000  Uiso   1.00
O357   O     0.35186   0.50001   0.31492   0.00000  Uiso   1.00
O358   O     0.64814   0.49999   0.18509   0.00000  Uiso   1.00
O359   O     0.60600   0.50000   0.31492   0.00000  Uiso   1.00
O360   O     0.39400   0.50000   0.18508   0.00000  Uiso   1.00
C361   C     0.66668   0.42074   0.24994   0.00000  Uiso   1.00
C362   C     0.70979   0.35468   0.24665   0.00000  Uiso   1.00
C363   C     0.99996   0.62390   0.25018   0.00000  Uiso   1.00
C364   C     0.66671   0.37610   0.24982   0.00000  Uiso   1.00
C365   C     0.85076   0.47206   0.27597   0.00000  Uiso   1.00
C366   C     0.81590   0.52794   0.22403   0.00000  Uiso   1.00
C367   C     0.80119   0.47172   0.27553   0.00000  Uiso   1.00
C368   C     0.86548   0.52828   0.22447   0.00000  Uiso   1.00
C369   C     0.97290   0.50263   0.33596   0.00000  Uiso   1.00
C370   C     0.69377   0.49737   0.16404   0.00000  Uiso   1.00
C371   C     0.95757   0.50508   0.38542   0.00000  Uiso   1.00
C372   C     0.99998   0.57926   0.25006   0.00000  Uiso   1.00
C373   C     0.70909   0.49492   0.11458   0.00000  Uiso   1.00
C374   C     0.97169   0.48152   0.45545   0.00000  Uiso   1.00
C375   C     0.69498   0.51849   0.04455   0.00000  Uiso   1.00
C376   C     0.98983   0.49509   0.41160   0.00000  Uiso   1.00
C377   C     0.67684   0.50491   0.08840   0.00000  Uiso   1.00
C378   C     0.90857   0.51360   0.40747   0.00000  Uiso   1.00
C379   C     0.75809   0.48640   0.09253   0.00000  Uiso   1.00
C380   C     0.89093   0.50409   0.45392   0.00000  Uiso   1.00
C381   C     0.77574   0.49591   0.04608   0.00000  Uiso   1.00
C382   C     0.92229   0.48252   0.47509   0.00000  Uiso   1.00
C383   C     0.85465   0.45980   0.03393   0.00000  Uiso   1.00
C384   C     0.74438   0.51748   0.02491   0.00000  Uiso   1.00
C385   C     0.84248   0.51113   0.47942   0.00000  Uiso   1.00
C386   C     0.82419   0.48887   0.02058   0.00000  Uiso   1.00
C387   C     0.79027   0.47169   0.11876   0.00000  Uiso   1.00
C388   C     0.87639   0.52830   0.38124   0.00000  Uiso   1.00
C389   C     0.95857   0.50091   0.10478   0.00000  Uiso   1.00
C390   C     0.70809   0.49909   0.39522   0.00000  Uiso   1.00
C391   C     0.86685   0.44332   0.30532   0.00000  Uiso   1.00
C392   C     0.79982   0.55668   0.19468   0.00000  Uiso   1.00
C393   C     0.81203   0.54021   0.46608   0.00000  Uiso   1.00
C394   C     0.90370   0.45992   0.01441   0.00000  Uiso   1.00
C395   C     0.76297   0.54008   0.48559   0.00000  Uiso   1.00
C396   C     0.95695   0.35455   0.25300   0.00000  Uiso   1.00
C397   C     0.70972   0.64545   0.24700   0.00000  Uiso   1.00
C398   C     0.95688   0.64532   0.25335   0.00000  Uiso   1.00
Cu399  Cu    0.71355   0.50001   0.25000   0.00000  Uiso   1.00
Cu400  Cu    0.95311   0.49999   0.25000   0.00000  Uiso   1.00
H401   H     0.92671   0.43983   0.02831   0.00000  Uiso   1.00
H402   H     0.74357   0.37070   0.24369   0.00000  Uiso   1.00
H403   H     0.77011   0.44146   0.33392   0.00000  Uiso   1.00
H404   H     0.78173   0.41216   0.28901   0.00000  Uiso   1.00
H405   H     0.89656   0.55854   0.16608   0.00000  Uiso   1.00
H406   H     0.88494   0.58784   0.21098   0.00000  Uiso   1.00
H407   H     0.73996   0.56018   0.47170   0.00000  Uiso   1.00
H408   H     0.99609   0.46909   0.47401   0.00000  Uiso   1.00
H409   H     0.67058   0.53091   0.02599   0.00000  Uiso   1.00
H410   H     0.84136   0.43596   0.05887   0.00000  Uiso   1.00
H411   H     0.82531   0.56404   0.44113   0.00000  Uiso   1.00
H412   H     0.92327   0.37046   0.25533   0.00000  Uiso   1.00
H413   H     0.74340   0.62954   0.24467   0.00000  Uiso   1.00
H414   H     0.92310   0.62930   0.25631   0.00000  Uiso   1.00
N415   N     0.78403   0.50001   0.24999   0.00000  Uiso   1.00
N416   N     0.89767   0.55911   0.19925   0.00000  Uiso   1.00
N417   N     0.88264   0.49999   0.25001   0.00000  Uiso   1.00
N418   N     0.81549   0.45989   0.14011   0.00000  Uiso   1.00
N419   N     0.85116   0.54009   0.35989   0.00000  Uiso   1.00
N420   N     0.91720   0.49699   0.11722   0.00000  Uiso   1.00
N421   N     0.74947   0.50301   0.38278   0.00000  Uiso   1.00
N422   N     0.87925   0.42026   0.32921   0.00000  Uiso   1.00
N423   N     0.78741   0.57974   0.17079   0.00000  Uiso   1.00
N424   N     0.76900   0.44089   0.30074   0.00000  Uiso   1.00
O425   O     0.70625   0.43989   0.25000   0.00000  Uiso   1.00
O426   O     0.96042   0.56011   0.25000   0.00000  Uiso   1.00
O427   O     0.96039   0.43988   0.25001   0.00000  Uiso   1.00
O428   O     0.70628   0.56012   0.25000   0.00000  Uiso   1.00
O429   O     0.68519   0.50001   0.31492   0.00000  Uiso   1.00
O430   O     0.98148   0.49999   0.18509   0.00000  Uiso   1.00
O431   O     0.93933   0.50000   0.31492   0.00000  Uiso   1.00
O432   O     0.72733   0.50000   0.18508   0.00000  Uiso   1.00
C433   C     0.00002   0.75407   0.24994   0.00000  Uiso   1.00
C434   C     0.04312   0.68802   0.24665   0.00000  Uiso   1.00
C435   C     0.33329   0.95723   0.25018   0.00000  Uiso   1.00
C436   C     0.00004   0.70943   0.24982   0.00000  Uiso   1.00
C437   C     0.18410   0.80540   0.27597   0.00000  Uiso   1.00
C438   C     0.14924   0.86127   0.22403   0.00000  Uiso   1.00
C439   C     0.13452   0.80506   0.27553   0.00000  Uiso   1.00
C440   C     0.19882   0.86161   0.22447   0.00000  Uiso   1.00
C441   C     0.30623   0.83596   0.33596   0.00000  Uiso   1.00
C442   C     0.02710   0.83071   0.16404   0.00000  Uiso   1.00
C443   C     0.29091   0.83841   0.38542   0.00000  Uiso   1.00
C444   C     0.33332   0.91260   0.25006   0.00000  Uiso   1.00
C445   C     0.04243   0.82825   0.11458   0.00000  Uiso   1.00
C446   C     0.30503   0.81485   0.45545   0.00000  Uiso   1.00
C447   C     0.02831   0.85182   0.04455   0.00000  Uiso   1.00
C448   C     0.32317   0.82843   0.41160   0.00000  Uiso   1.00
C449   C     0.01017   0.83824   0.08840   0.00000  Uiso   1.00
C450   C     0.24191   0.84693   0.40747   0.00000  Uiso   1.00
C451   C     0.09143   0.81973   0.09253   0.00000  Uiso   1.00
C452   C     0.22426   0.83742   0.45392   0.00000  Uiso   1.00
C453   C     0.10907   0.82924   0.04608   0.00000  Uiso   1.00
C454   C     0.25562   0.81585   0.47509   0.00000  Uiso   1.00
C455   C     0.18798   0.79313   0.03393   0.00000  Uiso   1.00
C456   C     0.07772   0.85082   0.02491   0.00000  Uiso   1.00
C457   C     0.17581   0.84447   0.47942   0.00000  Uiso   1.00
C458   C     0.15752   0.82220   0.02058   0.00000  Uiso   1.00
C459   C     0.12360   0.80502   0.11876   0.00000  Uiso   1.00
C460   C     0.20972   0.86163   0.38124   0.00000  Uiso   1.00
C461   C     0.29191   0.83424   0.10478   0.00000  Uiso   1.00
C462   C     0.04143   0.83242   0.39522   0.00000  Uiso   1.00
C463   C     0.20019   0.77666   0.30532   0.00000  Uiso   1.00
C464   C     0.13315   0.89001   0.19468   0.00000  Uiso   1.00
C465   C     0.14536   0.87354   0.46608   0.00000  Uiso   1.00
C466   C     0.23703   0.79325   0.01441   0.00000  Uiso   1.00
C467   C     0.09630   0.87342   0.48559   0.00000  Uiso   1.00
C468   C     0.29028   0.68789   0.25300   0.00000  Uiso   1.00
C469   C     0.04305   0.97878   0.24700   0.00000  Uiso   1.00
C470   C     0.29021   0.97865   0.25335   0.00000  Uiso   1.00
Cu471  Cu    0.04689   0.83334   0.25000   0.00000  Uiso   1.00
Cu472  Cu    0.28645   0.83333   0.25000   0.00000  Uiso   1.00
H473   H     0.26004   0.77316   0.02831   0.00000  Uiso   1.00
H474   H     0.07690   0.70404   0.24369   0.00000  Uiso   1.00
H475   H     0.10344   0.77479   0.33392   0.00000  Uiso   1.00
H476   H     0.11506   0.74550   0.28901   0.00000  Uiso   1.00
H477   H     0.22989   0.89187   0.16608   0.00000  Uiso   1.00
H478   H     0.21828   0.92117   0.21098   0.00000  Uiso   1.00
H479   H     0.07330   0.89351   0.47170   0.00000  Uiso   1.00
H480   H     0.32943   0.80242   0.47401   0.00000  Uiso   1.00
H481   H     0.00391   0.86425   0.02599   0.00000  Uiso   1.00
H482   H     0.17469   0.76930   0.05887   0.00000  Uiso   1.00
H483   H     0.15864   0.89737   0.44113   0.00000  Uiso   1.00
H484   H     0.25660   0.70380   0.25533   0.00000  Uiso   1.00
H485   H     0.07673   0.96287   0.24467   0.00000  Uiso   1.00
H486   H     0.25643   0.96263   0.25631   0.00000  Uiso   1.00
N487   N     0.11736   0.83334   0.24999   0.00000  Uiso   1.00
N488   N     0.23100   0.89245   0.19925   0.00000  Uiso   1.00
N489   N     0.21597   0.83332   0.25001   0.00000  Uiso   1.00
N490   N     0.14883   0.79323   0.14011   0.00000  Uiso   1.00
N491   N     0.18450   0.87342   0.35989   0.00000  Uiso   1.00
N492   N     0.25053   0.83032   0.11722   0.00000  Uiso   1.00
N493   N     0.08281   0.83634   0.38278   0.00000  Uiso   1.00
N494   N     0.21259   0.75360   0.32921   0.00000  Uiso   1.00
N495   N     0.12075   0.91307   0.17079   0.00000  Uiso   1.00
N496   N     0.10233   0.77422   0.30074   0.00000  Uiso   1.00
O497   O     0.03958   0.77322   0.25000   0.00000  Uiso   1.00
O498   O     0.29375   0.89345   0.25000   0.00000  Uiso   1.00
O499   O     0.29372   0.77321   0.25001   0.00000  Uiso   1.00
O500   O     0.03961   0.89346   0.25000   0.00000  Uiso   1.00
O501   O     0.01852   0.83334   0.31492   0.00000  Uiso   1.00
O502   O     0.31481   0.83332   0.18509   0.00000  Uiso   1.00
O503   O     0.27267   0.83333   0.31492   0.00000  Uiso   1.00
O504   O     0.06067   0.83333   0.18508   0.00000  Uiso   1.00
C505   C     0.33335   0.75407   0.24994   0.00000  Uiso   1.00
C506   C     0.37645   0.68802   0.24665   0.00000  Uiso   1.00
C507   C     0.66662   0.95723   0.25018   0.00000  Uiso   1.00
C508   C     0.33338   0.70943   0.24982   0.00000  Uiso   1.00
C509   C     0.51743   0.80540   0.27597   0.00000  Uiso   1.00
C510   C     0.48257   0.86127   0.22403   0.00000  Uiso   1.00
C511   C     0.46785   0.80506   0.27553   0.00000  Uiso   1.00
C512   C     0.53215   0.86161   0.22447   0.00000  Uiso   1.00
C513   C     0.63957   0.83596   0.33596   0.00000  Uiso   1.00
C514   C     0.36043   0.83071   0.16404   0.00000  Uiso   1.00
C515   C     0.62424   0.83841   0.38542   0.00000  Uiso   1.00
C516   C     0.66665   0.91260   0.25006   0.00000  Uiso   1.00
C517   C     0.37576   0.82825   0.11458   0.00000  Uiso   1.00
C518   C     0.63836   0.81485   0.45545   0.00000  Uiso   1.00
C519   C     0.36164   0.85182   0.04455   0.00000  Uiso   1.00
C520   C     0.65650   0.82843   0.41160   0.00000  Uiso   1.00
C521   C     0.34350   0.83824   0.08840   0.00000  Uiso   1.00
C522   C     0.57524   0.84693   0.40747   0.00000  Uiso   1.00
C523   C     0.42476   0.81973   0.09253   0.00000  Uiso   1.00
C524   C     0.55760   0.83742   0.45392   0.00000  Uiso   1.00
C525   C     0.44241   0.82924   0.04608   0.00000  Uiso   1.00
C526   C     0.58895   0.81585   0.47509   0.00000  Uiso   1.00
C527   C     0.52131   0.79313   0.03393   0.00000  Uiso   1.00
C528   C     0.41105   0.85082   0.02491   0.00000  Uiso   1.00
C529   C     0.50915   0.84447   0.47942   0.00000  Uiso   1.00
C530   C     0.49086   0.82220   0.02058   0.00000  Uiso   1.00
C531   C     0.45694   0.80502   0.11876   0.00000  Uiso   1.00
C532   C     0.54306   0.86163   0.38124   0.00000  Uiso   1.00
C533   C     0.62524   0.83424   0.10478   0.00000  Uiso   1.00
C534   C     0.37476   0.83242   0.39522   0.00000  Uiso   1.00
C535   C     0.53352   0.77666   0.30532   0.00000  Uiso   1.00
C536   C     0.46648   0.89001   0.19468   0.00000  Uiso   1.00
C537   C     0.47869   0.87354   0.46608   0.00000  Uiso   1.00
C538   C     0.57037   0.79325   0.01441   0.00000  Uiso   1.00
C539   C     0.42964   0.87342   0.48559   0.00000  Uiso   1.00
C540   C     0.62362   0.68789   0.25300   0.00000  Uiso   1.00
C541   C     0.37638   0.97878   0.24700   0.00000  Uiso   1.00
C542   C     0.62355   0.97865   0.25335   0.00000  Uiso   1.00
Cu543  Cu    0.38022   0.83334   0.25000   0.00000  Uiso   1.00
Cu544  Cu    0.61978   0.83333   0.25000   0.00000  Uiso   1.00
H545   H     0.59337   0.77316   0.02831   0.00000  Uiso   1.00
H546   H     0.41023   0.70404   0.24369   0.00000  Uiso   1.00
H547   H     0.43678   0.77479   0.33392   0.00000  Uiso   1.00
H548   H     0.44840   0.74550   0.28901   0.00000  Uiso   1.00
H549   H     0.56322   0.89187   0.16608   0.00000  Uiso   1.00
H550   H     0.55161   0.92117   0.21098   0.00000  Uiso   1.00
H551   H     0.40663   0.89351   0.47170   0.00000  Uiso   1.00
H552   H     0.66276   0.80242   0.47401   0.00000  Uiso   1.00
H553   H     0.33724   0.86425   0.02599   0.00000  Uiso   1.00
H554   H     0.50803   0.76930   0.05887   0.00000  Uiso   1.00
H555   H     0.49198   0.89737   0.44113   0.00000  Uiso   1.00
H556   H     0.58993   0.70380   0.25533   0.00000  Uiso   1.00
H557   H     0.41007   0.96287   0.24467   0.00000  Uiso   1.00
H558   H     0.58977   0.96263   0.25631   0.00000  Uiso   1.00
N559   N     0.45069   0.83334   0.24999   0.00000  Uiso   1.00
N560   N     0.56434   0.89245   0.19925   0.00000  Uiso   1.00
N561   N     0.54931   0.83332   0.25001   0.00000  Uiso   1.00
N562   N     0.48216   0.79323   0.14011   0.00000  Uiso   1.00
N563   N     0.51783   0.87342   0.35989   0.00000  Uiso   1.00
N564   N     0.58386   0.83032   0.11722   0.00000  Uiso   1.00
N565   N     0.41614   0.83634   0.38278   0.00000  Uiso   1.00
N566   N     0.54592   0.75360   0.32921   0.00000  Uiso   1.00
N567   N     0.45408   0.91307   0.17079   0.00000  Uiso   1.00
N568   N     0.43566   0.77422   0.30074   0.00000  Uiso   1.00
O569   O     0.37291   0.77322   0.25000   0.00000  Uiso   1.00
O570   O     0.62709   0.89345   0.25000   0.00000  Uiso   1.00
O571   O     0.62706   0.77321   0.25001   0.00000  Uiso   1.00
O572   O     0.37294   0.89346   0.25000   0.00000  Uiso   1.00
O573   O     0.35186   0.83334   0.31492   0.00000  Uiso   1.00
O574   O     0.64814   0.83332   0.18509   0.00000  Uiso   1.00
O575   O     0.60600   0.83333   0.31492   0.00000  Uiso   1.00
O576   O     0.39400   0.83333   0.18508   0.00000  Uiso   1.00
C577   C     0.66668   0.75407   0.24994   0.00000  Uiso   1.00
C578   C     0.70979   0.68802   0.24665   0.00000  Uiso   1.00
C579   C     0.99996   0.95723   0.25018   0.00000  Uiso   1.00
C580   C     0.66671   0.70943   0.24982   0.00000  Uiso   1.00
C581   C     0.85076   0.80540   0.27597   0.00000  Uiso   1.00
C582   C     0.81590   0.86127   0.22403   0.00000  Uiso   1.00
C583   C     0.80119   0.80506   0.27553   0.00000  Uiso   1.00
C584   C     0.86548   0.86161   0.22447   0.00000  Uiso   1.00
C585   C     0.97290   0.83596   0.33596   0.00000  Uiso   1.00
C586   C     0.69377   0.83071   0.16404   0.00000  Uiso   1.00
C587   C     0.95757   0.83841   0.38542   0.00000  Uiso   1.00
C588   C     0.99998   0.91260   0.25006   0.00000  Uiso   1.00
C589   C     0.70909   0.82825   0.11458   0.00000  Uiso   1.00
C590   C     0.97169   0.81485   0.45545   0.00000  Uiso   1.00
C591   C     0.69498   0.85182   0.04455   0.00000  Uiso   1.00
C592   C     0.98983   0.82843   0.41160   0.00000  Uiso   1.00
C593   C     0.67684   0.83824   0.08840   0.00000  Uiso   1.00
C594   C     0.90857   0.84693   0.40747   0.00000  Uiso   1.00
C595   C     0.75809   0.81973   0.09253   0.00000  Uiso   1.00
C596   C     0.89093   0.83742   0.45392   0.00000  Uiso   1.00
C597   C     0.77574   0.82924   0.04608   0.00000  Uiso   1.00
C598   C     0.92229   0.81585   0.47509   0.00000  Uiso   1.00
C599   C     0.85465   0.79313   0.03393   0.00000  Uiso   1.00
C600   C     0.74438   0.85082   0.02491   0.00000  Uiso   1.00
C601   C     0.84248   0.84447   0.47942   0.00000  Uiso   1.00
C602   C     0.82419   0.82220   0.02058   0.00000  Uiso   1.00
C603   C     0.79027   0.80502   0.11876   0.00000  Uiso   1.00
C604   C     0.87639   0.86163   0.38124   0.00000  Uiso   1.00
C605   C     0.95857   0.83424   0.10478   0.00000  Uiso   1.00
C606   C     0.70809   0.83242   0.39522   0.00000  Uiso   1.00
C607   C     0.86685   0.77666   0.30532   0.00000  Uiso   1.00
C608   C     0.79982   0.89001   0.19468   0.00000  Uiso   1.00
C609   C     0.81203   0.87354   0.46608   0.00000  Uiso   1.00
C610   C     0.90370   0.79325   0.01441   0.00000  Uiso   1.00
C611   C     0.76297   0.87342   0.48559   0.00000  Uiso   1.00
C612   C     0.95695   0.68789   0.25300   0.00000  Uiso   1.00
C613   C     0.70972   0.97878   0.24700   0.00000  Uiso   1.00
C614   C     0.95688   0.97865   0.25335   0.00000  Uiso   1.00
Cu615  Cu    0.71355   0.83334   0.25000   0.00000  Uiso   1.00
Cu616  Cu    0.95311   0.83333   0.25000   0.00000  Uiso   1.00
H617   H     0.92671   0.77316   0.02831   0.00000  Uiso   1.00
H618   H     0.74357   0.70404   0.24369   0.00000  Uiso   1.00
H619   H     0.77011   0.77479   0.33392   0.00000  Uiso   1.00
H620   H     0.78173   0.74550   0.28901   0.00000  Uiso   1.00
H621   H     0.89656   0.89187   0.16608   0.00000  Uiso   1.00
H622   H     0.88494   0.92117   0.21098   0.00000  Uiso   1.00
H623   H     0.73996   0.89351   0.47170   0.00000  Uiso   1.00
H624   H     0.99609   0.80242   0.47401   0.00000  Uiso   1.00
H625   H     0.67058   0.86425   0.02599   0.00000  Uiso   1.00
H626   H     0.84136   0.76930   0.05887   0.00000  Uiso   1.00
H627   H     0.82531   0.89737   0.44113   0.00000  Uiso   1.00
H628   H     0.92327   0.70380   0.25533   0.00000  Uiso   1.00
H629   H     0.74340   0.96287   0.24467   0.00000  Uiso   1.00
H630   H     0.92310   0.96263   0.25631   0.00000  Uiso   1.00
N631   N     0.78403   0.83334   0.24999   0.00000  Uiso   1.00
N632   N     0.89767   0.89245   0.19925   0.00000  Uiso   1.00
N633   N     0.88264   0.83332   0.25001   0.00000  Uiso   1.00
N634   N     0.81549   0.79323   0.14011   0.00000  Uiso   1.00
N635   N     0.85116   0.87342   0.35989   0.00000  Uiso   1.00
N636   N     0.91720   0.83032   0.11722   0.00000  Uiso   1.00
N637   N     0.74947   0.83634   0.38278   0.00000  Uiso   1.00
N638   N     0.87925   0.75360   0.32921   0.00000  Uiso   1.00
N639   N     0.78741   0.91307   0.17079   0.00000  Uiso   1.00
N640   N     0.76900   0.77422   0.30074   0.00000  Uiso   1.00
O641   O     0.70625   0.77322   0.25000   0.00000  Uiso   1.00
O642   O     0.96042   0.89345   0.25000   0.00000  Uiso   1.00
O643   O     0.96039   0.77321   0.25001   0.00000  Uiso   1.00
O644   O     0.70628   0.89346   0.25000   0.00000  Uiso   1.00
O645   O     0.68519   0.83334   0.31492   0.00000  Uiso   1.00
O646   O     0.98148   0.83332   0.18509   0.00000  Uiso   1.00
O647   O     0.93933   0.83333   0.31492   0.00000  Uiso   1.00
O648   O     0.72733   0.83333   0.18508   0.00000  Uiso   1.00
C649   C     0.00002   0.08740   0.74994   0.00000  Uiso   1.00
C650   C     0.04312   0.02135   0.74665   0.00000  Uiso   1.00
C651   C     0.33329   0.29057   0.75018   0.00000  Uiso   1.00
C652   C     0.00004   0.04277   0.74982   0.00000  Uiso   1.00
C653   C     0.18410   0.13873   0.77597   0.00000  Uiso   1.00
C654   C     0.14924   0.19461   0.72403   0.00000  Uiso   1.00
C655   C     0.13452   0.13839   0.77553   0.00000  Uiso   1.00
C656   C     0.19882   0.19494   0.72447   0.00000  Uiso   1.00
C657   C     0.30623   0.16929   0.83596   0.00000  Uiso   1.00
C658   C     0.02710   0.16404   0.66404   0.00000  Uiso   1.00
C659   C     0.29091   0.17175   0.88542   0.00000  Uiso   1.00
C660   C     0.33332   0.24593   0.75006   0.00000  Uiso   1.00
C661   C     0.04243   0.16159   0.61458   0.00000  Uiso   1.00
C662   C     0.30503   0.14818   0.95545   0.00000  Uiso   1.00
C663   C     0.02831   0.18515   0.54455   0.00000  Uiso   1.00
C664   C     0.32317   0.16176   0.91160   0.00000  Uiso   1.00
C665   C     0.01017   0.17158   0.58840   0.00000  Uiso   1.00
C666   C     0.24191   0.18027   0.90747   0.00000  Uiso   1.00
C667   C     0.09143   0.15306   0.59253   0.00000  Uiso   1.00
C668   C     0.22426   0.17076   0.95392   0.00000  Uiso   1.00
C669   C     0.10907   0.16258   0.54608   0.00000  Uiso   1.00
C670   C     0.25562   0.14919   0.97509   0.00000  Uiso   1.00
C671   C     0.18798   0.12646   0.53393   0.00000  Uiso   1.00
C672   C     0.07772   0.18415   0.52491   0.00000  Uiso   1.00
C673   C     0.17581   0.17780   0.97942   0.00000  Uiso   1.00
C674   C     0.15752   0.15553   0.52058   0.00000  Uiso   1.00
C675   C     0.12360   0.13836   0.61876   0.00000  Uiso   1.00
C676   C     0.20972   0.19497   0.88124   0.00000  Uiso   1.00
C677   C     0.29191   0.16758   0.60478   0.00000  Uiso   1.00
C678   C     0.04143   0.16576   0.89522   0.00000  Uiso   1.00
C679   C     0.20019   0.10999   0.80532   0.00000  Uiso   1.00
C680   C     0.13315   0.22334   0.69468   0.00000  Uiso   1.00
C681   C     0.14536   0.20687   0.96608   0.00000  Uiso   1.00
C682   C     0.23703   0.12659   0.51441   0.00000  Uiso   1.00
C683   C     0.09630   0.20675   0.98559   0.00000  Uiso   1.00
C684   C     0.29028   0.02122   0.75300   0.00000  Uiso   1.00
C685   C     0.04305   0.31211   0.74700   0.00000  Uiso   1.00
C686   C     0.29021   0.31198   0.75335   0.00000  Uiso   1.00
Cu687  Cu    0.04689   0.16667   0.75000   0.00000  Uiso   1.00
Cu688  Cu    0.28645   0.16666   0.75000   0.00000  Uiso   1.00
H689   H     0.26004   0.10650   0.52831   0.00000  Uiso   1.00
H690   H     0.07690   0.03737   0.74369   0.00000  Uiso   1.00
H691   H     0.10344   0.10813   0.83392   0.00000  Uiso   1.00
H692   H     0.11506   0.07883   0.78901   0.00000  Uiso   1.00
H693   H     0.22989   0.22521   0.66608   0.00000  Uiso   1.00
H694   H     0.21828   0.25450   0.71098   0.00000  Uiso   1.00
H695   H     0.07330   0.22684   0.97170   0.00000  Uiso   1.00
H696   H     0.32943   0.13576   0.97401   0.00000  Uiso   1.00
H697   H     0.00391   0.19758   0.52599   0.00000  Uiso   1.00
H698   H     0.17469   0.10263   0.55887   0.00000  Uiso   1.00
H699   H     0.15864   0.23070   0.94113   0.00000  Uiso   1.00
H700   H     0.25660   0.03713   0.75533   0.00000  Uiso   1.00
H701   H     0.07673   0.29620   0.74467   0.00000  Uiso   1.00
H702   H     0.25643   0.29596   0.75631   0.00000  Uiso   1.00
N703   N     0.11736   0.16668   0.74999   0.00000  Uiso   1.00
N704   N     0.23100   0.22578   0.69925   0.00000  Uiso   1.00
N705   N     0.21597   0.16666   0.75001   0.00000  Uiso   1.00
N706   N     0.14883   0.12656   0.64011   0.00000  Uiso   1.00
N707   N     0.18450   0.20676   0.85989   0.00000  Uiso   1.00
N708   N     0.25053   0.16366   0.61722   0.00000  Uiso   1.00
N709   N     0.08281   0.16968   0.88278   0.00000  Uiso   1.00
N710   N     0.21259   0.08693   0.82921   0.00000  Uiso   1.00
N711   N     0.12075   0.24640   0.67079   0.00000  Uiso   1.00
N712   N     0.10233   0.10755   0.80074   0.00000  Uiso   1.00
O713   O     0.03958   0.10655   0.75000   0.00000  Uiso   1.00
O714   O     0.29375   0.22678   0.75000   0.00000  Uiso   1.00
O715   O     0.29372   0.10654   0.75001   0.00000  Uiso   1.00
O716   O     0.03961   0.22679   0.75000   0.00000  Uiso   1.00
O717   O     0.01852   0.16668   0.81492   0.00000  Uiso   1.00
O718   O     0.31481   0.16666   0.68509   0.00000  Uiso   1.00
O719   O     0.27267   0.16667   0.81492   0.00000  Uiso   1.00
O720   O     0.06067   0.16667   0.68508   0.00000  Uiso   1.00
C721   C     0.33335   0.08740   0.74994   0.00000  Uiso   1.00
C722   C     0.37645   0.02135   0.74665   0.00000  Uiso   1.00
C723   C     0.66662   0.29057   0.75018   0.00000  Uiso   1.00
C724   C     0.33338   0.04277   0.74982   0.00000  Uiso   1.00
C725   C     0.51743   0.13873   0.77597   0.00000  Uiso   1.00
C726   C     0.48257   0.19461   0.72403   0.00000  Uiso   1.00
C727   C     0.46785   0.13839   0.77553   0.00000  Uiso   1.00
C728   C     0.53215   0.19494   0.72447   0.00000  Uiso   1.00
C729   C     0.63957   0.16929   0.83596   0.00000  Uiso   1.00
C730   C     0.36043   0.16404   0.66404   0.00000  Uiso   1.00
C731   C     0.62424   0.17175   0.88542   0.00000  Uiso   1.00
C732   C     0.66665   0.24593   0.75006   0.00000  Uiso   1.00
C733   C     0.37576   0.16159   0.61458   0.00000  Uiso   1.00
C734   C     0.63836   0.14818   0.95545   0.00000  Uiso   1.00
C735   C     0.36164   0.18515   0.54455   0.00000  Uiso   1.00
C736   C     0.65650   0.16176   0.91160   0.00000  Uiso   1.00
C737   C     0.34350   0.17158   0.58840   0.00000  Uiso   1.00
C738   C     0.57524   0.18027   0.90747   0.00000  Uiso   1.00
C739   C     0.42476   0.15306   0.59253   0.00000  Uiso   1.00
C740   C     0.55760   0.17076   0.95392   0.00000  Uiso   1.00
C741   C     0.44241   0.16258   0.54608   0.00000  Uiso   1.00
C742   C     0.58895   0.14919   0.97509   0.00000  Uiso   1.00
C743   C     0.52131   0.12646   0.53393   0.00000  Uiso   1.00
C744   C     0.41105   0.18415   0.52491   0.00000  Uiso   1.00
C745   C     0.50915   0.17780   0.97942   0.00000  Uiso   1.00
C746   C     0.49086   0.15553   0.52058   0.00000  Uiso   1.00
C747   C     0.45694   0.13836   0.61876   0.00000  Uiso   1.00
C748   C     0.54306   0.19497   0.88124   0.00000  Uiso   1.00
C749   C     0.62524   0.16758   0.60478   0.00000  Uiso   1.00
C750   C     0.37476   0.16576   0.89522   0.00000  Uiso   1.00
C751   C     0.53352   0.10999   0.80532   0.00000  Uiso   1.00
C752   C     0.46648   0.22334   0.69468   0.00000  Uiso   1.00
C753   C     0.47869   0.20687   0.96608   0.00000  Uiso   1.00
C754   C     0.57037   0.12659   0.51441   0.00000  Uiso   1.00
C755   C     0.42964   0.20675   0.98559   0.00000  Uiso   1.00
C756   C     0.62362   0.02122   0.75300   0.00000  Uiso   1.00
C757   C     0.37638   0.31211   0.74700   0.00000  Uiso   1.00
C758   C     0.62355   0.31198   0.75335   0.00000  Uiso   1.00
Cu759  Cu    0.38022   0.16667   0.75000   0.00000  Uiso   1.00
Cu760  Cu    0.61978   0.16666   0.75000   0.00000  Uiso   1.00
H761   H     0.59337   0.10650   0.52831   0.00000  Uiso   1.00
H762   H     0.41023   0.03737   0.74369   0.00000  Uiso   1.00
H763   H     0.43678   0.10813   0.83392   0.00000  Uiso   1.00
H764   H     0.44840   0.07883   0.78901   0.00000  Uiso   1.00
H765   H     0.56322   0.22521   0.66608   0.00000  Uiso   1.00
H766   H     0.55161   0.25450   0.71098   0.00000  Uiso   1.00
H767   H     0.40663   0.22684   0.97170   0.00000  Uiso   1.00
H768   H     0.66276   0.13576   0.97401   0.00000  Uiso   1.00
H769   H     0.33724   0.19758   0.52599   0.00000  Uiso   1.00
H770   H     0.50803   0.10263   0.55887   0.00000  Uiso   1.00
H771   H     0.49198   0.23070   0.94113   0.00000  Uiso   1.00
H772   H     0.58993   0.03713   0.75533   0.00000  Uiso   1.00
H773   H     0.41007   0.29620   0.74467   0.00000  Uiso   1.00
H774   H     0.58977   0.29596   0.75631   0.00000  Uiso   1.00
N775   N     0.45069   0.16668   0.74999   0.00000  Uiso   1.00
N776   N     0.56434   0.22578   0.69925   0.00000  Uiso   1.00
N777   N     0.54931   0.16666   0.75001   0.00000  Uiso   1.00
N778   N     0.48216   0.12656   0.64011   0.00000  Uiso   1.00
N779   N     0.51783   0.20676   0.85989   0.00000  Uiso   1.00
N780   N     0.58386   0.16366   0.61722   0.00000  Uiso   1.00
N781   N     0.41614   0.16968   0.88278   0.00000  Uiso   1.00
N782   N     0.54592   0.08693   0.82921   0.00000  Uiso   1.00
N783   N     0.45408   0.24640   0.67079   0.00000  Uiso   1.00
N784   N     0.43566   0.10755   0.80074   0.00000  Uiso   1.00
O785   O     0.37291   0.10655   0.75000   0.00000  Uiso   1.00
O786   O     0.62709   0.22678   0.75000   0.00000  Uiso   1.00
O787   O     0.62706   0.10654   0.75001   0.00000  Uiso   1.00
O788   O     0.37294   0.22679   0.75000   0.00000  Uiso   1.00
O789   O     0.35186   0.16668   0.81492   0.00000  Uiso   1.00
O790   O     0.64814   0.16666   0.68509   0.00000  Uiso   1.00
O791   O     0.60600   0.16667   0.81492   0.00000  Uiso   1.00
O792   O     0.39400   0.16667   0.68508   0.00000  Uiso   1.00
C793   C     0.66668   0.08740   0.74994   0.00000  Uiso   1.00
C794   C     0.70979   0.02135   0.74665   0.00000  Uiso   1.00
C795   C     0.99996   0.29057   0.75018   0.00000  Uiso   1.00
C796   C     0.66671   0.04277   0.74982   0.00000  Uiso   1.00
C797   C     0.85076   0.13873   0.77597   0.00000  Uiso   1.00
C798   C     0.81590   0.19461   0.72403   0.00000  Uiso   1.00
C799   C     0.80119   0.13839   0.77553   0.00000  Uiso   1.00
C800   C     0.86548   0.19494   0.72447   0.00000  Uiso   1.00
C801   C     0.97290   0.16929   0.83596   0.00000  Uiso   1.00
C802   C     0.69377   0.16404   0.66404   0.00000  Uiso   1.00
C803   C     0.95757   0.17175   0.88542   0.00000  Uiso   1.00
C804   C     0.99998   0.24593   0.75006   0.00000  Uiso   1.00
C805   C     0.70909   0.16159   0.61458   0.00000  Uiso   1.00
C806   C     0.97169   0.14818   0.95545   0.00000  Uiso   1.00
C807   C     0.69498   0.18515   0.54455   0.00000  Uiso   1.00
C808   C     0.98983   0.16176   0.91160   0.00000  Uiso   1.00
C809   C     0.67684   0.17158   0.58840   0.00000  Uiso   1.00
C810   C     0.90857   0.18027   0.90747   0.00000  Uiso   1.00
C811   C     0.75809   0.15306   0.59253   0.00000  Uiso   1.00
C812   C     0.89093   0.17076   0.95392   0.00000  Uiso   1.00
C813   C     0.77574   0.16258   0.54608   0.00000  Uiso   1.00
C814   C     0.92229   0.14919   0.97509   0.00000  Uiso   1.00
C815   C     0.85465   0.12646   0.53393   0.00000  Uiso   1.00
C816   C     0.74438   0.18415   0.52491   0.00000  Uiso   1.00
C817   C     0.84248   0.17780   0.97942   0.00000  Uiso   1.00
C818   C     0.82419   0.15553   0.52058   0.00000  Uiso   1.00
C819   C     0.79027   0.13836   0.61876   0.00000  Uiso   1.00
C820   C     0.87639   0.19497   0.88124   0.00000  Uiso   1.00
C821   C     0.95857   0.16758   0.60478   0.00000  Uiso   1.00
C822   C     0.70809   0.16576   0.89522   0.00000  Uiso   1.00
C823   C     0.86685   0.10999   0.80532   0.00000  Uiso   1.00
C824   C     0.79982   0.22334   0.69468   0.00000  Uiso   1.00
C825   C     0.81203   0.20687   0.96608   0.00000  Uiso   1.00
C826   C     0.90370   0.12659   0.51441   0.00000  Uiso   1.00
C827   C     0.76297   0.20675   0.98559   0.00000  Uiso   1.00
C828   C     0.95695   0.02122   0.75300   0.00000  Uiso   1.00
C829   C     0.70972   0.31211   0.74700   0.00000  Uiso   1.00
C830   C     0.95688   0.31198   0.75335   0.00000  Uiso   1.00
Cu831  Cu    0.71355   0.16667   0.75000   0.00000  Uiso   1.00
Cu832  Cu    0.95311   0.16666   0.75000   0.00000  Uiso   1.00
H833   H     0.92671   0.10650   0.52831   0.00000  Uiso   1.00
H834   H     0.74357   0.03737   0.74369   0.00000  Uiso   1.00
H835   H     0.77011   0.10813   0.83392   0.00000  Uiso   1.00
H836   H     0.78173   0.07883   0.78901   0.00000  Uiso   1.00
H837   H     0.89656   0.22521   0.66608   0.00000  Uiso   1.00
H838   H     0.88494   0.25450   0.71098   0.00000  Uiso   1.00
H839   H     0.73996   0.22684   0.97170   0.00000  Uiso   1.00
H840   H     0.99609   0.13576   0.97401   0.00000  Uiso   1.00
H841   H     0.67058   0.19758   0.52599   0.00000  Uiso   1.00
H842   H     0.84136   0.10263   0.55887   0.00000  Uiso   1.00
H843   H     0.82531   0.23070   0.94113   0.00000  Uiso   1.00
H844   H     0.92327   0.03713   0.75533   0.00000  Uiso   1.00
H845   H     0.74340   0.29620   0.74467   0.00000  Uiso   1.00
H846   H     0.92310   0.29596   0.75631   0.00000  Uiso   1.00
N847   N     0.78403   0.16668   0.74999   0.00000  Uiso   1.00
N848   N     0.89767   0.22578   0.69925   0.00000  Uiso   1.00
N849   N     0.88264   0.16666   0.75001   0.00000  Uiso   1.00
N850   N     0.81549   0.12656   0.64011   0.00000  Uiso   1.00
N851   N     0.85116   0.20676   0.85989   0.00000  Uiso   1.00
N852   N     0.91720   0.16366   0.61722   0.00000  Uiso   1.00
N853   N     0.74947   0.16968   0.88278   0.00000  Uiso   1.00
N854   N     0.87925   0.08693   0.82921   0.00000  Uiso   1.00
N855   N     0.78741   0.24640   0.67079   0.00000  Uiso   1.00
N856   N     0.76900   0.10755   0.80074   0.00000  Uiso   1.00
O857   O     0.70625   0.10655   0.75000   0.00000  Uiso   1.00
O858   O     0.96042   0.22678   0.75000   0.00000  Uiso   1.00
O859   O     0.96039   0.10654   0.75001   0.00000  Uiso   1.00
O860   O     0.70628   0.22679   0.75000   0.00000  Uiso   1.00
O861   O     0.68519   0.16668   0.81492   0.00000  Uiso   1.00
O862   O     0.98148   0.16666   0.68509   0.00000  Uiso   1.00
O863   O     0.93933   0.16667   0.81492   0.00000  Uiso   1.00
O864   O     0.72733   0.16667   0.68508   0.00000  Uiso   1.00
C865   C     0.00002   0.42074   0.74994   0.00000  Uiso   1.00
C866   C     0.04312   0.35468   0.74665   0.00000  Uiso   1.00
C867   C     0.33329   0.62390   0.75018   0.00000  Uiso   1.00
C868   C     0.00004   0.37610   0.74982   0.00000  Uiso   1.00
C869   C     0.18410   0.47206   0.77597   0.00000  Uiso   1.00
C870   C     0.14924   0.52794   0.72403   0.00000  Uiso   1.00
C871   C     0.13452   0.47172   0.77553   0.00000  Uiso   1.00
C872   C     0.19882   0.52828   0.72447   0.00000  Uiso   1.00
C873   C     0.30623   0.50263   0.83596   0.00000  Uiso   1.00
C874   C     0.02710   0.49737   0.66404   0.00000  Uiso   1.00
C875   C     0.29091   0.50508   0.88542   0.00000  Uiso   1.00
C876   C     0.33332   0.57926   0.75006   0.00000  Uiso   1.00
C877   C     0.04243   0.49492   0.61458   0.00000  Uiso   1.00
C878   C     0.30503   0.48152   0.95545   0.00000  Uiso   1.00
C879   C     0.02831   0.51849   0.54455   0.00000  Uiso   1.00
C880   C     0.32317   0.49509   0.91160   0.00000  Uiso   1.00
C881   C     0.01017   0.50491   0.58840   0.00000  Uiso   1.00
C882   C     0.24191   0.51360   0.90747   0.00000  Uiso   1.00
C883   C     0.09143   0.48640   0.59253   0.00000  Uiso   1.00
C884   C     0.22426   0.50409   0.95392   0.00000  Uiso   1.00
C885   C     0.10907   0.49591   0.54608   0.00000  Uiso   1.00
C886   C     0.25562   0.48252   0.97509   0.00000  Uiso   1.00
C887   C     0.18798   0.45980   0.53393   0.00000  Uiso   1.00
C888   C     0.07772   0.51748   0.52491   0.00000  Uiso   1.00
C889   C     0.17581   0.51113   0.97942   0.00000  Uiso   1.00
C890   C     0.15752   0.48887   0.52058   0.00000  Uiso   1.00
C891   C     0.12360   0.47169   0.61876   0.00000  Uiso   1.00
C892   C     0.20972   0.52830   0.88124   0.00000  Uiso   1.00
C893   C     0.29191   0.50091   0.60478   0.00000  Uiso   1.00
C894   C     0.04143   0.49909   0.89522   0.00000  Uiso   1.00
C895   C     0.20019   0.44332   0.80532   0.00000  Uiso   1.00
C896   C     0.13315   0.55668   0.69468   0.00000  Uiso   1.00
C897   C     0.14536   0.54021   0.96608   0.00000  Uiso   1.00
C898   C     0.23703   0.45992   0.51441   0.00000  Uiso   1.00
C899   C     0.09630   0.54008   0.98559   0.00000  Uiso   1.00
C900   C     0.29028   0.35455   0.75300   0.00000  Uiso   1.00
C901   C     0.04305   0.64545   0.74700   0.00000  Uiso   1.00
C902   C     0.29021   0.64532   0.75335   0.00000  Uiso   1.00
Cu903  Cu    0.04689   0.50001   0.75000   0.00000  Uiso   1.00
Cu904  Cu    0.28645   0.49999   0.75000   0.00000  Uiso   1.00
H905   H     0.26004   0.43983   0.52831   0.00000  Uiso   1.00
H906   H     0.07690   0.37070   0.74369   0.00000  Uiso   1.00
H907   H     0.10344   0.44146   0.83392   0.00000  Uiso   1.00
H908   H     0.11506   0.41216   0.78901   0.00000  Uiso   1.00
H909   H     0.22989   0.55854   0.66608   0.00000  Uiso   1.00
H910   H     0.21828   0.58784   0.71098   0.00000  Uiso   1.00
H911   H     0.07330   0.56018   0.97170   0.00000  Uiso   1.00
H912   H     0.32943   0.46909   0.97401   0.00000  Uiso   1.00
H913   H     0.00391   0.53091   0.52599   0.00000  Uiso   1.00
H914   H     0.17469   0.43596   0.55887   0.00000  Uiso   1.00
H915   H     0.15864   0.56404   0.94113   0.00000  Uiso   1.00
H916   H     0.25660   0.37046   0.75533   0.00000  Uiso   1.00
H917   H     0.07673   0.62954   0.74467   0.00000  Uiso   1.00
H918   H     0.25643   0.62930   0.75631   0.00000  Uiso   1.00
N919   N     0.11736   0.50001   0.74999   0.00000  Uiso   1.00
N920   N     0.23100   0.55911   0.69925   0.00000  Uiso   1.00
N921   N     0.21597   0.49999   0.75001   0.00000  Uiso   1.00
N922   N     0.14883   0.45989   0.64011   0.00000  Uiso   1.00
N923   N     0.18450   0.54009   0.85989   0.00000  Uiso   1.00
N924   N     0.25053   0.49699   0.61722   0.00000  Uiso   1.00
N925   N     0.08281   0.50301   0.88278   0.00000  Uiso   1.00
N926   N     0.21259   0.42026   0.82921   0.00000  Uiso   1.00
N927   N     0.12075   0.57974   0.67079   0.00000  Uiso   1.00
N928   N     0.10233   0.44089   0.80074   0.00000  Uiso   1.00
O929   O     0.03958   0.43989   0.75000   0.00000  Uiso   1.00
O930   O     0.29375   0.56011   0.75000   0.00000  Uiso   1.00
O931   O     0.29372   0.43988   0.75001   0.00000  Uiso   1.00
O932   O     0.03961   0.56012   0.75000   0.00000  Uiso   1.00
O933   O     0.01852   0.50001   0.81492   0.00000  Uiso   1.00
O934   O     0.31481   0.49999   0.68509   0.00000  Uiso   1.00
O935   O     0.27267   0.50000   0.81492   0.00000  Uiso   1.00
O936   O     0.06067   0.50000   0.68508   0.00000  Uiso   1.00
C937   C     0.33335   0.42074   0.74994   0.00000  Uiso   1.00
C938   C     0.37645   0.35468   0.74665   0.00000  Uiso   1.00
C939   C     0.66662   0.62390   0.75018   0.00000  Uiso   1.00
C940   C     0.33338   0.37610   0.74982   0.00000  Uiso   1.00
C941   C     0.51743   0.47206   0.77597   0.00000  Uiso   1.00
C942   C     0.48257   0.52794   0.72403   0.00000  Uiso   1.00
C943   C     0.46785   0.47172   0.77553   0.00000  Uiso   1.00
C944   C     0.53215   0.52828   0.72447   0.00000  Uiso   1.00
C945   C     0.63957   0.50263   0.83596   0.00000  Uiso   1.00
C946   C     0.36043   0.49737   0.66404   0.00000  Uiso   1.00
C947   C     0.62424   0.50508   0.88542   0.00000  Uiso   1.00
C948   C     0.66665   0.57926   0.75006   0.00000  Uiso   1.00
C949   C     0.37576   0.49492   0.61458   0.00000  Uiso   1.00
C950   C     0.63836   0.48152   0.95545   0.00000  Uiso   1.00
C951   C     0.36164   0.51849   0.54455   0.00000  Uiso   1.00
C952   C     0.65650   0.49509   0.91160   0.00000  Uiso   1.00
C953   C     0.34350   0.50491   0.58840   0.00000  Uiso   1.00
C954   C     0.57524   0.51360   0.90747   0.00000  Uiso   1.00
C955   C     0.42476   0.48640   0.59253   0.00000  Uiso   1.00
C956   C     0.55760   0.50409   0.95392   0.00000  Uiso   1.00
C957   C     0.44241   0.49591   0.54608   0.00000  Uiso   1.00
C958   C     0.58895   0.48252   0.97509   0.00000  Uiso   1.00
C959   C     0.52131   0.45980   0.53393   0.00000  Uiso   1.00
C960   C     0.41105   0.51748   0.52491   0.00000  Uiso   1.00
C961   C     0.50915   0.51113   0.97942   0.00000  Uiso   1.00
C962   C     0.49086   0.48887   0.52058   0.00000  Uiso   1.00
C963   C     0.45694   0.47169   0.61876   0.00000  Uiso   1.00
C964   C     0.54306   0.52830   0.88124   0.00000  Uiso   1.00
C965   C     0.62524   0.50091   0.60478   0.00000  Uiso   1.00
C966   C     0.37476   0.49909   0.89522   0.00000  Uiso   1.00
C967   C     0.53352   0.44332   0.80532   0.00000  Uiso   1.00
C968   C     0.46648   0.55668   0.69468   0.00000  Uiso   1.00
C969   C     0.47869   0.54021   0.96608   0.00000  Uiso   1.00
C970   C     0.57037   0.45992   0.51441   0.00000  Uiso   1.00
C971   C     0.42964   0.54008   0.98559   0.00000  Uiso   1.00
C972   C     0.62362   0.35455   0.75300   0.00000  Uiso   1.00
C973   C     0.37638   0.64545   0.74700   0.00000  Uiso   1.00
C974   C     0.62355   0.64532   0.75335   0.00000  Uiso   1.00
Cu975  Cu    0.38022   0.50001   0.75000   0.00000  Uiso   1.00
Cu976  Cu    0.61978   0.49999   0.75000   0.00000  Uiso   1.00
H977   H     0.59337   0.43983   0.52831   0.00000  Uiso   1.00
H978   H     0.41023   0.37070   0.74369   0.00000  Uiso   1.00
H979   H     0.43678   0.44146   0.83392   0.00000  Uiso   1.00
H980   H     0.44840   0.41216   0.78901   0.00000  Uiso   1.00
H981   H     0.56322   0.55854   0.66608   0.00000  Uiso   1.00
H982   H     0.55161   0.58784   0.71098   0.00000  Uiso   1.00
H983   H     0.40663   0.56018   0.97170   0.00000  Uiso   1.00
H984   H     0.66276   0.46909   0.97401   0.00000  Uiso   1.00
H985   H     0.33724   0.53091   0.52599   0.00000  Uiso   1.00
H986   H     0.50803   0.43596   0.55887   0.00000  Uiso   1.00
H987   H     0.49198   0.56404   0.94113   0.00000  Uiso   1.00
H988   H     0.58993   0.37046   0.75533   0.00000  Uiso   1.00
H989   H     0.41007   0.62954   0.74467   0.00000  Uiso   1.00
H990   H     0.58977   0.62930   0.75631   0.00000  Uiso   1.00
N991   N     0.45069   0.50001   0.74999   0.00000  Uiso   1.00
N992   N     0.56434   0.55911   0.69925   0.00000  Uiso   1.00
N993   N     0.54931   0.49999   0.75001   0.00000  Uiso   1.00
N994   N     0.48216   0.45989   0.64011   0.00000  Uiso   1.00
N995   N     0.51783   0.54009   0.85989   0.00000  Uiso   1.00
N996   N     0.58386   0.49699   0.61722   0.00000  Uiso   1.00
N997   N     0.41614   0.50301   0.88278   0.00000  Uiso   1.00
N998   N     0.54592   0.42026   0.82921   0.00000  Uiso   1.00
N999   N     0.45408   0.57974   0.67079   0.00000  Uiso   1.00
N1000  N     0.43566   0.44089   0.80074   0.00000  Uiso   1.00
O1001  O     0.37291   0.43989   0.75000   0.00000  Uiso   1.00
O1002  O     0.62709   0.56011   0.75000   0.00000  Uiso   1.00
O1003  O     0.62706   0.43988   0.75001   0.00000  Uiso   1.00
O1004  O     0.37294   0.56012   0.75000   0.00000  Uiso   1.00
O1005  O     0.35186   0.50001   0.81492   0.00000  Uiso   1.00
O1006  O     0.64814   0.49999   0.68509   0.00000  Uiso   1.00
O1007  O     0.60600   0.50000   0.81492   0.00000  Uiso   1.00
O1008  O     0.39400   0.50000   0.68508   0.00000  Uiso   1.00
C1009  C     0.66668   0.42074   0.74994   0.00000  Uiso   1.00
C1010  C     0.70979   0.35468   0.74665   0.00000  Uiso   1.00
C1011  C     0.99996   0.62390   0.75018   0.00000  Uiso   1.00
C1012  C     0.66671   0.37610   0.74982   0.00000  Uiso   1.00
C1013  C     0.85076   0.47206   0.77597   0.00000  Uiso   1.00
C1014  C     0.81590   0.52794   0.72403   0.00000  Uiso   1.00
C1015  C     0.80119   0.47172   0.77553   0.00000  Uiso   1.00
C1016  C     0.86548   0.52828   0.72447   0.00000  Uiso   1.00
C1017  C     0.97290   0.50263   0.83596   0.00000  Uiso   1.00
C1018  C     0.69377   0.49737   0.66404   0.00000  Uiso   1.00
C1019  C     0.95757   0.50508   0.88542   0.00000  Uiso   1.00
C1020  C     0.99998   0.57926   0.75006   0.00000  Uiso   1.00
C1021  C     0.70909   0.49492   0.61458   0.00000  Uiso   1.00
C1022  C     0.97169   0.48152   0.95545   0.00000  Uiso   1.00
C1023  C     0.69498   0.51849   0.54455   0.00000  Uiso   1.00
C1024  C     0.98983   0.49509   0.91160   0.00000  Uiso   1.00
C1025  C     0.67684   0.50491   0.58840   0.00000  Uiso   1.00
C1026  C     0.90857   0.51360   0.90747   0.00000  Uiso   1.00
C1027  C     0.75809   0.48640   0.59253   0.00000  Uiso   1.00
C1028  C     0.89093   0.50409   0.95392   0.00000  Uiso   1.00
C1029  C     0.77574   0.49591   0.54608   0.00000  Uiso   1.00
C1030  C     0.92229   0.48252   0.97509   0.00000  Uiso   1.00
C1031  C     0.85465   0.45980   0.53393   0.00000  Uiso   1.00
C1032  C     0.74438   0.51748   0.52491   0.00000  Uiso   1.00
C1033  C     0.84248   0.51113   0.97942   0.00000  Uiso   1.00
C1034  C     0.82419   0.48887   0.52058   0.00000  Uiso   1.00
C1035  C     0.79027   0.47169   0.61876   0.00000  Uiso   1.00
C1036  C     0.87639   0.52830   0.88124   0.00000  Uiso   1.00
C1037  C     0.95857   0.50091   0.60478   0.00000  Uiso   1.00
C1038  C     0.70809   0.49909   0.89522   0.00000  Uiso   1.00
C1039  C     0.86685   0.44332   0.80532   0.00000  Uiso   1.00
C1040  C     0.79982   0.55668   0.69468   0.00000  Uiso   1.00
C1041  C     0.81203   0.54021   0.96608   0.00000  Uiso   1.00
C1042  C     0.90370   0.45992   0.51441   0.00000  Uiso   1.00
C1043  C     0.76297   0.54008   0.98559   0.00000  Uiso   1.00
C1044  C     0.95695   0.35455   0.75300   0.00000  Uiso   1.00
C1045  C     0.70972   0.64545   0.74700   0.00000  Uiso   1.00
C1046  C     0.95688   0.64532   0.75335   0.00000  Uiso   1.00
Cu1047 Cu    0.71355   0.50001   0.75000   0.00000  Uiso   1.00
Cu1048 Cu    0.95311   0.49999   0.75000   0.00000  Uiso   1.00
H1049  H     0.92671   0.43983   0.52831   0.00000  Uiso   1.00
H1050  H     0.74357   0.37070   0.74369   0.00000  Uiso   1.00
H1051  H     0.77011   0.44146   0.83392   0.00000  Uiso   1.00
H1052  H     0.78173   0.41216   0.78901   0.00000  Uiso   1.00
H1053  H     0.89656   0.55854   0.66608   0.00000  Uiso   1.00
H1054  H     0.88494   0.58784   0.71098   0.00000  Uiso   1.00
H1055  H     0.73996   0.56018   0.97170   0.00000  Uiso   1.00
H1056  H     0.99609   0.46909   0.97401   0.00000  Uiso   1.00
H1057  H     0.67058   0.53091   0.52599   0.00000  Uiso   1.00
H1058  H     0.84136   0.43596   0.55887   0.00000  Uiso   1.00
H1059  H     0.82531   0.56404   0.94113   0.00000  Uiso   1.00
H1060  H     0.92327   0.37046   0.75533   0.00000  Uiso   1.00
H1061  H     0.74340   0.62954   0.74467   0.00000  Uiso   1.00
H1062  H     0.92310   0.62930   0.75631   0.00000  Uiso   1.00
N1063  N     0.78403   0.50001   0.74999   0.00000  Uiso   1.00
N1064  N     0.89767   0.55911   0.69925   0.00000  Uiso   1.00
N1065  N     0.88264   0.49999   0.75001   0.00000  Uiso   1.00
N1066  N     0.81549   0.45989   0.64011   0.00000  Uiso   1.00
N1067  N     0.85116   0.54009   0.85989   0.00000  Uiso   1.00
N1068  N     0.91720   0.49699   0.61722   0.00000  Uiso   1.00
N1069  N     0.74947   0.50301   0.88278   0.00000  Uiso   1.00
N1070  N     0.87925   0.42026   0.82921   0.00000  Uiso   1.00
N1071  N     0.78741   0.57974   0.67079   0.00000  Uiso   1.00
N1072  N     0.76900   0.44089   0.80074   0.00000  Uiso   1.00
O1073  O     0.70625   0.43989   0.75000   0.00000  Uiso   1.00
O1074  O     0.96042   0.56011   0.75000   0.00000  Uiso   1.00
O1075  O     0.96039   0.43988   0.75001   0.00000  Uiso   1.00
O1076  O     0.70628   0.56012   0.75000   0.00000  Uiso   1.00
O1077  O     0.68519   0.50001   0.81492   0.00000  Uiso   1.00
O1078  O     0.98148   0.49999   0.68509   0.00000  Uiso   1.00
O1079  O     0.93933   0.50000   0.81492   0.00000  Uiso   1.00
O1080  O     0.72733   0.50000   0.68508   0.00000  Uiso   1.00
C1081  C     0.00002   0.75407   0.74994   0.00000  Uiso   1.00
C1082  C     0.04312   0.68802   0.74665   0.00000  Uiso   1.00
C1083  C     0.33329   0.95723   0.75018   0.00000  Uiso   1.00
C1084  C     0.00004   0.70943   0.74982   0.00000  Uiso   1.00
C1085  C     0.18410   0.80540   0.77597   0.00000  Uiso   1.00
C1086  C     0.14924   0.86127   0.72403   0.00000  Uiso   1.00
C1087  C     0.13452   0.80506   0.77553   0.00000  Uiso   1.00
C1088  C     0.19882   0.86161   0.72447   0.00000  Uiso   1.00
C1089  C     0.30623   0.83596   0.83596   0.00000  Uiso   1.00
C1090  C     0.02710   0.83071   0.66404   0.00000  Uiso   1.00
C1091  C     0.29091   0.83841   0.88542   0.00000  Uiso   1.00
C1092  C     0.33332   0.91260   0.75006   0.00000  Uiso   1.00
C1093  C     0.04243   0.82825   0.61458   0.00000  Uiso   1.00
C1094  C     0.30503   0.81485   0.95545   0.00000  Uiso   1.00
C1095  C     0.02831   0.85182   0.54455   0.00000  Uiso   1.00
C1096  C     0.32317   0.82843   0.91160   0.00000  Uiso   1.00
C1097  C     0.01017   0.83824   0.58840   0.00000  Uiso   1.00
C1098  C     0.24191   0.84693   0.90747   0.00000  Uiso   1.00
C1099  C     0.09143   0.81973   0.59253   0.00000  Uiso   1.00
C1100  C     0.22426   0.83742   0.95392   0.00000  Uiso   1.00
C1101  C     0.10907   0.82924   0.54608   0.00000  Uiso   1.00
C1102  C     0.25562   0.81585   0.97509   0.00000  Uiso   1.00
C1103  C     0.18798   0.79313   0.53393   0.00000  Uiso   1.00
C1104  C     0.07772   0.85082   0.52491   0.00000  Uiso   1.00
C1105  C     0.17581   0.84447   0.97942   0.00000  Uiso   1.00
C1106  C     0.15752   0.82220   0.52058   0.00000  Uiso   1.00
C1107  C     0.12360   0.80502   0.61876   0.00000  Uiso   1.00
C1108  C     0.20972   0.86163   0.88124   0.00000  Uiso   1.00
C1109  C     0.29191   0.83424   0.60478   0.00000  Uiso   1.00
C1110  C     0.04143   0.83242   0.89522   0.00000  Uiso   1.00
C1111  C     0.20019   0.77666   0.80532   0.00000  Uiso   1.00
C1112  C     0.13315   0.89001   0.69468   0.00000  Uiso   1.00
C1113  C     0.14536   0.87354   0.96608   0.00000  Uiso   1.00
C1114  C     0.23703   0.79325   0.51441   0.00000  Uiso   1.00
C1115  C     0.09630   0.87342   0.98559   0.00000  Uiso   1.00
C1116  C     0.29028   0.68789   0.75300   0.00000  Uiso   1.00
C1117  C     0.04305   0.97878   0.74700   0.00000  Uiso   1.00
C1118  C     0.29021   0.97865   0.75335   0.00000  Uiso   1.00
Cu1119 Cu    0.04689   0.83334   0.75000   0.00000  Uiso   1.00
Cu1120 Cu    0.28645   0.83333   0.75000   0.00000  Uiso   1.00
H1121  H     0.26004   0.77316   0.52831   0.00000  Uiso   1.00
H1122  H     0.07690   0.70404   0.74369   0.00000  Uiso   1.00
H1123  H     0.10344   0.77479   0.83392   0.00000  Uiso   1.00
H1124  H     0.11506   0.74550   0.78901   0.00000  Uiso   1.00
H1125  H     0.22989   0.89187   0.66608   0.00000  Uiso   1.00
H1126  H     0.21828   0.92117   0.71098   0.00000  Uiso   1.00
H1127  H     0.07330   0.89351   0.97170   0.00000  Uiso   1.00
H1128  H     0.32943   0.80242   0.97401   0.00000  Uiso   1.00
H1129  H     0.00391   0.86425   0.52599   0.00000  Uiso   1.00
H1130  H     0.17469   0.76930   0.55887   0.00000  Uiso   1.00
H1131  H     0.15864   0.89737   0.94113   0.00000  Uiso   1.00
H1132  H     0.25660   0.70380   0.75533   0.00000  Uiso   1.00
H1133  H     0.07673   0.96287   0.74467   0.00000  Uiso   1.00
H1134  H     0.25643   0.96263   0.75631   0.00000  Uiso   1.00
N1135  N     0.11736   0.83334   0.74999   0.00000  Uiso   1.00
N1136  N     0.23100   0.89245   0.69925   0.00000  Uiso   1.00
N1137  N     0.21597   0.83332   0.75001   0.00000  Uiso   1.00
N1138  N     0.14883   0.79323   0.64011   0.00000  Uiso   1.00
N1139  N     0.18450   0.87342   0.85989   0.00000  Uiso   1.00
N1140  N     0.25053   0.83032   0.61722   0.00000  Uiso   1.00
N1141  N     0.08281   0.83634   0.88278   0.00000  Uiso   1.00
N1142  N     0.21259   0.75360   0.82921   0.00000  Uiso   1.00
N1143  N     0.12075   0.91307   0.67079   0.00000  Uiso   1.00
N1144  N     0.10233   0.77422   0.80074   0.00000  Uiso   1.00
O1145  O     0.03958   0.77322   0.75000   0.00000  Uiso   1.00
O1146  O     0.29375   0.89345   0.75000   0.00000  Uiso   1.00
O1147  O     0.29372   0.77321   0.75001   0.00000  Uiso   1.00
O1148  O     0.03961   0.89346   0.75000   0.00000  Uiso   1.00
O1149  O     0.01852   0.83334   0.81492   0.00000  Uiso   1.00
O1150  O     0.31481   0.83332   0.68509   0.00000  Uiso   1.00
O1151  O     0.27267   0.83333   0.81492   0.00000  Uiso   1.00
O1152  O     0.06067   0.83333   0.68508   0.00000  Uiso   1.00
C1153  C     0.33335   0.75407   0.74994   0.00000  Uiso   1.00
C1154  C     0.37645   0.68802   0.74665   0.00000  Uiso   1.00
C1155  C     0.66662   0.95723   0.75018   0.00000  Uiso   1.00
C1156  C     0.33338   0.70943   0.74982   0.00000  Uiso   1.00
C1157  C     0.51743   0.80540   0.77597   0.00000  Uiso   1.00
C1158  C     0.48257   0.86127   0.72403   0.00000  Uiso   1.00
C1159  C     0.46785   0.80506   0.77553   0.00000  Uiso   1.00
C1160  C     0.53215   0.86161   0.72447   0.00000  Uiso   1.00
C1161  C     0.63957   0.83596   0.83596   0.00000  Uiso   1.00
C1162  C     0.36043   0.83071   0.66404   0.00000  Uiso   1.00
C1163  C     0.62424   0.83841   0.88542   0.00000  Uiso   1.00
C1164  C     0.66665   0.91260   0.75006   0.00000  Uiso   1.00
C1165  C     0.37576   0.82825   0.61458   0.00000  Uiso   1.00
C1166  C     0.63836   0.81485   0.95545   0.00000  Uiso   1.00
C1167  C     0.36164   0.85182   0.54455   0.00000  Uiso   1.00
C1168  C     0.65650   0.82843   0.91160   0.00000  Uiso   1.00
C1169  C     0.34350   0.83824   0.58840   0.00000  Uiso   1.00
C1170  C     0.57524   0.84693   0.90747   0.00000  Uiso   1.00
C1171  C     0.42476   0.81973   0.59253   0.00000  Uiso   1.00
C1172  C     0.55760   0.83742   0.95392   0.00000  Uiso   1.00
C1173  C     0.44241   0.82924   0.54608   0.00000  Uiso   1.00
C1174  C     0.58895   0.81585   0.97509   0.00000  Uiso   1.00
C1175  C     0.52131   0.79313   0.53393   0.00000  Uiso   1.00
C1176  C     0.41105   0.85082   0.52491   0.00000  Uiso   1.00
C1177  C     0.50915   0.84447   0.97942   0.00000  Uiso   1.00
C1178  C     0.49086   0.82220   0.52058   0.00000  Uiso   1.00
C1179  C     0.45694   0.80502   0.61876   0.00000  Uiso   1.00
C1180  C     0.54306   0.86163   0.88124   0.00000  Uiso   1.00
C1181  C     0.62524   0.83424   0.60478   0.00000  Uiso   1.00
C1182  C     0.37476   0.83242   0.89522   0.00000  Uiso   1.00
C1183  C     0.53352   0.77666   0.80532   0.00000  Uiso   1.00
C1184  C     0.46648   0.89001   0.69468   0.00000  Uiso   1.00
C1185  C     0.47869   0.87354   0.96608   0.00000  Uiso   1.00
C1186  C     0.57037   0.79325   0.51441   0.00000  Uiso   1.00
C1187  C     0.42964   0.87342   0.98559   0.00000  Uiso   1.00
C1188  C     0.62362   0.68789   0.75300   0.00000  Uiso   1.00
C1189  C     0.37638   0.97878   0.74700   0.00000  Uiso   1.00
C1190  C     0.62355   0.97865   0.75335   0.00000  Uiso   1.00
Cu1191 Cu    0.38022   0.83334   0.75000   0.00000  Uiso   1.00
Cu1192 Cu    0.61978   0.83333   0.75000   0.00000  Uiso   1.00
H1193  H     0.59337   0.77316   0.52831   0.00000  Uiso   1.00
H1194  H     0.41023   0.70404   0.74369   0.00000  Uiso   1.00
H1195  H     0.43678   0.77479   0.83392   0.00000  Uiso   1.00
H1196  H     0.44840   0.74550   0.78901   0.00000  Uiso   1.00
H1197  H     0.56322   0.89187   0.66608   0.00000  Uiso   1.00
H1198  H     0.55161   0.92117   0.71098   0.00000  Uiso   1.00
H1199  H     0.40663   0.89351   0.97170   0.00000  Uiso   1.00
H1200  H     0.66276   0.80242   0.97401   0.00000  Uiso   1.00
H1201  H     0.33724   0.86425   0.52599   0.00000  Uiso   1.00
H1202  H     0.50803   0.76930   0.55887   0.00000  Uiso   1.00
H1203  H     0.49198   0.89737   0.94113   0.00000  Uiso   1.00
H1204  H     0.58993   0.70380   0.75533   0.00000  Uiso   1.00
H1205  H     0.41007   0.96287   0.74467   0.00000  Uiso   1.00
H1206  H     0.58977   0.96263   0.75631   0.00000  Uiso   1.00
N1207  N     0.45069   0.83334   0.74999   0.00000  Uiso   1.00
N1208  N     0.56434   0.89245   0.69925   0.00000  Uiso   1.00
N1209  N     0.54931   0.83332   0.75001   0.00000  Uiso   1.00
N1210  N     0.48216   0.79323   0.64011   0.00000  Uiso   1.00
N1211  N     0.51783   0.87342   0.85989   0.00000  Uiso   1.00
N1212  N     0.58386   0.83032   0.61722   0.00000  Uiso   1.00
N1213  N     0.41614   0.83634   0.88278   0.00000  Uiso   1.00
N1214  N     0.54592   0.75360   0.82921   0.00000  Uiso   1.00
N1215  N     0.45408   0.91307   0.67079   0.00000  Uiso   1.00
N1216  N     0.43566   0.77422   0.80074   0.00000  Uiso   1.00
O1217  O     0.37291   0.77322   0.75000   0.00000  Uiso   1.00
O1218  O     0.62709   0.89345   0.75000   0.00000  Uiso   1.00
O1219  O     0.62706   0.77321   0.75001   0.00000  Uiso   1.00
O1220  O     0.37294   0.89346   0.75000   0.00000  Uiso   1.00
O1221  O     0.35186   0.83334   0.81492   0.00000  Uiso   1.00
O1222  O     0.64814   0.83332   0.68509   0.00000  Uiso   1.00
O1223  O     0.60600   0.83333   0.81492   0.00000  Uiso   1.00
O1224  O     0.39400   0.83333   0.68508   0.00000  Uiso   1.00
C1225  C     0.66668   0.75407   0.74994   0.00000  Uiso   1.00
C1226  C     0.70979   0.68802   0.74665   0.00000  Uiso   1.00
C1227  C     0.99996   0.95723   0.75018   0.00000  Uiso   1.00
C1228  C     0.66671   0.70943   0.74982   0.00000  Uiso   1.00
C1229  C     0.85076   0.80540   0.77597   0.00000  Uiso   1.00
C1230  C     0.81590   0.86127   0.72403   0.00000  Uiso   1.00
C1231  C     0.80119   0.80506   0.77553   0.00000  Uiso   1.00
C1232  C     0.86548   0.86161   0.72447   0.00000  Uiso   1.00
C1233  C     0.97290   0.83596   0.83596   0.00000  Uiso   1.00
C1234  C     0.69377   0.83071   0.66404   0.00000  Uiso   1.00
C1235  C     0.95757   0.83841   0.88542   0.00000  Uiso   1.00
C1236  C     0.99998   0.91260   0.75006   0.00000  Uiso   1.00
C1237  C     0.70909   0.82825   0.61458   0.00000  Uiso   1.00
C1238  C     0.97169   0.81485   0.95545   0.00000  Uiso   1.00
C1239  C     0.69498   0.85182   0.54455   0.00000  Uiso   1.00
C1240  C     0.98983   0.82843   0.91160   0.00000  Uiso   1.00
C1241  C     0.67684   0.83824   0.58840   0.00000  Uiso   1.00
C1242  C     0.90857   0.84693   0.90747   0.00000  Uiso   1.00
C1243  C     0.75809   0.81973   0.59253   0.00000  Uiso   1.00
C1244  C     0.89093   0.83742   0.95392   0.00000  Uiso   1.00
C1245  C     0.77574   0.82924   0.54608   0.00000  Uiso   1.00
C1246  C     0.92229   0.81585   0.97509   0.00000  Uiso   1.00
C1247  C     0.85465   0.79313   0.53393   0.00000  Uiso   1.00
C1248  C     0.74438   0.85082   0.52491   0.00000  Uiso   1.00
C1249  C     0.84248   0.84447   0.97942   0.00000  Uiso   1.00
C1250  C     0.82419   0.82220   0.52058   0.00000  Uiso   1.00
C1251  C     0.79027   0.80502   0.61876   0.00000  Uiso   1.00
C1252  C     0.87639   0.86163   0.88124   0.00000  Uiso   1.00
C1253  C     0.95857   0.83424   0.60478   0.00000  Uiso   1.00
C1254  C     0.70809   0.83242   0.89522   0.00000  Uiso   1.00
C1255  C     0.86685   0.77666   0.80532   0.00000  Uiso   1.00
C1256  C     0.79982   0.89001   0.69468   0.00000  Uiso   1.00
C1257  C     0.81203   0.87354   0.96608   0.00000  Uiso   1.00
C1258  C     0.90370   0.79325   0.51441   0.00000  Uiso   1.00
C1259  C     0.76297   0.87342   0.98559   0.00000  Uiso   1.00
C1260  C     0.95695   0.68789   0.75300   0.00000  Uiso   1.00
C1261  C     0.70972   0.97878   0.74700   0.00000  Uiso   1.00
C1262  C     0.95688   0.97865   0.75335   0.00000  Uiso   1.00
Cu1263 Cu    0.71355   0.83334   0.75000   0.00000  Uiso   1.00
Cu1264 Cu    0.95311   0.83333   0.75000   0.00000  Uiso   1.00
H1265  H     0.92671   0.77316   0.52831   0.00000  Uiso   1.00
H1266  H     0.74357   0.70404   0.74369   0.00000  Uiso   1.00
H1267  H     0.77011   0.77479   0.83392   0.00000  Uiso   1.00
H1268  H     0.78173   0.74550   0.78901   0.00000  Uiso   1.00
H1269  H     0.89656   0.89187   0.66608   0.00000  Uiso   1.00
H1270  H     0.88494   0.92117   0.71098   0.00000  Uiso   1.00
H1271  H     0.73996   0.89351   0.97170   0.00000  Uiso   1.00
H1272  H     0.99609   0.80242   0.97401   0.00000  Uiso   1.00
H1273  H     0.67058   0.86425   0.52599   0.00000  Uiso   1.00
H1274  H     0.84136   0.76930   0.55887   0.00000  Uiso   1.00
H1275  H     0.82531   0.89737   0.94113   0.00000  Uiso   1.00
H1276  H     0.92327   0.70380   0.75533   0.00000  Uiso   1.00
H1277  H     0.74340   0.96287   0.74467   0.00000  Uiso   1.00
H1278  H     0.92310   0.96263   0.75631   0.00000  Uiso   1.00
N1279  N     0.78403   0.83334   0.74999   0.00000  Uiso   1.00
N1280  N     0.89767   0.89245   0.69925   0.00000  Uiso   1.00
N1281  N     0.88264   0.83332   0.75001   0.00000  Uiso   1.00
N1282  N     0.81549   0.79323   0.64011   0.00000  Uiso   1.00
N1283  N     0.85116   0.87342   0.85989   0.00000  Uiso   1.00
N1284  N     0.91720   0.83032   0.61722   0.00000  Uiso   1.00
N1285  N     0.74947   0.83634   0.88278   0.00000  Uiso   1.00
N1286  N     0.87925   0.75360   0.82921   0.00000  Uiso   1.00
N1287  N     0.78741   0.91307   0.67079   0.00000  Uiso   1.00
N1288  N     0.76900   0.77422   0.80074   0.00000  Uiso   1.00
O1289  O     0.70625   0.77322   0.75000   0.00000  Uiso   1.00
O1290  O     0.96042   0.89345   0.75000   0.00000  Uiso   1.00
O1291  O     0.96039   0.77321   0.75001   0.00000  Uiso   1.00
O1292  O     0.70628   0.89346   0.75000   0.00000  Uiso   1.00
O1293  O     0.68519   0.83334   0.81492   0.00000  Uiso   1.00
O1294  O     0.98148   0.83332   0.68509   0.00000  Uiso   1.00
O1295  O     0.93933   0.83333   0.81492   0.00000  Uiso   1.00
O1296  O     0.72733   0.83333   0.68508   0.00000  Uiso   1.00
loop_
_geom_bond_atom_site_label_1
_geom_bond_atom_site_label_2
_geom_bond_distance
_geom_bond_site_symmetry_2
_ccdc_geom_bond_type
C1     C4      1.451   .     S
C1     O65     1.296   .     A
C1     O211    1.295   1_455 S
C2     C4      1.401   .     A
C2     H42     1.082   .     S
C2     C469    1.383   1_545 S
C3     C12     1.451   .     S
C3     C38     1.401   .     A
C3     C109    1.401   .     S
C4     C180    1.401   1_455 S
C5     N57     1.374   .     A
C5     C7      1.426   .     A
C5     C31     1.442   .     S
C6     C32     1.442   .     S
C6     N55     1.374   .     A
C6     C8      1.426   .     A
C7     N55     1.368   .     A
C7     N64     1.433   .     S
C8     N57     1.368   .     A
C8     N56     1.433   .     S
C9     C11     1.495   .     S
C9     O71     1.300   .     A
C9     O141    1.309   .     S
C10    O72     1.300   .     A
C10    C13     1.495   .     S
C10    O214    1.309   1_455 S
C11    C18     1.429   .     A
C11    C16     1.412   .     A
C12    O66     1.296   .     A
C12    O140    1.295   .     S
C13    C17     1.412   .     A
C13    C19     1.429   .     A
C14    C22     1.394   .     A
C14    C16     1.388   .     A
C14    H48     1.086   .     S
C15    C24     1.394   .     A
C15    H49     1.086   .     S
C15    C17     1.388   .     A
C16    C102    1.441   .     S
C17    C173    1.441   1_455 S
C18    C20     1.429   .     A
C18    C28     1.452   .     S
C19    C27     1.452   .     S
C19    C21     1.429   .     A
C20    C25     1.436   .     A
C20    C22     1.417   .     A
C21    C26     1.436   .     A
C21    C24     1.417   .     A
C22    C682    1.389   .     S
C23    C34     1.383   .     A
C23    C26     1.410   .     A
C23    H50     1.076   .     S
C24    C683    1.389   1_554 S
C25    C33     1.410   .     A
C25    C674    1.428   .     S
C26    C673    1.428   1_554 S
C27    N58     1.158   .     T
C28    N59     1.158   .     T
C29    N60     1.156   .     T
C29    C89     1.441   .     S
C30    N61     1.156   .     T
C30    C160    1.441   1_455 S
C31    N62     1.158   .     T
C32    N63     1.158   .     T
C33    H51     1.076   .     S
C33    C35     1.383   .     A
C34    H41     1.084   .     S
C34    C670    1.389   1_554 S
C35    H47     1.084   .     S
C35    C672    1.389   .     S
C36    H52     1.083   .     S
C36    C76     1.401   .     S
C36    C470    1.383   1_545 S
C37    H53     1.083   .     S
C37    C147    1.401   1_455 S
C37    C218    1.383   .     S
C38    H54     1.082   .     S
C38    C252    1.383   .     S
Cu39   O72     1.959   .     S
Cu39   O69     1.977   .     S
Cu39   O65     1.965   .     S
Cu39   O68     1.965   .     S
Cu39   N55     2.022   .     S
Cu39   Cu184   2.690   1_455 S
Cu40   N57     2.022   .     S
Cu40   O71     1.959   .     S
Cu40   O67     1.965   .     S
Cu40   O66     1.965   .     S
Cu40   O70     1.977   .     S
Cu40   Cu111   2.690   .     S
H43    N64     1.043   .     S
H44    N64     1.045   .     S
H45    N56     1.043   .     S
H46    N56     1.045   .     S
O67    C73     1.295   .     S
O68    C156    1.295   1_455 S
O69    C153    1.309   1_455 S
O70    C82     1.309   .     S
C73    C76     1.451   .     S
C73    O137    1.296   .     A
C74    C76     1.401   .     A
C74    H114    1.082   .     S
C74    C541    1.383   1_545 S
C75    C84     1.451   .     S
C75    C110    1.401   .     A
C75    C181    1.401   .     S
C77    N129    1.374   .     A
C77    C79     1.426   .     A
C77    C103    1.442   .     S
C78    C104    1.442   .     S
C78    N127    1.374   .     A
C78    C80     1.426   .     A
C79    N127    1.368   .     A
C79    N136    1.433   .     S
C80    N129    1.368   .     A
C80    N128    1.433   .     S
C81    C83     1.495   .     S
C81    O143    1.300   .     A
C81    O213    1.309   .     S
C82    O144    1.300   .     A
C82    C85     1.495   .     S
C83    C90     1.429   .     A
C83    C88     1.412   .     A
C84    O138    1.296   .     A
C84    O212    1.295   .     S
C85    C89     1.412   .     A
C85    C91     1.429   .     A
C86    C94     1.394   .     A
C86    C88     1.388   .     A
C86    H120    1.086   .     S
C87    C96     1.394   .     A
C87    H121    1.086   .     S
C87    C89     1.388   .     A
C88    C174    1.441   .     S
C90    C92     1.429   .     A
C90    C100    1.452   .     S
C91    C99     1.452   .     S
C91    C93     1.429   .     A
C92    C97     1.436   .     A
C92    C94     1.417   .     A
C93    C98     1.436   .     A
C93    C96     1.417   .     A
C94    C754    1.389   .     S
C95    C106    1.383   .     A
C95    C98     1.410   .     A
C95    H122    1.076   .     S
C96    C755    1.389   1_554 S
C97    C105    1.410   .     A
C97    C746    1.428   .     S
C98    C745    1.428   1_554 S
C99    N130    1.158   .     T
C100   N131    1.158   .     T
C101   N132    1.156   .     T
C101   C161    1.441   .     S
C102   N133    1.156   .     T
C103   N134    1.158   .     T
C104   N135    1.158   .     T
C105   H123    1.076   .     S
C105   C107    1.383   .     A
C106   H113    1.084   .     S
C106   C742    1.389   1_554 S
C107   H119    1.084   .     S
C107   C744    1.389   .     S
C108   H124    1.083   .     S
C108   C148    1.401   .     S
C108   C542    1.383   1_545 S
C109   H125    1.083   .     S
C109   C290    1.383   .     S
C110   H126    1.082   .     S
C110   C324    1.383   .     S
Cu111  O144    1.959   .     S
Cu111  O141    1.977   .     S
Cu111  O137    1.965   .     S
Cu111  O140    1.965   .     S
Cu111  N127    2.022   .     S
Cu112  N129    2.022   .     S
Cu112  O143    1.959   .     S
Cu112  O139    1.965   .     S
Cu112  O138    1.965   .     S
Cu112  O142    1.977   .     S
Cu112  Cu183   2.690   .     S
H115   N136    1.043   .     S
H116   N136    1.045   .     S
H117   N128    1.043   .     S
H118   N128    1.045   .     S
O139   C145    1.295   .     S
O142   C154    1.309   .     S
C145   C148    1.451   .     S
C145   O209    1.296   .     A
C146   C148    1.401   .     A
C146   H186    1.082   .     S
C146   C613    1.383   1_545 S
C147   C156    1.451   .     S
C147   C182    1.401   .     A
C147   C37     1.401   1_655 S
C149   N201    1.374   .     A
C149   C151    1.426   .     A
C149   C175    1.442   .     S
C150   C176    1.442   .     S
C150   N199    1.374   .     A
C150   C152    1.426   .     A
C151   N199    1.368   .     A
C151   N208    1.433   .     S
C152   N201    1.368   .     A
C152   N200    1.433   .     S
C153   C155    1.495   .     S
C153   O215    1.300   .     A
C153   O69     1.309   1_655 S
C154   O216    1.300   .     A
C154   C157    1.495   .     S
C155   C162    1.429   .     A
C155   C160    1.412   .     A
C156   O210    1.296   .     A
C156   O68     1.295   1_655 S
C157   C161    1.412   .     A
C157   C163    1.429   .     A
C158   C166    1.394   .     A
C158   C160    1.388   .     A
C158   H192    1.086   .     S
C159   C168    1.394   .     A
C159   H193    1.086   .     S
C159   C161    1.388   .     A
C160   C30     1.441   1_655 S
C162   C164    1.429   .     A
C162   C172    1.452   .     S
C163   C171    1.452   .     S
C163   C165    1.429   .     A
C164   C169    1.436   .     A
C164   C166    1.417   .     A
C165   C170    1.436   .     A
C165   C168    1.417   .     A
C166   C826    1.389   .     S
C167   C178    1.383   .     A
C167   C170    1.410   .     A
C167   H194    1.076   .     S
C168   C827    1.389   1_554 S
C169   C177    1.410   .     A
C169   C818    1.428   .     S
C170   C817    1.428   1_554 S
C171   N202    1.158   .     T
C172   N203    1.158   .     T
C173   N204    1.156   .     T
C173   C17     1.441   1_655 S
C174   N205    1.156   .     T
C175   N206    1.158   .     T
C176   N207    1.158   .     T
C177   H195    1.076   .     S
C177   C179    1.383   .     A
C178   H185    1.084   .     S
C178   C814    1.389   1_554 S
C179   H191    1.084   .     S
C179   C816    1.389   .     S
C180   H196    1.083   .     S
C180   C4      1.401   1_655 S
C180   C614    1.383   1_545 S
C181   H197    1.083   .     S
C181   C362    1.383   .     S
C182   H198    1.082   .     S
C182   C396    1.383   .     S
Cu183  O216    1.959   .     S
Cu183  O213    1.977   .     S
Cu183  O209    1.965   .     S
Cu183  O212    1.965   .     S
Cu183  N199    2.022   .     S
Cu184  N201    2.022   .     S
Cu184  O215    1.959   .     S
Cu184  O211    1.965   .     S
Cu184  O210    1.965   .     S
Cu184  O214    1.977   .     S
Cu184  Cu39    2.690   1_655 S
H187   N208    1.043   .     S
H188   N208    1.045   .     S
H189   N200    1.043   .     S
H190   N200    1.045   .     S
O211   C1      1.295   1_655 S
O214   C10     1.309   1_655 S
C217   C220    1.451   .     S
C217   O281    1.296   .     A
C217   O427    1.295   1_455 S
C218   C220    1.401   .     A
C218   H258    1.082   .     S
C219   C228    1.451   .     S
C219   C254    1.401   .     A
C219   C325    1.401   .     S
C220   C396    1.401   1_455 S
C221   N273    1.374   .     A
C221   C223    1.426   .     A
C221   C247    1.442   .     S
C222   C248    1.442   .     S
C222   N271    1.374   .     A
C222   C224    1.426   .     A
C223   N271    1.368   .     A
C223   N280    1.433   .     S
C224   N273    1.368   .     A
C224   N272    1.433   .     S
C225   C227    1.495   .     S
C225   O287    1.300   .     A
C225   O357    1.309   .     S
C226   O288    1.300   .     A
C226   C229    1.495   .     S
C226   O430    1.309   1_455 S
C227   C234    1.429   .     A
C227   C232    1.412   .     A
C228   O282    1.296   .     A
C228   O356    1.295   .     S
C229   C233    1.412   .     A
C229   C235    1.429   .     A
C230   C238    1.394   .     A
C230   C232    1.388   .     A
C230   H264    1.086   .     S
C231   C240    1.394   .     A
C231   H265    1.086   .     S
C231   C233    1.388   .     A
C232   C318    1.441   .     S
C233   C389    1.441   1_455 S
C234   C236    1.429   .     A
C234   C244    1.452   .     S
C235   C243    1.452   .     S
C235   C237    1.429   .     A
C236   C241    1.436   .     A
C236   C238    1.417   .     A
C237   C242    1.436   .     A
C237   C240    1.417   .     A
C238   C898    1.389   .     S
C239   C250    1.383   .     A
C239   C242    1.410   .     A
C239   H266    1.076   .     S
C240   C899    1.389   1_554 S
C241   C249    1.410   .     A
C241   C890    1.428   .     S
C242   C889    1.428   1_554 S
C243   N274    1.158   .     T
C244   N275    1.158   .     T
C245   N276    1.156   .     T
C245   C305    1.441   .     S
C246   N277    1.156   .     T
C246   C376    1.441   1_455 S
C247   N278    1.158   .     T
C248   N279    1.158   .     T
C249   H267    1.076   .     S
C249   C251    1.383   .     A
C250   H257    1.084   .     S
C250   C886    1.389   1_554 S
C251   H263    1.084   .     S
C251   C888    1.389   .     S
C252   H268    1.083   .     S
C252   C292    1.401   .     S
C253   H269    1.083   .     S
C253   C363    1.401   1_455 S
C253   C434    1.383   .     S
C254   H270    1.082   .     S
C254   C468    1.383   .     S
Cu255  O288    1.959   .     S
Cu255  O285    1.977   .     S
Cu255  O281    1.965   .     S
Cu255  O284    1.965   .     S
Cu255  N271    2.022   .     S
Cu255  Cu400   2.690   1_455 S
Cu256  N273    2.022   .     S
Cu256  O287    1.959   .     S
Cu256  O283    1.965   .     S
Cu256  O282    1.965   .     S
Cu256  O286    1.977   .     S
Cu256  Cu327   2.690   .     S
H259   N280    1.043   .     S
H260   N280    1.045   .     S
H261   N272    1.043   .     S
H262   N272    1.045   .     S
O283   C289    1.295   .     S
O284   C372    1.295   1_455 S
O285   C369    1.309   1_455 S
O286   C298    1.309   .     S
C289   C292    1.451   .     S
C289   O353    1.296   .     A
C290   C292    1.401   .     A
C290   H330    1.082   .     S
C291   C300    1.451   .     S
C291   C326    1.401   .     A
C291   C397    1.401   .     S
C293   N345    1.374   .     A
C293   C295    1.426   .     A
C293   C319    1.442   .     S
C294   C320    1.442   .     S
C294   N343    1.374   .     A
C294   C296    1.426   .     A
C295   N343    1.368   .     A
C295   N352    1.433   .     S
C296   N345    1.368   .     A
C296   N344    1.433   .     S
C297   C299    1.495   .     S
C297   O359    1.300   .     A
C297   O429    1.309   .     S
C298   O360    1.300   .     A
C298   C301    1.495   .     S
C299   C306    1.429   .     A
C299   C304    1.412   .     A
C300   O354    1.296   .     A
C300   O428    1.295   .     S
C301   C305    1.412   .     A
C301   C307    1.429   .     A
C302   C310    1.394   .     A
C302   C304    1.388   .     A
C302   H336    1.086   .     S
C303   C312    1.394   .     A
C303   H337    1.086   .     S
C303   C305    1.388   .     A
C304   C390    1.441   .     S
C306   C308    1.429   .     A
C306   C316    1.452   .     S
C307   C315    1.452   .     S
C307   C309    1.429   .     A
C308   C313    1.436   .     A
C308   C310    1.417   .     A
C309   C314    1.436   .     A
C309   C312    1.417   .     A
C310   C970    1.389   .     S
C311   C322    1.383   .     A
C311   C314    1.410   .     A
C311   H338    1.076   .     S
C312   C971    1.389   1_554 S
C313   C321    1.410   .     A
C313   C962    1.428   .     S
C314   C961    1.428   1_554 S
C315   N346    1.158   .     T
C316   N347    1.158   .     T
C317   N348    1.156   .     T
C317   C377    1.441   .     S
C318   N349    1.156   .     T
C319   N350    1.158   .     T
C320   N351    1.158   .     T
C321   H339    1.076   .     S
C321   C323    1.383   .     A
C322   H329    1.084   .     S
C322   C958    1.389   1_554 S
C323   H335    1.084   .     S
C323   C960    1.389   .     S
C324   H340    1.083   .     S
C324   C364    1.401   .     S
C325   H341    1.083   .     S
C325   C506    1.383   .     S
C326   H342    1.082   .     S
C326   C540    1.383   .     S
Cu327  O360    1.959   .     S
Cu327  O357    1.977   .     S
Cu327  O353    1.965   .     S
Cu327  O356    1.965   .     S
Cu327  N343    2.022   .     S
Cu328  N345    2.022   .     S
Cu328  O359    1.959   .     S
Cu328  O355    1.965   .     S
Cu328  O354    1.965   .     S
Cu328  O358    1.977   .     S
Cu328  Cu399   2.690   .     S
H331   N352    1.043   .     S
H332   N352    1.045   .     S
H333   N344    1.043   .     S
H334   N344    1.045   .     S
O355   C361    1.295   .     S
O358   C370    1.309   .     S
C361   C364    1.451   .     S
C361   O425    1.296   .     A
C362   C364    1.401   .     A
C362   H402    1.082   .     S
C363   C372    1.451   .     S
C363   C398    1.401   .     A
C363   C253    1.401   1_655 S
C365   N417    1.374   .     A
C365   C367    1.426   .     A
C365   C391    1.442   .     S
C366   C392    1.442   .     S
C366   N415    1.374   .     A
C366   C368    1.426   .     A
C367   N415    1.368   .     A
C367   N424    1.433   .     S
C368   N417    1.368   .     A
C368   N416    1.433   .     S
C369   C371    1.495   .     S
C369   O431    1.300   .     A
C369   O285    1.309   1_655 S
C370   O432    1.300   .     A
C370   C373    1.495   .     S
C371   C378    1.429   .     A
C371   C376    1.412   .     A
C372   O426    1.296   .     A
C372   O284    1.295   1_655 S
C373   C377    1.412   .     A
C373   C379    1.429   .     A
C374   C382    1.394   .     A
C374   C376    1.388   .     A
C374   H408    1.086   .     S
C375   C384    1.394   .     A
C375   H409    1.086   .     S
C375   C377    1.388   .     A
C376   C246    1.441   1_655 S
C378   C380    1.429   .     A
C378   C388    1.452   .     S
C379   C387    1.452   .     S
C379   C381    1.429   .     A
C380   C385    1.436   .     A
C380   C382    1.417   .     A
C381   C386    1.436   .     A
C381   C384    1.417   .     A
C382   C1042   1.389   .     S
C383   C394    1.383   .     A
C383   C386    1.410   .     A
C383   H410    1.076   .     S
C384   C1043   1.389   1_554 S
C385   C393    1.410   .     A
C385   C1034   1.428   .     S
C386   C1033   1.428   1_554 S
C387   N418    1.158   .     T
C388   N419    1.158   .     T
C389   N420    1.156   .     T
C389   C233    1.441   1_655 S
C390   N421    1.156   .     T
C391   N422    1.158   .     T
C392   N423    1.158   .     T
C393   H411    1.076   .     S
C393   C395    1.383   .     A
C394   H401    1.084   .     S
C394   C1030   1.389   1_554 S
C395   H407    1.084   .     S
C395   C1032   1.389   .     S
C396   H412    1.083   .     S
C396   C220    1.401   1_655 S
C397   H413    1.083   .     S
C397   C578    1.383   .     S
C398   H414    1.082   .     S
C398   C612    1.383   .     S
Cu399  O432    1.959   .     S
Cu399  O429    1.977   .     S
Cu399  O425    1.965   .     S
Cu399  O428    1.965   .     S
Cu399  N415    2.022   .     S
Cu400  N417    2.022   .     S
Cu400  O431    1.959   .     S
Cu400  O427    1.965   .     S
Cu400  O426    1.965   .     S
Cu400  O430    1.977   .     S
Cu400  Cu255   2.690   1_655 S
H403   N424    1.043   .     S
H404   N424    1.045   .     S
H405   N416    1.043   .     S
H406   N416    1.045   .     S
O427   C217    1.295   1_655 S
O430   C226    1.309   1_655 S
C433   C436    1.451   .     S
C433   O497    1.296   .     A
C433   O643    1.295   1_455 S
C434   C436    1.401   .     A
C434   H474    1.082   .     S
C435   C444    1.451   .     S
C435   C470    1.401   .     A
C435   C541    1.401   .     S
C436   C612    1.401   1_455 S
C437   N489    1.374   .     A
C437   C439    1.426   .     A
C437   C463    1.442   .     S
C438   C464    1.442   .     S
C438   N487    1.374   .     A
C438   C440    1.426   .     A
C439   N487    1.368   .     A
C439   N496    1.433   .     S
C440   N489    1.368   .     A
C440   N488    1.433   .     S
C441   C443    1.495   .     S
C441   O503    1.300   .     A
C441   O573    1.309   .     S
C442   O504    1.300   .     A
C442   C445    1.495   .     S
C442   O646    1.309   1_455 S
C443   C450    1.429   .     A
C443   C448    1.412   .     A
C444   O498    1.296   .     A
C444   O572    1.295   .     S
C445   C449    1.412   .     A
C445   C451    1.429   .     A
C446   C454    1.394   .     A
C446   C448    1.388   .     A
C446   H480    1.086   .     S
C447   C456    1.394   .     A
C447   H481    1.086   .     S
C447   C449    1.388   .     A
C448   C534    1.441   .     S
C449   C605    1.441   1_455 S
C450   C452    1.429   .     A
C450   C460    1.452   .     S
C451   C459    1.452   .     S
C451   C453    1.429   .     A
C452   C457    1.436   .     A
C452   C454    1.417   .     A
C453   C458    1.436   .     A
C453   C456    1.417   .     A
C454   C1114   1.389   .     S
C455   C466    1.383   .     A
C455   C458    1.410   .     A
C455   H482    1.076   .     S
C456   C1115   1.389   1_554 S
C457   C465    1.410   .     A
C457   C1106   1.428   .     S
C458   C1105   1.428   1_554 S
C459   N490    1.158   .     T
C460   N491    1.158   .     T
C461   N492    1.156   .     T
C461   C521    1.441   .     S
C462   N493    1.156   .     T
C462   C592    1.441   1_455 S
C463   N494    1.158   .     T
C464   N495    1.158   .     T
C465   H483    1.076   .     S
C465   C467    1.383   .     A
C466   H473    1.084   .     S
C466   C1102   1.389   1_554 S
C467   H479    1.084   .     S
C467   C1104   1.389   .     S
C468   H484    1.083   .     S
C468   C508    1.401   .     S
C469   H485    1.083   .     S
C469   C579    1.401   1_455 S
C469   C2      1.383   1_565 S
C470   H486    1.082   .     S
C470   C36     1.383   1_565 S
Cu471  O504    1.959   .     S
Cu471  O501    1.977   .     S
Cu471  O497    1.965   .     S
Cu471  O500    1.965   .     S
Cu471  N487    2.022   .     S
Cu471  Cu616   2.690   1_455 S
Cu472  N489    2.022   .     S
Cu472  O503    1.959   .     S
Cu472  O499    1.965   .     S
Cu472  O498    1.965   .     S
Cu472  O502    1.977   .     S
Cu472  Cu543   2.690   .     S
H475   N496    1.043   .     S
H476   N496    1.045   .     S
H477   N488    1.043   .     S
H478   N488    1.045   .     S
O499   C505    1.295   .     S
O500   C588    1.295   1_455 S
O501   C585    1.309   1_455 S
O502   C514    1.309   .     S
C505   C508    1.451   .     S
C505   O569    1.296   .     A
C506   C508    1.401   .     A
C506   H546    1.082   .     S
C507   C516    1.451   .     S
C507   C542    1.401   .     A
C507   C613    1.401   .     S
C509   N561    1.374   .     A
C509   C511    1.426   .     A
C509   C535    1.442   .     S
C510   C536    1.442   .     S
C510   N559    1.374   .     A
C510   C512    1.426   .     A
C511   N559    1.368   .     A
C511   N568    1.433   .     S
C512   N561    1.368   .     A
C512   N560    1.433   .     S
C513   C515    1.495   .     S
C513   O575    1.300   .     A
C513   O645    1.309   .     S
C514   O576    1.300   .     A
C514   C517    1.495   .     S
C515   C522    1.429   .     A
C515   C520    1.412   .     A
C516   O570    1.296   .     A
C516   O644    1.295   .     S
C517   C521    1.412   .     A
C517   C523    1.429   .     A
C518   C526    1.394   .     A
C518   C520    1.388   .     A
C518   H552    1.086   .     S
C519   C528    1.394   .     A
C519   H553    1.086   .     S
C519   C521    1.388   .     A
C520   C606    1.441   .     S
C522   C524    1.429   .     A
C522   C532    1.452   .     S
C523   C531    1.452   .     S
C523   C525    1.429   .     A
C524   C529    1.436   .     A
C524   C526    1.417   .     A
C525   C530    1.436   .     A
C525   C528    1.417   .     A
C526   C1186   1.389   .     S
C527   C538    1.383   .     A
C527   C530    1.410   .     A
C527   H554    1.076   .     S
C528   C1187   1.389   1_554 S
C529   C537    1.410   .     A
C529   C1178   1.428   .     S
C530   C1177   1.428   1_554 S
C531   N562    1.158   .     T
C532   N563    1.158   .     T
C533   N564    1.156   .     T
C533   C593    1.441   .     S
C534   N565    1.156   .     T
C535   N566    1.158   .     T
C536   N567    1.158   .     T
C537   H555    1.076   .     S
C537   C539    1.383   .     A
C538   H545    1.084   .     S
C538   C1174   1.389   1_554 S
C539   H551    1.084   .     S
C539   C1176   1.389   .     S
C540   H556    1.083   .     S
C540   C580    1.401   .     S
C541   H557    1.083   .     S
C541   C74     1.383   1_565 S
C542   H558    1.082   .     S
C542   C108    1.383   1_565 S
Cu543  O576    1.959   .     S
Cu543  O573    1.977   .     S
Cu543  O569    1.965   .     S
Cu543  O572    1.965   .     S
Cu543  N559    2.022   .     S
Cu544  N561    2.022   .     S
Cu544  O575    1.959   .     S
Cu544  O571    1.965   .     S
Cu544  O570    1.965   .     S
Cu544  O574    1.977   .     S
Cu544  Cu615   2.690   .     S
H547   N568    1.043   .     S
H548   N568    1.045   .     S
H549   N560    1.043   .     S
H550   N560    1.045   .     S
O571   C577    1.295   .     S
O574   C586    1.309   .     S
C577   C580    1.451   .     S
C577   O641    1.296   .     A
C578   C580    1.401   .     A
C578   H618    1.082   .     S
C579   C588    1.451   .     S
C579   C614    1.401   .     A
C579   C469    1.401   1_655 S
C581   N633    1.374   .     A
C581   C583    1.426   .     A
C581   C607    1.442   .     S
C582   C608    1.442   .     S
C582   N631    1.374   .     A
C582   C584    1.426   .     A
C583   N631    1.368   .     A
C583   N640    1.433   .     S
C584   N633    1.368   .     A
C584   N632    1.433   .     S
C585   C587    1.495   .     S
C585   O647    1.300   .     A
C585   O501    1.309   1_655 S
C586   O648    1.300   .     A
C586   C589    1.495   .     S
C587   C594    1.429   .     A
C587   C592    1.412   .     A
C588   O642    1.296   .     A
C588   O500    1.295   1_655 S
C589   C593    1.412   .     A
C589   C595    1.429   .     A
C590   C598    1.394   .     A
C590   C592    1.388   .     A
C590   H624    1.086   .     S
C591   C600    1.394   .     A
C591   H625    1.086   .     S
C591   C593    1.388   .     A
C592   C462    1.441   1_655 S
C594   C596    1.429   .     A
C594   C604    1.452   .     S
C595   C603    1.452   .     S
C595   C597    1.429   .     A
C596   C601    1.436   .     A
C596   C598    1.417   .     A
C597   C602    1.436   .     A
C597   C600    1.417   .     A
C598   C1258   1.389   .     S
C599   C610    1.383   .     A
C599   C602    1.410   .     A
C599   H626    1.076   .     S
C600   C1259   1.389   1_554 S
C601   C609    1.410   .     A
C601   C1250   1.428   .     S
C602   C1249   1.428   1_554 S
C603   N634    1.158   .     T
C604   N635    1.158   .     T
C605   N636    1.156   .     T
C605   C449    1.441   1_655 S
C606   N637    1.156   .     T
C607   N638    1.158   .     T
C608   N639    1.158   .     T
C609   H627    1.076   .     S
C609   C611    1.383   .     A
C610   H617    1.084   .     S
C610   C1246   1.389   1_554 S
C611   H623    1.084   .     S
C611   C1248   1.389   .     S
C612   H628    1.083   .     S
C612   C436    1.401   1_655 S
C613   H629    1.083   .     S
C613   C146    1.383   1_565 S
C614   H630    1.082   .     S
C614   C180    1.383   1_565 S
Cu615  O648    1.959   .     S
Cu615  O645    1.977   .     S
Cu615  O641    1.965   .     S
Cu615  O644    1.965   .     S
Cu615  N631    2.022   .     S
Cu616  N633    2.022   .     S
Cu616  O647    1.959   .     S
Cu616  O643    1.965   .     S
Cu616  O642    1.965   .     S
Cu616  O646    1.977   .     S
Cu616  Cu471   2.690   1_655 S
H619   N640    1.043   .     S
H620   N640    1.045   .     S
H621   N632    1.043   .     S
H622   N632    1.045   .     S
O643   C433    1.295   1_655 S
O646   C442    1.309   1_655 S
C649   C652    1.451   .     S
C649   O713    1.296   .     A
C649   O859    1.295   1_455 S
C650   C652    1.401   .     A
C650   H690    1.082   .     S
C650   C1117   1.383   1_545 S
C651   C660    1.451   .     S
C651   C686    1.401   .     A
C651   C757    1.401   .     S
C652   C828    1.401   1_455 S
C653   N705    1.374   .     A
C653   C655    1.426   .     A
C653   C679    1.442   .     S
C654   C680    1.442   .     S
C654   N703    1.374   .     A
C654   C656    1.426   .     A
C655   N703    1.368   .     A
C655   N712    1.433   .     S
C656   N705    1.368   .     A
C656   N704    1.433   .     S
C657   C659    1.495   .     S
C657   O719    1.300   .     A
C657   O789    1.309   .     S
C658   O720    1.300   .     A
C658   C661    1.495   .     S
C658   O862    1.309   1_455 S
C659   C666    1.429   .     A
C659   C664    1.412   .     A
C660   O714    1.296   .     A
C660   O788    1.295   .     S
C661   C665    1.412   .     A
C661   C667    1.429   .     A
C662   C670    1.394   .     A
C662   C664    1.388   .     A
C662   H696    1.086   .     S
C663   C672    1.394   .     A
C663   H697    1.086   .     S
C663   C665    1.388   .     A
C664   C750    1.441   .     S
C665   C821    1.441   1_455 S
C666   C668    1.429   .     A
C666   C676    1.452   .     S
C667   C675    1.452   .     S
C667   C669    1.429   .     A
C668   C673    1.436   .     A
C668   C670    1.417   .     A
C669   C674    1.436   .     A
C669   C672    1.417   .     A
C670   C34     1.389   1_556 S
C671   C682    1.383   .     A
C671   C674    1.410   .     A
C671   H698    1.076   .     S
C673   C681    1.410   .     A
C673   C26     1.428   1_556 S
C675   N706    1.158   .     T
C676   N707    1.158   .     T
C677   N708    1.156   .     T
C677   C737    1.441   .     S
C678   N709    1.156   .     T
C678   C808    1.441   1_455 S
C679   N710    1.158   .     T
C680   N711    1.158   .     T
C681   H699    1.076   .     S
C681   C683    1.383   .     A
C682   H689    1.084   .     S
C683   H695    1.084   .     S
C683   C24     1.389   1_556 S
C684   H700    1.083   .     S
C684   C724    1.401   .     S
C684   C1118   1.383   1_545 S
C685   H701    1.083   .     S
C685   C795    1.401   1_455 S
C685   C866    1.383   .     S
C686   H702    1.082   .     S
C686   C900    1.383   .     S
Cu687  O720    1.959   .     S
Cu687  O717    1.977   .     S
Cu687  O713    1.965   .     S
Cu687  O716    1.965   .     S
Cu687  N703    2.022   .     S
Cu687  Cu832   2.690   1_455 S
Cu688  N705    2.022   .     S
Cu688  O719    1.959   .     S
Cu688  O715    1.965   .     S
Cu688  O714    1.965   .     S
Cu688  O718    1.977   .     S
Cu688  Cu759   2.690   .     S
H691   N712    1.043   .     S
H692   N712    1.045   .     S
H693   N704    1.043   .     S
H694   N704    1.045   .     S
O715   C721    1.295   .     S
O716   C804    1.295   1_455 S
O717   C801    1.309   1_455 S
O718   C730    1.309   .     S
C721   C724    1.451   .     S
C721   O785    1.296   .     A
C722   C724    1.401   .     A
C722   H762    1.082   .     S
C722   C1189   1.383   1_545 S
C723   C732    1.451   .     S
C723   C758    1.401   .     A
C723   C829    1.401   .     S
C725   N777    1.374   .     A
C725   C727    1.426   .     A
C725   C751    1.442   .     S
C726   C752    1.442   .     S
C726   N775    1.374   .     A
C726   C728    1.426   .     A
C727   N775    1.368   .     A
C727   N784    1.433   .     S
C728   N777    1.368   .     A
C728   N776    1.433   .     S
C729   C731    1.495   .     S
C729   O791    1.300   .     A
C729   O861    1.309   .     S
C730   O792    1.300   .     A
C730   C733    1.495   .     S
C731   C738    1.429   .     A
C731   C736    1.412   .     A
C732   O786    1.296   .     A
C732   O860    1.295   .     S
C733   C737    1.412   .     A
C733   C739    1.429   .     A
C734   C742    1.394   .     A
C734   C736    1.388   .     A
C734   H768    1.086   .     S
C735   C744    1.394   .     A
C735   H769    1.086   .     S
C735   C737    1.388   .     A
C736   C822    1.441   .     S
C738   C740    1.429   .     A
C738   C748    1.452   .     S
C739   C747    1.452   .     S
C739   C741    1.429   .     A
C740   C745    1.436   .     A
C740   C742    1.417   .     A
C741   C746    1.436   .     A
C741   C744    1.417   .     A
C742   C106    1.389   1_556 S
C743   C754    1.383   .     A
C743   C746    1.410   .     A
C743   H770    1.076   .     S
C745   C753    1.410   .     A
C745   C98     1.428   1_556 S
C747   N778    1.158   .     T
C748   N779    1.158   .     T
C749   N780    1.156   .     T
C749   C809    1.441   .     S
C750   N781    1.156   .     T
C751   N782    1.158   .     T
C752   N783    1.158   .     T
C753   H771    1.076   .     S
C753   C755    1.383   .     A
C754   H761    1.084   .     S
C755   H767    1.084   .     S
C755   C96     1.389   1_556 S
C756   H772    1.083   .     S
C756   C796    1.401   .     S
C756   C1190   1.383   1_545 S
C757   H773    1.083   .     S
C757   C938    1.383   .     S
C758   H774    1.082   .     S
C758   C972    1.383   .     S
Cu759  O792    1.959   .     S
Cu759  O789    1.977   .     S
Cu759  O785    1.965   .     S
Cu759  O788    1.965   .     S
Cu759  N775    2.022   .     S
Cu760  N777    2.022   .     S
Cu760  O791    1.959   .     S
Cu760  O787    1.965   .     S
Cu760  O786    1.965   .     S
Cu760  O790    1.977   .     S
Cu760  Cu831   2.690   .     S
H763   N784    1.043   .     S
H764   N784    1.045   .     S
H765   N776    1.043   .     S
H766   N776    1.045   .     S
O787   C793    1.295   .     S
O790   C802    1.309   .     S
C793   C796    1.451   .     S
C793   O857    1.296   .     A
C794   C796    1.401   .     A
C794   H834    1.082   .     S
C794   C1261   1.383   1_545 S
C795   C804    1.451   .     S
C795   C830    1.401   .     A
C795   C685    1.401   1_655 S
C797   N849    1.374   .     A
C797   C799    1.426   .     A
C797   C823    1.442   .     S
C798   C824    1.442   .     S
C798   N847    1.374   .     A
C798   C800    1.426   .     A
C799   N847    1.368   .     A
C799   N856    1.433   .     S
C800   N849    1.368   .     A
C800   N848    1.433   .     S
C801   C803    1.495   .     S
C801   O863    1.300   .     A
C801   O717    1.309   1_655 S
C802   O864    1.300   .     A
C802   C805    1.495   .     S
C803   C810    1.429   .     A
C803   C808    1.412   .     A
C804   O858    1.296   .     A
C804   O716    1.295   1_655 S
C805   C809    1.412   .     A
C805   C811    1.429   .     A
C806   C814    1.394   .     A
C806   C808    1.388   .     A
C806   H840    1.086   .     S
C807   C816    1.394   .     A
C807   H841    1.086   .     S
C807   C809    1.388   .     A
C808   C678    1.441   1_655 S
C810   C812    1.429   .     A
C810   C820    1.452   .     S
C811   C819    1.452   .     S
C811   C813    1.429   .     A
C812   C817    1.436   .     A
C812   C814    1.417   .     A
C813   C818    1.436   .     A
C813   C816    1.417   .     A
C814   C178    1.389   1_556 S
C815   C826    1.383   .     A
C815   C818    1.410   .     A
C815   H842    1.076   .     S
C817   C825    1.410   .     A
C817   C170    1.428   1_556 S
C819   N850    1.158   .     T
C820   N851    1.158   .     T
C821   N852    1.156   .     T
C821   C665    1.441   1_655 S
C822   N853    1.156   .     T
C823   N854    1.158   .     T
C824   N855    1.158   .     T
C825   H843    1.076   .     S
C825   C827    1.383   .     A
C826   H833    1.084   .     S
C827   H839    1.084   .     S
C827   C168    1.389   1_556 S
C828   H844    1.083   .     S
C828   C652    1.401   1_655 S
C828   C1262   1.383   1_545 S
C829   H845    1.083   .     S
C829   C1010   1.383   .     S
C830   H846    1.082   .     S
C830   C1044   1.383   .     S
Cu831  O864    1.959   .     S
Cu831  O861    1.977   .     S
Cu831  O857    1.965   .     S
Cu831  O860    1.965   .     S
Cu831  N847    2.022   .     S
Cu832  N849    2.022   .     S
Cu832  O863    1.959   .     S
Cu832  O859    1.965   .     S
Cu832  O858    1.965   .     S
Cu832  O862    1.977   .     S
Cu832  Cu687   2.690   1_655 S
H835   N856    1.043   .     S
H836   N856    1.045   .     S
H837   N848    1.043   .     S
H838   N848    1.045   .     S
O859   C649    1.295   1_655 S
O862   C658    1.309   1_655 S
C865   C868    1.451   .     S
C865   O929    1.296   .     A
C865   O1075   1.295   1_455 S
C866   C868    1.401   .     A
C866   H906    1.082   .     S
C867   C876    1.451   .     S
C867   C902    1.401   .     A
C867   C973    1.401   .     S
C868   C1044   1.401   1_455 S
C869   N921    1.374   .     A
C869   C871    1.426   .     A
C869   C895    1.442   .     S
C870   C896    1.442   .     S
C870   N919    1.374   .     A
C870   C872    1.426   .     A
C871   N919    1.368   .     A
C871   N928    1.433   .     S
C872   N921    1.368   .     A
C872   N920    1.433   .     S
C873   C875    1.495   .     S
C873   O935    1.300   .     A
C873   O1005   1.309   .     S
C874   O936    1.300   .     A
C874   C877    1.495   .     S
C874   O1078   1.309   1_455 S
C875   C882    1.429   .     A
C875   C880    1.412   .     A
C876   O930    1.296   .     A
C876   O1004   1.295   .     S
C877   C881    1.412   .     A
C877   C883    1.429   .     A
C878   C886    1.394   .     A
C878   C880    1.388   .     A
C878   H912    1.086   .     S
C879   C888    1.394   .     A
C879   H913    1.086   .     S
C879   C881    1.388   .     A
C880   C966    1.441   .     S
C881   C1037   1.441   1_455 S
C882   C884    1.429   .     A
C882   C892    1.452   .     S
C883   C891    1.452   .     S
C883   C885    1.429   .     A
C884   C889    1.436   .     A
C884   C886    1.417   .     A
C885   C890    1.436   .     A
C885   C888    1.417   .     A
C886   C250    1.389   1_556 S
C887   C898    1.383   .     A
C887   C890    1.410   .     A
C887   H914    1.076   .     S
C889   C897    1.410   .     A
C889   C242    1.428   1_556 S
C891   N922    1.158   .     T
C892   N923    1.158   .     T
C893   N924    1.156   .     T
C893   C953    1.441   .     S
C894   N925    1.156   .     T
C894   C1024   1.441   1_455 S
C895   N926    1.158   .     T
C896   N927    1.158   .     T
C897   H915    1.076   .     S
C897   C899    1.383   .     A
C898   H905    1.084   .     S
C899   H911    1.084   .     S
C899   C240    1.389   1_556 S
C900   H916    1.083   .     S
C900   C940    1.401   .     S
C901   H917    1.083   .     S
C901   C1011   1.401   1_455 S
C901   C1082   1.383   .     S
C902   H918    1.082   .     S
C902   C1116   1.383   .     S
Cu903  O936    1.959   .     S
Cu903  O933    1.977   .     S
Cu903  O929    1.965   .     S
Cu903  O932    1.965   .     S
Cu903  N919    2.022   .     S
Cu903  Cu1048  2.690   1_455 S
Cu904  N921    2.022   .     S
Cu904  O935    1.959   .     S
Cu904  O931    1.965   .     S
Cu904  O930    1.965   .     S
Cu904  O934    1.977   .     S
Cu904  Cu975   2.690   .     S
H907   N928    1.043   .     S
H908   N928    1.045   .     S
H909   N920    1.043   .     S
H910   N920    1.045   .     S
O931   C937    1.295   .     S
O932   C1020   1.295   1_455 S
O933   C1017   1.309   1_455 S
O934   C946    1.309   .     S
C937   C940    1.451   .     S
C937   O1001   1.296   .     A
C938   C940    1.401   .     A
C938   H978    1.082   .     S
C939   C948    1.451   .     S
C939   C974    1.401   .     A
C939   C1045   1.401   .     S
C941   N993    1.374   .     A
C941   C943    1.426   .     A
C941   C967    1.442   .     S
C942   C968    1.442   .     S
C942   N991    1.374   .     A
C942   C944    1.426   .     A
C943   N991    1.368   .     A
C943   N1000   1.433   .     S
C944   N993    1.368   .     A
C944   N992    1.433   .     S
C945   C947    1.495   .     S
C945   O1007   1.300   .     A
C945   O1077   1.309   .     S
C946   O1008   1.300   .     A
C946   C949    1.495   .     S
C947   C954    1.429   .     A
C947   C952    1.412   .     A
C948   O1002   1.296   .     A
C948   O1076   1.295   .     S
C949   C953    1.412   .     A
C949   C955    1.429   .     A
C950   C958    1.394   .     A
C950   C952    1.388   .     A
C950   H984    1.086   .     S
C951   C960    1.394   .     A
C951   H985    1.086   .     S
C951   C953    1.388   .     A
C952   C1038   1.441   .     S
C954   C956    1.429   .     A
C954   C964    1.452   .     S
C955   C963    1.452   .     S
C955   C957    1.429   .     A
C956   C961    1.436   .     A
C956   C958    1.417   .     A
C957   C962    1.436   .     A
C957   C960    1.417   .     A
C958   C322    1.389   1_556 S
C959   C970    1.383   .     A
C959   C962    1.410   .     A
C959   H986    1.076   .     S
C961   C969    1.410   .     A
C961   C314    1.428   1_556 S
C963   N994    1.158   .     T
C964   N995    1.158   .     T
C965   N996    1.156   .     T
C965   C1025   1.441   .     S
C966   N997    1.156   .     T
C967   N998    1.158   .     T
C968   N999    1.158   .     T
C969   H987    1.076   .     S
C969   C971    1.383   .     A
C970   H977    1.084   .     S
C971   H983    1.084   .     S
C971   C312    1.389   1_556 S
C972   H988    1.083   .     S
C972   C1012   1.401   .     S
C973   H989    1.083   .     S
C973   C1154   1.383   .     S
C974   H990    1.082   .     S
C974   C1188   1.383   .     S
Cu975  O1008   1.959   .     S
Cu975  O1005   1.977   .     S
Cu975  O1001   1.965   .     S
Cu975  O1004   1.965   .     S
Cu975  N991    2.022   .     S
Cu976  N993    2.022   .     S
Cu976  O1007   1.959   .     S
Cu976  O1003   1.965   .     S
Cu976  O1002   1.965   .     S
Cu976  O1006   1.977   .     S
Cu976  Cu1047  2.690   .     S
H979   N1000   1.043   .     S
H980   N1000   1.045   .     S
H981   N992    1.043   .     S
H982   N992    1.045   .     S
O1003  C1009   1.295   .     S
O1006  C1018   1.309   .     S
C1009  C1012   1.451   .     S
C1009  O1073   1.296   .     A
C1010  C1012   1.401   .     A
C1010  H1050   1.082   .     S
C1011  C1020   1.451   .     S
C1011  C1046   1.401   .     A
C1011  C901    1.401   1_655 S
C1013  N1065   1.374   .     A
C1013  C1015   1.426   .     A
C1013  C1039   1.442   .     S
C1014  C1040   1.442   .     S
C1014  N1063   1.374   .     A
C1014  C1016   1.426   .     A
C1015  N1063   1.368   .     A
C1015  N1072   1.433   .     S
C1016  N1065   1.368   .     A
C1016  N1064   1.433   .     S
C1017  C1019   1.495   .     S
C1017  O1079   1.300   .     A
C1017  O933    1.309   1_655 S
C1018  O1080   1.300   .     A
C1018  C1021   1.495   .     S
C1019  C1026   1.429   .     A
C1019  C1024   1.412   .     A
C1020  O1074   1.296   .     A
C1020  O932    1.295   1_655 S
C1021  C1025   1.412   .     A
C1021  C1027   1.429   .     A
C1022  C1030   1.394   .     A
C1022  C1024   1.388   .     A
C1022  H1056   1.086   .     S
C1023  C1032   1.394   .     A
C1023  H1057   1.086   .     S
C1023  C1025   1.388   .     A
C1024  C894    1.441   1_655 S
C1026  C1028   1.429   .     A
C1026  C1036   1.452   .     S
C1027  C1035   1.452   .     S
C1027  C1029   1.429   .     A
C1028  C1033   1.436   .     A
C1028  C1030   1.417   .     A
C1029  C1034   1.436   .     A
C1029  C1032   1.417   .     A
C1030  C394    1.389   1_556 S
C1031  C1042   1.383   .     A
C1031  C1034   1.410   .     A
C1031  H1058   1.076   .     S
C1033  C1041   1.410   .     A
C1033  C386    1.428   1_556 S
C1035  N1066   1.158   .     T
C1036  N1067   1.158   .     T
C1037  N1068   1.156   .     T
C1037  C881    1.441   1_655 S
C1038  N1069   1.156   .     T
C1039  N1070   1.158   .     T
C1040  N1071   1.158   .     T
C1041  H1059   1.076   .     S
C1041  C1043   1.383   .     A
C1042  H1049   1.084   .     S
C1043  H1055   1.084   .     S
C1043  C384    1.389   1_556 S
C1044  H1060   1.083   .     S
C1044  C868    1.401   1_655 S
C1045  H1061   1.083   .     S
C1045  C1226   1.383   .     S
C1046  H1062   1.082   .     S
C1046  C1260   1.383   .     S
Cu1047 O1080   1.959   .     S
Cu1047 O1077   1.977   .     S
Cu1047 O1073   1.965   .     S
Cu1047 O1076   1.965   .     S
Cu1047 N1063   2.022   .     S
Cu1048 N1065   2.022   .     S
Cu1048 O1079   1.959   .     S
Cu1048 O1075   1.965   .     S
Cu1048 O1074   1.965   .     S
Cu1048 O1078   1.977   .     S
Cu1048 Cu903   2.690   1_655 S
H1051  N1072   1.043   .     S
H1052  N1072   1.045   .     S
H1053  N1064   1.043   .     S
H1054  N1064   1.045   .     S
O1075  C865    1.295   1_655 S
O1078  C874    1.309   1_655 S
C1081  C1084   1.451   .     S
C1081  O1145   1.296   .     A
C1081  O1291   1.295   1_455 S
C1082  C1084   1.401   .     A
C1082  H1122   1.082   .     S
C1083  C1092   1.451   .     S
C1083  C1118   1.401   .     A
C1083  C1189   1.401   .     S
C1084  C1260   1.401   1_455 S
C1085  N1137   1.374   .     A
C1085  C1087   1.426   .     A
C1085  C1111   1.442   .     S
C1086  C1112   1.442   .     S
C1086  N1135   1.374   .     A
C1086  C1088   1.426   .     A
C1087  N1135   1.368   .     A
C1087  N1144   1.433   .     S
C1088  N1137   1.368   .     A
C1088  N1136   1.433   .     S
C1089  C1091   1.495   .     S
C1089  O1151   1.300   .     A
C1089  O1221   1.309   .     S
C1090  O1152   1.300   .     A
C1090  C1093   1.495   .     S
C1090  O1294   1.309   1_455 S
C1091  C1098   1.429   .     A
C1091  C1096   1.412   .     A
C1092  O1146   1.296   .     A
C1092  O1220   1.295   .     S
C1093  C1097   1.412   .     A
C1093  C1099   1.429   .     A
C1094  C1102   1.394   .     A
C1094  C1096   1.388   .     A
C1094  H1128   1.086   .     S
C1095  C1104   1.394   .     A
C1095  H1129   1.086   .     S
C1095  C1097   1.388   .     A
C1096  C1182   1.441   .     S
C1097  C1253   1.441   1_455 S
C1098  C1100   1.429   .     A
C1098  C1108   1.452   .     S
C1099  C1107   1.452   .     S
C1099  C1101   1.429   .     A
C1100  C1105   1.436   .     A
C1100  C1102   1.417   .     A
C1101  C1106   1.436   .     A
C1101  C1104   1.417   .     A
C1102  C466    1.389   1_556 S
C1103  C1114   1.383   .     A
C1103  C1106   1.410   .     A
C1103  H1130   1.076   .     S
C1105  C1113   1.410   .     A
C1105  C458    1.428   1_556 S
C1107  N1138   1.158   .     T
C1108  N1139   1.158   .     T
C1109  N1140   1.156   .     T
C1109  C1169   1.441   .     S
C1110  N1141   1.156   .     T
C1110  C1240   1.441   1_455 S
C1111  N1142   1.158   .     T
C1112  N1143   1.158   .     T
C1113  H1131   1.076   .     S
C1113  C1115   1.383   .     A
C1114  H1121   1.084   .     S
C1115  H1127   1.084   .     S
C1115  C456    1.389   1_556 S
C1116  H1132   1.083   .     S
C1116  C1156   1.401   .     S
C1117  H1133   1.083   .     S
C1117  C1227   1.401   1_455 S
C1117  C650    1.383   1_565 S
C1118  H1134   1.082   .     S
C1118  C684    1.383   1_565 S
Cu1119 O1152   1.959   .     S
Cu1119 O1149   1.977   .     S
Cu1119 O1145   1.965   .     S
Cu1119 O1148   1.965   .     S
Cu1119 N1135   2.022   .     S
Cu1119 Cu1264  2.690   1_455 S
Cu1120 N1137   2.022   .     S
Cu1120 O1151   1.959   .     S
Cu1120 O1147   1.965   .     S
Cu1120 O1146   1.965   .     S
Cu1120 O1150   1.977   .     S
Cu1120 Cu1191  2.690   .     S
H1123  N1144   1.043   .     S
H1124  N1144   1.045   .     S
H1125  N1136   1.043   .     S
H1126  N1136   1.045   .     S
O1147  C1153   1.295   .     S
O1148  C1236   1.295   1_455 S
O1149  C1233   1.309   1_455 S
O1150  C1162   1.309   .     S
C1153  C1156   1.451   .     S
C1153  O1217   1.296   .     A
C1154  C1156   1.401   .     A
C1154  H1194   1.082   .     S
C1155  C1164   1.451   .     S
C1155  C1190   1.401   .     A
C1155  C1261   1.401   .     S
C1157  N1209   1.374   .     A
C1157  C1159   1.426   .     A
C1157  C1183   1.442   .     S
C1158  C1184   1.442   .     S
C1158  N1207   1.374   .     A
C1158  C1160   1.426   .     A
C1159  N1207   1.368   .     A
C1159  N1216   1.433   .     S
C1160  N1209   1.368   .     A
C1160  N1208   1.433   .     S
C1161  C1163   1.495   .     S
C1161  O1223   1.300   .     A
C1161  O1293   1.309   .     S
C1162  O1224   1.300   .     A
C1162  C1165   1.495   .     S
C1163  C1170   1.429   .     A
C1163  C1168   1.412   .     A
C1164  O1218   1.296   .     A
C1164  O1292   1.295   .     S
C1165  C1169   1.412   .     A
C1165  C1171   1.429   .     A
C1166  C1174   1.394   .     A
C1166  C1168   1.388   .     A
C1166  H1200   1.086   .     S
C1167  C1176   1.394   .     A
C1167  H1201   1.086   .     S
C1167  C1169   1.388   .     A
C1168  C1254   1.441   .     S
C1170  C1172   1.429   .     A
C1170  C1180   1.452   .     S
C1171  C1179   1.452   .     S
C1171  C1173   1.429   .     A
C1172  C1177   1.436   .     A
C1172  C1174   1.417   .     A
C1173  C1178   1.436   .     A
C1173  C1176   1.417   .     A
C1174  C538    1.389   1_556 S
C1175  C1186   1.383   .     A
C1175  C1178   1.410   .     A
C1175  H1202   1.076   .     S
C1177  C1185   1.410   .     A
C1177  C530    1.428   1_556 S
C1179  N1210   1.158   .     T
C1180  N1211   1.158   .     T
C1181  N1212   1.156   .     T
C1181  C1241   1.441   .     S
C1182  N1213   1.156   .     T
C1183  N1214   1.158   .     T
C1184  N1215   1.158   .     T
C1185  H1203   1.076   .     S
C1185  C1187   1.383   .     A
C1186  H1193   1.084   .     S
C1187  H1199   1.084   .     S
C1187  C528    1.389   1_556 S
C1188  H1204   1.083   .     S
C1188  C1228   1.401   .     S
C1189  H1205   1.083   .     S
C1189  C722    1.383   1_565 S
C1190  H1206   1.082   .     S
C1190  C756    1.383   1_565 S
Cu1191 O1224   1.959   .     S
Cu1191 O1221   1.977   .     S
Cu1191 O1217   1.965   .     S
Cu1191 O1220   1.965   .     S
Cu1191 N1207   2.022   .     S
Cu1192 N1209   2.022   .     S
Cu1192 O1223   1.959   .     S
Cu1192 O1219   1.965   .     S
Cu1192 O1218   1.965   .     S
Cu1192 O1222   1.977   .     S
Cu1192 Cu1263  2.690   .     S
H1195  N1216   1.043   .     S
H1196  N1216   1.045   .     S
H1197  N1208   1.043   .     S
H1198  N1208   1.045   .     S
O1219  C1225   1.295   .     S
O1222  C1234   1.309   .     S
C1225  C1228   1.451   .     S
C1225  O1289   1.296   .     A
C1226  C1228   1.401   .     A
C1226  H1266   1.082   .     S
C1227  C1236   1.451   .     S
C1227  C1262   1.401   .     A
C1227  C1117   1.401   1_655 S
C1229  N1281   1.374   .     A
C1229  C1231   1.426   .     A
C1229  C1255   1.442   .     S
C1230  C1256   1.442   .     S
C1230  N1279   1.374   .     A
C1230  C1232   1.426   .     A
C1231  N1279   1.368   .     A
C1231  N1288   1.433   .     S
C1232  N1281   1.368   .     A
C1232  N1280   1.433   .     S
C1233  C1235   1.495   .     S
C1233  O1295   1.300   .     A
C1233  O1149   1.309   1_655 S
C1234  O1296   1.300   .     A
C1234  C1237   1.495   .     S
C1235  C1242   1.429   .     A
C1235  C1240   1.412   .     A
C1236  O1290   1.296   .     A
C1236  O1148   1.295   1_655 S
C1237  C1241   1.412   .     A
C1237  C1243   1.429   .     A
C1238  C1246   1.394   .     A
C1238  C1240   1.388   .     A
C1238  H1272   1.086   .     S
C1239  C1248   1.394   .     A
C1239  H1273   1.086   .     S
C1239  C1241   1.388   .     A
C1240  C1110   1.441   1_655 S
C1242  C1244   1.429   .     A
C1242  C1252   1.452   .     S
C1243  C1251   1.452   .     S
C1243  C1245   1.429   .     A
C1244  C1249   1.436   .     A
C1244  C1246   1.417   .     A
C1245  C1250   1.436   .     A
C1245  C1248   1.417   .     A
C1246  C610    1.389   1_556 S
C1247  C1258   1.383   .     A
C1247  C1250   1.410   .     A
C1247  H1274   1.076   .     S
C1249  C1257   1.410   .     A
C1249  C602    1.428   1_556 S
C1251  N1282   1.158   .     T
C1252  N1283   1.158   .     T
C1253  N1284   1.156   .     T
C1253  C1097   1.441   1_655 S
C1254  N1285   1.156   .     T
C1255  N1286   1.158   .     T
C1256  N1287   1.158   .     T
C1257  H1275   1.076   .     S
C1257  C1259   1.383   .     A
C1258  H1265   1.084   .     S
C1259  H1271   1.084   .     S
C1259  C600    1.389   1_556 S
C1260  H1276   1.083   .     S
C1260  C1084   1.401   1_655 S
C1261  H1277   1.083   .     S
C1261  C794    1.383   1_565 S
C1262  H1278   1.082   .     S
C1262  C828    1.383   1_565 S
Cu1263 O1296   1.959   .     S
Cu1263 O1293   1.977   .     S
Cu1263 O1289   1.965   .     S
Cu1263 O1292   1.965   .     S
Cu1263 N1279   2.022   .     S
Cu1264 N1281   2.022   .     S
Cu1264 O1295   1.959   .     S
Cu1264 O1291   1.965   .     S
Cu1264 O1290   1.965   .     S
Cu1264 O1294   1.977   .     S
Cu1264 Cu1119  2.690   1_655 S
H1267  N1288   1.043   .     S
H1268  N1288   1.045   .     S
H1269  N1280   1.043   .     S
H1270  N1280   1.045   .     S
O1291  C1081   1.295   1_655 S
O1294  C1090   1.309   1_655 S
