data_str_m3_o1_o10_pcu_sym.121
_audit_creation_date              2020-01-03
_audit_creation_method            'Materials Studio'
_symmetry_space_group_name_H-M    'P1'
_symmetry_Int_Tables_number       1
_symmetry_cell_setting            triclinic
loop_
_symmetry_equiv_pos_as_xyz
  x,y,z
_cell_length_a                    25.8476
_cell_length_b                    32.0578
_cell_length_c                    29.5625
_cell_angle_alpha                 89.7541
_cell_angle_beta                  97.9812
_cell_angle_gamma                 90.1813
loop_
_atom_site_label
_atom_site_type_symbol
_atom_site_fract_x
_atom_site_fract_y
_atom_site_fract_z
_atom_site_U_iso_or_equiv
_atom_site_adp_type
_atom_site_occupancy
C1     C     0.16706   0.08668   0.16680   0.00000  Uiso   1.00
C2     C     0.16627   0.24665   0.16653   0.00000  Uiso   1.00
C3     C     0.06727   0.16612   0.15507   0.00000  Uiso   1.00
C4     C     0.26607   0.16720   0.17826   0.00000  Uiso   1.00
C5     C     0.01341   0.15811   0.15089   0.00000  Uiso   1.00
C6     C     0.31993   0.17521   0.18244   0.00000  Uiso   1.00
C7     C     0.14272   0.02182   0.12834   0.00000  Uiso   1.00
C8     C     0.19062   0.31151   0.20499   0.00000  Uiso   1.00
C9     C     0.14210   0.31238   0.12795   0.00000  Uiso   1.00
C10    C     0.19123   0.02095   0.20539   0.00000  Uiso   1.00
C11    C     0.16619   0.29078   0.16636   0.00000  Uiso   1.00
C12    C     0.16714   0.04255   0.16697   0.00000  Uiso   1.00
C13    C     0.19968   0.19222   0.02781   0.00000  Uiso   1.00
C14    C     0.13365   0.14111   0.30552   0.00000  Uiso   1.00
C15    C     0.19964   0.19220   0.31321   0.00000  Uiso   1.00
C16    C     0.13370   0.14114   0.02013   0.00000  Uiso   1.00
H17    H     0.12353   0.03870   0.09887   0.00000  Uiso   1.00
H18    H     0.20980   0.29463   0.23446   0.00000  Uiso   1.00
H19    H     0.22599   0.21261   0.29810   0.00000  Uiso   1.00
H20    H     0.10735   0.12072   0.03523   0.00000  Uiso   1.00
N21    N     0.16665   0.16666   0.28573   0.00000  Uiso   1.00
N22    N     0.16668   0.16668   0.04760   0.00000  Uiso   1.00
O23    O     0.16666   0.10558   0.20487   0.00000  Uiso   1.00
O24    O     0.16667   0.22775   0.12846   0.00000  Uiso   1.00
O25    O     0.16666   0.10559   0.12843   0.00000  Uiso   1.00
O26    O     0.16667   0.22774   0.20490   0.00000  Uiso   1.00
O27    O     0.09058   0.16666   0.19595   0.00000  Uiso   1.00
O28    O     0.24275   0.16667   0.13739   0.00000  Uiso   1.00
O29    O     0.09058   0.16667   0.11950   0.00000  Uiso   1.00
O30    O     0.24275   0.16666   0.21383   0.00000  Uiso   1.00
Zn31   Zn    0.16667   0.16666   0.21771   0.00000  Uiso   1.00
Zn32   Zn    0.16667   0.16667   0.11563   0.00000  Uiso   1.00
C33    C     0.32779   0.12350   0.11888   0.00000  Uiso   1.00
H34    H     0.01043   0.12015   0.08701   0.00000  Uiso   1.00
O35    O     0.29706   0.09715   0.12896   0.00000  Uiso   1.00
C36    C     0.00555   0.20981   0.21446   0.00000  Uiso   1.00
H37    H     0.32298   0.21312   0.24637   0.00000  Uiso   1.00
O38    O     0.03620   0.23620   0.20432   0.00000  Uiso   1.00
F39    F     0.11706   0.29230   0.09079   0.00000  Uiso   1.00
F40    F     0.21627   0.04103   0.24254   0.00000  Uiso   1.00
F41    F     0.23279   0.21788   0.05427   0.00000  Uiso   1.00
F42    F     0.10054   0.11545   0.27906   0.00000  Uiso   1.00
C43    C     0.50039   0.08668   0.16680   0.00000  Uiso   1.00
C44    C     0.49961   0.24665   0.16653   0.00000  Uiso   1.00
C45    C     0.40060   0.16612   0.15507   0.00000  Uiso   1.00
C46    C     0.59940   0.16720   0.17826   0.00000  Uiso   1.00
C47    C     0.34674   0.15811   0.15089   0.00000  Uiso   1.00
C48    C     0.65326   0.17521   0.18244   0.00000  Uiso   1.00
C49    C     0.47605   0.02182   0.12834   0.00000  Uiso   1.00
C50    C     0.52395   0.31151   0.20499   0.00000  Uiso   1.00
C51    C     0.47544   0.31238   0.12795   0.00000  Uiso   1.00
C52    C     0.52456   0.02095   0.20539   0.00000  Uiso   1.00
C53    C     0.49952   0.29078   0.16636   0.00000  Uiso   1.00
C54    C     0.50048   0.04255   0.16697   0.00000  Uiso   1.00
C55    C     0.53301   0.19222   0.02781   0.00000  Uiso   1.00
C56    C     0.46699   0.14111   0.30552   0.00000  Uiso   1.00
C57    C     0.53297   0.19220   0.31321   0.00000  Uiso   1.00
C58    C     0.46703   0.14114   0.02013   0.00000  Uiso   1.00
H59    H     0.45687   0.03870   0.09887   0.00000  Uiso   1.00
H60    H     0.54313   0.29463   0.23446   0.00000  Uiso   1.00
H61    H     0.55932   0.21261   0.29810   0.00000  Uiso   1.00
H62    H     0.44068   0.12072   0.03523   0.00000  Uiso   1.00
N63    N     0.49999   0.16666   0.28573   0.00000  Uiso   1.00
N64    N     0.50001   0.16668   0.04760   0.00000  Uiso   1.00
O65    O     0.50000   0.10558   0.20487   0.00000  Uiso   1.00
O66    O     0.50000   0.22775   0.12846   0.00000  Uiso   1.00
O67    O     0.50000   0.10559   0.12843   0.00000  Uiso   1.00
O68    O     0.50000   0.22774   0.20490   0.00000  Uiso   1.00
O69    O     0.42392   0.16666   0.19595   0.00000  Uiso   1.00
O70    O     0.57608   0.16667   0.13739   0.00000  Uiso   1.00
O71    O     0.42392   0.16667   0.11950   0.00000  Uiso   1.00
O72    O     0.57608   0.16666   0.21383   0.00000  Uiso   1.00
Zn73   Zn    0.50000   0.16666   0.21771   0.00000  Uiso   1.00
Zn74   Zn    0.50000   0.16667   0.11563   0.00000  Uiso   1.00
C75    C     0.66113   0.12350   0.11888   0.00000  Uiso   1.00
H76    H     0.34377   0.12015   0.08701   0.00000  Uiso   1.00
O77    O     0.63040   0.09715   0.12896   0.00000  Uiso   1.00
C78    C     0.33889   0.20981   0.21446   0.00000  Uiso   1.00
H79    H     0.65632   0.21312   0.24637   0.00000  Uiso   1.00
O80    O     0.36954   0.23620   0.20432   0.00000  Uiso   1.00
F81    F     0.45040   0.29230   0.09079   0.00000  Uiso   1.00
F82    F     0.54960   0.04103   0.24254   0.00000  Uiso   1.00
F83    F     0.56613   0.21788   0.05427   0.00000  Uiso   1.00
F84    F     0.43387   0.11545   0.27906   0.00000  Uiso   1.00
C85    C     0.83373   0.08668   0.16680   0.00000  Uiso   1.00
C86    C     0.83294   0.24665   0.16653   0.00000  Uiso   1.00
C87    C     0.73393   0.16612   0.15507   0.00000  Uiso   1.00
C88    C     0.93273   0.16720   0.17826   0.00000  Uiso   1.00
C89    C     0.68008   0.15811   0.15089   0.00000  Uiso   1.00
C90    C     0.98659   0.17521   0.18244   0.00000  Uiso   1.00
C91    C     0.80938   0.02182   0.12834   0.00000  Uiso   1.00
C92    C     0.85728   0.31151   0.20499   0.00000  Uiso   1.00
C93    C     0.80877   0.31238   0.12795   0.00000  Uiso   1.00
C94    C     0.85790   0.02095   0.20539   0.00000  Uiso   1.00
C95    C     0.83286   0.29078   0.16636   0.00000  Uiso   1.00
C96    C     0.83381   0.04255   0.16697   0.00000  Uiso   1.00
C97    C     0.86635   0.19222   0.02781   0.00000  Uiso   1.00
C98    C     0.80032   0.14111   0.30552   0.00000  Uiso   1.00
C99    C     0.86630   0.19220   0.31321   0.00000  Uiso   1.00
C100   C     0.80036   0.14114   0.02013   0.00000  Uiso   1.00
H101   H     0.79020   0.03870   0.09887   0.00000  Uiso   1.00
H102   H     0.87647   0.29463   0.23446   0.00000  Uiso   1.00
H103   H     0.89265   0.21261   0.29810   0.00000  Uiso   1.00
H104   H     0.77401   0.12072   0.03523   0.00000  Uiso   1.00
N105   N     0.83332   0.16666   0.28573   0.00000  Uiso   1.00
N106   N     0.83335   0.16668   0.04760   0.00000  Uiso   1.00
O107   O     0.83333   0.10558   0.20487   0.00000  Uiso   1.00
O108   O     0.83334   0.22775   0.12846   0.00000  Uiso   1.00
O109   O     0.83333   0.10559   0.12843   0.00000  Uiso   1.00
O110   O     0.83334   0.22774   0.20490   0.00000  Uiso   1.00
O111   O     0.75725   0.16666   0.19595   0.00000  Uiso   1.00
O112   O     0.90942   0.16667   0.13739   0.00000  Uiso   1.00
O113   O     0.75725   0.16667   0.11950   0.00000  Uiso   1.00
O114   O     0.90942   0.16666   0.21383   0.00000  Uiso   1.00
Zn115  Zn    0.83333   0.16666   0.21771   0.00000  Uiso   1.00
Zn116  Zn    0.83333   0.16667   0.11563   0.00000  Uiso   1.00
C117   C     0.99446   0.12350   0.11888   0.00000  Uiso   1.00
H118   H     0.67710   0.12015   0.08701   0.00000  Uiso   1.00
O119   O     0.96373   0.09715   0.12896   0.00000  Uiso   1.00
C120   C     0.67222   0.20981   0.21446   0.00000  Uiso   1.00
H121   H     0.98965   0.21312   0.24637   0.00000  Uiso   1.00
O122   O     0.70287   0.23620   0.20432   0.00000  Uiso   1.00
F123   F     0.78373   0.29230   0.09079   0.00000  Uiso   1.00
F124   F     0.88294   0.04103   0.24254   0.00000  Uiso   1.00
F125   F     0.89946   0.21788   0.05427   0.00000  Uiso   1.00
F126   F     0.76721   0.11545   0.27906   0.00000  Uiso   1.00
C127   C     0.16706   0.42002   0.16680   0.00000  Uiso   1.00
C128   C     0.16627   0.57998   0.16653   0.00000  Uiso   1.00
C129   C     0.06727   0.49946   0.15507   0.00000  Uiso   1.00
C130   C     0.26607   0.50053   0.17826   0.00000  Uiso   1.00
C131   C     0.01341   0.49144   0.15089   0.00000  Uiso   1.00
C132   C     0.31993   0.50854   0.18244   0.00000  Uiso   1.00
C133   C     0.14272   0.35515   0.12834   0.00000  Uiso   1.00
C134   C     0.19062   0.64485   0.20499   0.00000  Uiso   1.00
C135   C     0.14210   0.64572   0.12795   0.00000  Uiso   1.00
C136   C     0.19123   0.35428   0.20539   0.00000  Uiso   1.00
C137   C     0.16619   0.62411   0.16636   0.00000  Uiso   1.00
C138   C     0.16714   0.37589   0.16697   0.00000  Uiso   1.00
C139   C     0.19968   0.52556   0.02781   0.00000  Uiso   1.00
C140   C     0.13365   0.47444   0.30552   0.00000  Uiso   1.00
C141   C     0.19964   0.52553   0.31321   0.00000  Uiso   1.00
C142   C     0.13370   0.47447   0.02013   0.00000  Uiso   1.00
H143   H     0.12353   0.37204   0.09887   0.00000  Uiso   1.00
H144   H     0.20980   0.62796   0.23446   0.00000  Uiso   1.00
H145   H     0.22599   0.54594   0.29810   0.00000  Uiso   1.00
H146   H     0.10735   0.45405   0.03523   0.00000  Uiso   1.00
N147   N     0.16665   0.49999   0.28573   0.00000  Uiso   1.00
N148   N     0.16668   0.50001   0.04760   0.00000  Uiso   1.00
O149   O     0.16666   0.43892   0.20487   0.00000  Uiso   1.00
O150   O     0.16667   0.56108   0.12846   0.00000  Uiso   1.00
O151   O     0.16666   0.43893   0.12843   0.00000  Uiso   1.00
O152   O     0.16667   0.56107   0.20490   0.00000  Uiso   1.00
O153   O     0.09058   0.50000   0.19595   0.00000  Uiso   1.00
O154   O     0.24275   0.50000   0.13739   0.00000  Uiso   1.00
O155   O     0.09058   0.50000   0.11950   0.00000  Uiso   1.00
O156   O     0.24275   0.50000   0.21383   0.00000  Uiso   1.00
Zn157  Zn    0.16667   0.49999   0.21771   0.00000  Uiso   1.00
Zn158  Zn    0.16667   0.50001   0.11563   0.00000  Uiso   1.00
C159   C     0.32779   0.45683   0.11888   0.00000  Uiso   1.00
H160   H     0.01043   0.45348   0.08701   0.00000  Uiso   1.00
O161   O     0.29706   0.43049   0.12896   0.00000  Uiso   1.00
C162   C     0.00555   0.54315   0.21446   0.00000  Uiso   1.00
H163   H     0.32298   0.54645   0.24637   0.00000  Uiso   1.00
O164   O     0.03620   0.56954   0.20432   0.00000  Uiso   1.00
F165   F     0.11706   0.62563   0.09079   0.00000  Uiso   1.00
F166   F     0.21627   0.37437   0.24254   0.00000  Uiso   1.00
F167   F     0.23279   0.55121   0.05427   0.00000  Uiso   1.00
F168   F     0.10054   0.44879   0.27906   0.00000  Uiso   1.00
C169   C     0.50039   0.42002   0.16680   0.00000  Uiso   1.00
C170   C     0.49961   0.57998   0.16653   0.00000  Uiso   1.00
C171   C     0.40060   0.49946   0.15507   0.00000  Uiso   1.00
C172   C     0.59940   0.50053   0.17826   0.00000  Uiso   1.00
C173   C     0.34674   0.49144   0.15089   0.00000  Uiso   1.00
C174   C     0.65326   0.50854   0.18244   0.00000  Uiso   1.00
C175   C     0.47605   0.35515   0.12834   0.00000  Uiso   1.00
C176   C     0.52395   0.64485   0.20499   0.00000  Uiso   1.00
C177   C     0.47544   0.64572   0.12795   0.00000  Uiso   1.00
C178   C     0.52456   0.35428   0.20539   0.00000  Uiso   1.00
C179   C     0.49952   0.62411   0.16636   0.00000  Uiso   1.00
C180   C     0.50048   0.37589   0.16697   0.00000  Uiso   1.00
C181   C     0.53301   0.52556   0.02781   0.00000  Uiso   1.00
C182   C     0.46699   0.47444   0.30552   0.00000  Uiso   1.00
C183   C     0.53297   0.52553   0.31321   0.00000  Uiso   1.00
C184   C     0.46703   0.47447   0.02013   0.00000  Uiso   1.00
H185   H     0.45687   0.37204   0.09887   0.00000  Uiso   1.00
H186   H     0.54313   0.62796   0.23446   0.00000  Uiso   1.00
H187   H     0.55932   0.54594   0.29810   0.00000  Uiso   1.00
H188   H     0.44068   0.45405   0.03523   0.00000  Uiso   1.00
N189   N     0.49999   0.49999   0.28573   0.00000  Uiso   1.00
N190   N     0.50001   0.50001   0.04760   0.00000  Uiso   1.00
O191   O     0.50000   0.43892   0.20487   0.00000  Uiso   1.00
O192   O     0.50000   0.56108   0.12846   0.00000  Uiso   1.00
O193   O     0.50000   0.43893   0.12843   0.00000  Uiso   1.00
O194   O     0.50000   0.56107   0.20490   0.00000  Uiso   1.00
O195   O     0.42392   0.50000   0.19595   0.00000  Uiso   1.00
O196   O     0.57608   0.50000   0.13739   0.00000  Uiso   1.00
O197   O     0.42392   0.50000   0.11950   0.00000  Uiso   1.00
O198   O     0.57608   0.50000   0.21383   0.00000  Uiso   1.00
Zn199  Zn    0.50000   0.49999   0.21771   0.00000  Uiso   1.00
Zn200  Zn    0.50000   0.50001   0.11563   0.00000  Uiso   1.00
C201   C     0.66113   0.45683   0.11888   0.00000  Uiso   1.00
H202   H     0.34377   0.45348   0.08701   0.00000  Uiso   1.00
O203   O     0.63040   0.43049   0.12896   0.00000  Uiso   1.00
C204   C     0.33889   0.54315   0.21446   0.00000  Uiso   1.00
H205   H     0.65632   0.54645   0.24637   0.00000  Uiso   1.00
O206   O     0.36954   0.56954   0.20432   0.00000  Uiso   1.00
F207   F     0.45040   0.62563   0.09079   0.00000  Uiso   1.00
F208   F     0.54960   0.37437   0.24254   0.00000  Uiso   1.00
F209   F     0.56613   0.55121   0.05427   0.00000  Uiso   1.00
F210   F     0.43387   0.44879   0.27906   0.00000  Uiso   1.00
C211   C     0.83373   0.42002   0.16680   0.00000  Uiso   1.00
C212   C     0.83294   0.57998   0.16653   0.00000  Uiso   1.00
C213   C     0.73393   0.49946   0.15507   0.00000  Uiso   1.00
C214   C     0.93273   0.50053   0.17826   0.00000  Uiso   1.00
C215   C     0.68008   0.49144   0.15089   0.00000  Uiso   1.00
C216   C     0.98659   0.50854   0.18244   0.00000  Uiso   1.00
C217   C     0.80938   0.35515   0.12834   0.00000  Uiso   1.00
C218   C     0.85728   0.64485   0.20499   0.00000  Uiso   1.00
C219   C     0.80877   0.64572   0.12795   0.00000  Uiso   1.00
C220   C     0.85790   0.35428   0.20539   0.00000  Uiso   1.00
C221   C     0.83286   0.62411   0.16636   0.00000  Uiso   1.00
C222   C     0.83381   0.37589   0.16697   0.00000  Uiso   1.00
C223   C     0.86635   0.52556   0.02781   0.00000  Uiso   1.00
C224   C     0.80032   0.47444   0.30552   0.00000  Uiso   1.00
C225   C     0.86630   0.52553   0.31321   0.00000  Uiso   1.00
C226   C     0.80036   0.47447   0.02013   0.00000  Uiso   1.00
H227   H     0.79020   0.37204   0.09887   0.00000  Uiso   1.00
H228   H     0.87647   0.62796   0.23446   0.00000  Uiso   1.00
H229   H     0.89265   0.54594   0.29810   0.00000  Uiso   1.00
H230   H     0.77401   0.45405   0.03523   0.00000  Uiso   1.00
N231   N     0.83332   0.49999   0.28573   0.00000  Uiso   1.00
N232   N     0.83335   0.50001   0.04760   0.00000  Uiso   1.00
O233   O     0.83333   0.43892   0.20487   0.00000  Uiso   1.00
O234   O     0.83334   0.56108   0.12846   0.00000  Uiso   1.00
O235   O     0.83333   0.43893   0.12843   0.00000  Uiso   1.00
O236   O     0.83334   0.56107   0.20490   0.00000  Uiso   1.00
O237   O     0.75725   0.50000   0.19595   0.00000  Uiso   1.00
O238   O     0.90942   0.50000   0.13739   0.00000  Uiso   1.00
O239   O     0.75725   0.50000   0.11950   0.00000  Uiso   1.00
O240   O     0.90942   0.50000   0.21383   0.00000  Uiso   1.00
Zn241  Zn    0.83333   0.49999   0.21771   0.00000  Uiso   1.00
Zn242  Zn    0.83333   0.50001   0.11563   0.00000  Uiso   1.00
C243   C     0.99446   0.45683   0.11888   0.00000  Uiso   1.00
H244   H     0.67710   0.45348   0.08701   0.00000  Uiso   1.00
O245   O     0.96373   0.43049   0.12896   0.00000  Uiso   1.00
C246   C     0.67222   0.54315   0.21446   0.00000  Uiso   1.00
H247   H     0.98965   0.54645   0.24637   0.00000  Uiso   1.00
O248   O     0.70287   0.56954   0.20432   0.00000  Uiso   1.00
F249   F     0.78373   0.62563   0.09079   0.00000  Uiso   1.00
F250   F     0.88294   0.37437   0.24254   0.00000  Uiso   1.00
F251   F     0.89946   0.55121   0.05427   0.00000  Uiso   1.00
F252   F     0.76721   0.44879   0.27906   0.00000  Uiso   1.00
C253   C     0.16706   0.75335   0.16680   0.00000  Uiso   1.00
C254   C     0.16627   0.91332   0.16653   0.00000  Uiso   1.00
C255   C     0.06727   0.83279   0.15507   0.00000  Uiso   1.00
C256   C     0.26607   0.83387   0.17826   0.00000  Uiso   1.00
C257   C     0.01341   0.82477   0.15089   0.00000  Uiso   1.00
C258   C     0.31993   0.84188   0.18244   0.00000  Uiso   1.00
C259   C     0.14272   0.68849   0.12834   0.00000  Uiso   1.00
C260   C     0.19062   0.97818   0.20499   0.00000  Uiso   1.00
C261   C     0.14210   0.97905   0.12795   0.00000  Uiso   1.00
C262   C     0.19123   0.68762   0.20539   0.00000  Uiso   1.00
C263   C     0.16619   0.95745   0.16636   0.00000  Uiso   1.00
C264   C     0.16714   0.70922   0.16697   0.00000  Uiso   1.00
C265   C     0.19968   0.85889   0.02781   0.00000  Uiso   1.00
C266   C     0.13365   0.80778   0.30552   0.00000  Uiso   1.00
C267   C     0.19964   0.85886   0.31321   0.00000  Uiso   1.00
C268   C     0.13370   0.80780   0.02013   0.00000  Uiso   1.00
H269   H     0.12353   0.70537   0.09887   0.00000  Uiso   1.00
H270   H     0.20980   0.96130   0.23446   0.00000  Uiso   1.00
H271   H     0.22599   0.87928   0.29810   0.00000  Uiso   1.00
H272   H     0.10735   0.78739   0.03523   0.00000  Uiso   1.00
N273   N     0.16665   0.83332   0.28573   0.00000  Uiso   1.00
N274   N     0.16668   0.83334   0.04760   0.00000  Uiso   1.00
O275   O     0.16666   0.77225   0.20487   0.00000  Uiso   1.00
O276   O     0.16667   0.89442   0.12846   0.00000  Uiso   1.00
O277   O     0.16666   0.77226   0.12843   0.00000  Uiso   1.00
O278   O     0.16667   0.89441   0.20490   0.00000  Uiso   1.00
O279   O     0.09058   0.83333   0.19595   0.00000  Uiso   1.00
O280   O     0.24275   0.83334   0.13739   0.00000  Uiso   1.00
O281   O     0.09058   0.83334   0.11950   0.00000  Uiso   1.00
O282   O     0.24275   0.83333   0.21383   0.00000  Uiso   1.00
Zn283  Zn    0.16667   0.83333   0.21771   0.00000  Uiso   1.00
Zn284  Zn    0.16667   0.83334   0.11563   0.00000  Uiso   1.00
C285   C     0.32779   0.79016   0.11888   0.00000  Uiso   1.00
H286   H     0.01043   0.78682   0.08701   0.00000  Uiso   1.00
O287   O     0.29706   0.76382   0.12896   0.00000  Uiso   1.00
C288   C     0.00555   0.87648   0.21446   0.00000  Uiso   1.00
H289   H     0.32298   0.87978   0.24637   0.00000  Uiso   1.00
O290   O     0.03620   0.90287   0.20432   0.00000  Uiso   1.00
F291   F     0.11706   0.95897   0.09079   0.00000  Uiso   1.00
F292   F     0.21627   0.70770   0.24254   0.00000  Uiso   1.00
F293   F     0.23279   0.88455   0.05427   0.00000  Uiso   1.00
F294   F     0.10054   0.78212   0.27906   0.00000  Uiso   1.00
C295   C     0.50039   0.75335   0.16680   0.00000  Uiso   1.00
C296   C     0.49961   0.91332   0.16653   0.00000  Uiso   1.00
C297   C     0.40060   0.83279   0.15507   0.00000  Uiso   1.00
C298   C     0.59940   0.83387   0.17826   0.00000  Uiso   1.00
C299   C     0.34674   0.82477   0.15089   0.00000  Uiso   1.00
C300   C     0.65326   0.84188   0.18244   0.00000  Uiso   1.00
C301   C     0.47605   0.68849   0.12834   0.00000  Uiso   1.00
C302   C     0.52395   0.97818   0.20499   0.00000  Uiso   1.00
C303   C     0.47544   0.97905   0.12795   0.00000  Uiso   1.00
C304   C     0.52456   0.68762   0.20539   0.00000  Uiso   1.00
C305   C     0.49952   0.95745   0.16636   0.00000  Uiso   1.00
C306   C     0.50048   0.70922   0.16697   0.00000  Uiso   1.00
C307   C     0.53301   0.85889   0.02781   0.00000  Uiso   1.00
C308   C     0.46699   0.80778   0.30552   0.00000  Uiso   1.00
C309   C     0.53297   0.85886   0.31321   0.00000  Uiso   1.00
C310   C     0.46703   0.80780   0.02013   0.00000  Uiso   1.00
H311   H     0.45687   0.70537   0.09887   0.00000  Uiso   1.00
H312   H     0.54313   0.96130   0.23446   0.00000  Uiso   1.00
H313   H     0.55932   0.87928   0.29810   0.00000  Uiso   1.00
H314   H     0.44068   0.78739   0.03523   0.00000  Uiso   1.00
N315   N     0.49999   0.83332   0.28573   0.00000  Uiso   1.00
N316   N     0.50001   0.83334   0.04760   0.00000  Uiso   1.00
O317   O     0.50000   0.77225   0.20487   0.00000  Uiso   1.00
O318   O     0.50000   0.89442   0.12846   0.00000  Uiso   1.00
O319   O     0.50000   0.77226   0.12843   0.00000  Uiso   1.00
O320   O     0.50000   0.89441   0.20490   0.00000  Uiso   1.00
O321   O     0.42392   0.83333   0.19595   0.00000  Uiso   1.00
O322   O     0.57608   0.83334   0.13739   0.00000  Uiso   1.00
O323   O     0.42392   0.83334   0.11950   0.00000  Uiso   1.00
O324   O     0.57608   0.83333   0.21383   0.00000  Uiso   1.00
Zn325  Zn    0.50000   0.83333   0.21771   0.00000  Uiso   1.00
Zn326  Zn    0.50000   0.83334   0.11563   0.00000  Uiso   1.00
C327   C     0.66113   0.79016   0.11888   0.00000  Uiso   1.00
H328   H     0.34377   0.78682   0.08701   0.00000  Uiso   1.00
O329   O     0.63040   0.76382   0.12896   0.00000  Uiso   1.00
C330   C     0.33889   0.87648   0.21446   0.00000  Uiso   1.00
H331   H     0.65632   0.87978   0.24637   0.00000  Uiso   1.00
O332   O     0.36954   0.90287   0.20432   0.00000  Uiso   1.00
F333   F     0.45040   0.95897   0.09079   0.00000  Uiso   1.00
F334   F     0.54960   0.70770   0.24254   0.00000  Uiso   1.00
F335   F     0.56613   0.88455   0.05427   0.00000  Uiso   1.00
F336   F     0.43387   0.78212   0.27906   0.00000  Uiso   1.00
C337   C     0.83373   0.75335   0.16680   0.00000  Uiso   1.00
C338   C     0.83294   0.91332   0.16653   0.00000  Uiso   1.00
C339   C     0.73393   0.83279   0.15507   0.00000  Uiso   1.00
C340   C     0.93273   0.83387   0.17826   0.00000  Uiso   1.00
C341   C     0.68008   0.82477   0.15089   0.00000  Uiso   1.00
C342   C     0.98659   0.84188   0.18244   0.00000  Uiso   1.00
C343   C     0.80938   0.68849   0.12834   0.00000  Uiso   1.00
C344   C     0.85728   0.97818   0.20499   0.00000  Uiso   1.00
C345   C     0.80877   0.97905   0.12795   0.00000  Uiso   1.00
C346   C     0.85790   0.68762   0.20539   0.00000  Uiso   1.00
C347   C     0.83286   0.95745   0.16636   0.00000  Uiso   1.00
C348   C     0.83381   0.70922   0.16697   0.00000  Uiso   1.00
C349   C     0.86635   0.85889   0.02781   0.00000  Uiso   1.00
C350   C     0.80032   0.80778   0.30552   0.00000  Uiso   1.00
C351   C     0.86630   0.85886   0.31321   0.00000  Uiso   1.00
C352   C     0.80036   0.80780   0.02013   0.00000  Uiso   1.00
H353   H     0.79020   0.70537   0.09887   0.00000  Uiso   1.00
H354   H     0.87647   0.96130   0.23446   0.00000  Uiso   1.00
H355   H     0.89265   0.87928   0.29810   0.00000  Uiso   1.00
H356   H     0.77401   0.78739   0.03523   0.00000  Uiso   1.00
N357   N     0.83332   0.83332   0.28573   0.00000  Uiso   1.00
N358   N     0.83335   0.83334   0.04760   0.00000  Uiso   1.00
O359   O     0.83333   0.77225   0.20487   0.00000  Uiso   1.00
O360   O     0.83334   0.89442   0.12846   0.00000  Uiso   1.00
O361   O     0.83333   0.77226   0.12843   0.00000  Uiso   1.00
O362   O     0.83334   0.89441   0.20490   0.00000  Uiso   1.00
O363   O     0.75725   0.83333   0.19595   0.00000  Uiso   1.00
O364   O     0.90942   0.83334   0.13739   0.00000  Uiso   1.00
O365   O     0.75725   0.83334   0.11950   0.00000  Uiso   1.00
O366   O     0.90942   0.83333   0.21383   0.00000  Uiso   1.00
Zn367  Zn    0.83333   0.83333   0.21771   0.00000  Uiso   1.00
Zn368  Zn    0.83333   0.83334   0.11563   0.00000  Uiso   1.00
C369   C     0.99446   0.79016   0.11888   0.00000  Uiso   1.00
H370   H     0.67710   0.78682   0.08701   0.00000  Uiso   1.00
O371   O     0.96373   0.76382   0.12896   0.00000  Uiso   1.00
C372   C     0.67222   0.87648   0.21446   0.00000  Uiso   1.00
H373   H     0.98965   0.87978   0.24637   0.00000  Uiso   1.00
O374   O     0.70287   0.90287   0.20432   0.00000  Uiso   1.00
F375   F     0.78373   0.95897   0.09079   0.00000  Uiso   1.00
F376   F     0.88294   0.70770   0.24254   0.00000  Uiso   1.00
F377   F     0.89946   0.88455   0.05427   0.00000  Uiso   1.00
F378   F     0.76721   0.78212   0.27906   0.00000  Uiso   1.00
C379   C     0.16706   0.08668   0.50014   0.00000  Uiso   1.00
C380   C     0.16627   0.24665   0.49986   0.00000  Uiso   1.00
C381   C     0.06727   0.16612   0.48840   0.00000  Uiso   1.00
C382   C     0.26607   0.16720   0.51159   0.00000  Uiso   1.00
C383   C     0.01341   0.15811   0.48422   0.00000  Uiso   1.00
C384   C     0.31993   0.17521   0.51577   0.00000  Uiso   1.00
C385   C     0.14272   0.02182   0.46167   0.00000  Uiso   1.00
C386   C     0.19062   0.31151   0.53833   0.00000  Uiso   1.00
C387   C     0.14210   0.31238   0.46128   0.00000  Uiso   1.00
C388   C     0.19123   0.02095   0.53872   0.00000  Uiso   1.00
C389   C     0.16619   0.29078   0.49970   0.00000  Uiso   1.00
C390   C     0.16714   0.04255   0.50030   0.00000  Uiso   1.00
C391   C     0.19968   0.19222   0.36115   0.00000  Uiso   1.00
C392   C     0.13365   0.14111   0.63885   0.00000  Uiso   1.00
C393   C     0.19964   0.19220   0.64654   0.00000  Uiso   1.00
C394   C     0.13370   0.14114   0.35346   0.00000  Uiso   1.00
H395   H     0.12353   0.03870   0.43220   0.00000  Uiso   1.00
H396   H     0.20980   0.29463   0.56780   0.00000  Uiso   1.00
H397   H     0.22599   0.21261   0.63144   0.00000  Uiso   1.00
H398   H     0.10735   0.12072   0.36856   0.00000  Uiso   1.00
N399   N     0.16665   0.16666   0.61907   0.00000  Uiso   1.00
N400   N     0.16668   0.16668   0.38093   0.00000  Uiso   1.00
O401   O     0.16666   0.10558   0.53821   0.00000  Uiso   1.00
O402   O     0.16667   0.22775   0.46179   0.00000  Uiso   1.00
O403   O     0.16666   0.10559   0.46176   0.00000  Uiso   1.00
O404   O     0.16667   0.22774   0.53824   0.00000  Uiso   1.00
O405   O     0.09058   0.16666   0.52928   0.00000  Uiso   1.00
O406   O     0.24275   0.16667   0.47072   0.00000  Uiso   1.00
O407   O     0.09058   0.16667   0.45284   0.00000  Uiso   1.00
O408   O     0.24275   0.16666   0.54716   0.00000  Uiso   1.00
Zn409  Zn    0.16667   0.16666   0.55104   0.00000  Uiso   1.00
Zn410  Zn    0.16667   0.16667   0.44896   0.00000  Uiso   1.00
C411   C     0.32779   0.12350   0.45221   0.00000  Uiso   1.00
H412   H     0.01043   0.12015   0.42035   0.00000  Uiso   1.00
O413   O     0.29706   0.09715   0.46230   0.00000  Uiso   1.00
C414   C     0.00555   0.20981   0.54779   0.00000  Uiso   1.00
H415   H     0.32298   0.21312   0.57971   0.00000  Uiso   1.00
O416   O     0.03620   0.23620   0.53765   0.00000  Uiso   1.00
F417   F     0.11706   0.29230   0.42412   0.00000  Uiso   1.00
F418   F     0.21627   0.04103   0.57588   0.00000  Uiso   1.00
F419   F     0.23279   0.21788   0.38761   0.00000  Uiso   1.00
F420   F     0.10054   0.11545   0.61239   0.00000  Uiso   1.00
C421   C     0.50039   0.08668   0.50014   0.00000  Uiso   1.00
C422   C     0.49961   0.24665   0.49986   0.00000  Uiso   1.00
C423   C     0.40060   0.16612   0.48840   0.00000  Uiso   1.00
C424   C     0.59940   0.16720   0.51159   0.00000  Uiso   1.00
C425   C     0.34674   0.15811   0.48422   0.00000  Uiso   1.00
C426   C     0.65326   0.17521   0.51577   0.00000  Uiso   1.00
C427   C     0.47605   0.02182   0.46167   0.00000  Uiso   1.00
C428   C     0.52395   0.31151   0.53833   0.00000  Uiso   1.00
C429   C     0.47544   0.31238   0.46128   0.00000  Uiso   1.00
C430   C     0.52456   0.02095   0.53872   0.00000  Uiso   1.00
C431   C     0.49952   0.29078   0.49970   0.00000  Uiso   1.00
C432   C     0.50048   0.04255   0.50030   0.00000  Uiso   1.00
C433   C     0.53301   0.19222   0.36115   0.00000  Uiso   1.00
C434   C     0.46699   0.14111   0.63885   0.00000  Uiso   1.00
C435   C     0.53297   0.19220   0.64654   0.00000  Uiso   1.00
C436   C     0.46703   0.14114   0.35346   0.00000  Uiso   1.00
H437   H     0.45687   0.03870   0.43220   0.00000  Uiso   1.00
H438   H     0.54313   0.29463   0.56780   0.00000  Uiso   1.00
H439   H     0.55932   0.21261   0.63144   0.00000  Uiso   1.00
H440   H     0.44068   0.12072   0.36856   0.00000  Uiso   1.00
N441   N     0.49999   0.16666   0.61907   0.00000  Uiso   1.00
N442   N     0.50001   0.16668   0.38093   0.00000  Uiso   1.00
O443   O     0.50000   0.10558   0.53821   0.00000  Uiso   1.00
O444   O     0.50000   0.22775   0.46179   0.00000  Uiso   1.00
O445   O     0.50000   0.10559   0.46176   0.00000  Uiso   1.00
O446   O     0.50000   0.22774   0.53824   0.00000  Uiso   1.00
O447   O     0.42392   0.16666   0.52928   0.00000  Uiso   1.00
O448   O     0.57608   0.16667   0.47072   0.00000  Uiso   1.00
O449   O     0.42392   0.16667   0.45284   0.00000  Uiso   1.00
O450   O     0.57608   0.16666   0.54716   0.00000  Uiso   1.00
Zn451  Zn    0.50000   0.16666   0.55104   0.00000  Uiso   1.00
Zn452  Zn    0.50000   0.16667   0.44896   0.00000  Uiso   1.00
C453   C     0.66113   0.12350   0.45221   0.00000  Uiso   1.00
H454   H     0.34377   0.12015   0.42035   0.00000  Uiso   1.00
O455   O     0.63040   0.09715   0.46230   0.00000  Uiso   1.00
C456   C     0.33889   0.20981   0.54779   0.00000  Uiso   1.00
H457   H     0.65632   0.21312   0.57971   0.00000  Uiso   1.00
O458   O     0.36954   0.23620   0.53765   0.00000  Uiso   1.00
F459   F     0.45040   0.29230   0.42412   0.00000  Uiso   1.00
F460   F     0.54960   0.04103   0.57588   0.00000  Uiso   1.00
F461   F     0.56613   0.21788   0.38761   0.00000  Uiso   1.00
F462   F     0.43387   0.11545   0.61239   0.00000  Uiso   1.00
C463   C     0.83373   0.08668   0.50014   0.00000  Uiso   1.00
C464   C     0.83294   0.24665   0.49986   0.00000  Uiso   1.00
C465   C     0.73393   0.16612   0.48840   0.00000  Uiso   1.00
C466   C     0.93273   0.16720   0.51159   0.00000  Uiso   1.00
C467   C     0.68008   0.15811   0.48422   0.00000  Uiso   1.00
C468   C     0.98659   0.17521   0.51577   0.00000  Uiso   1.00
C469   C     0.80938   0.02182   0.46167   0.00000  Uiso   1.00
C470   C     0.85728   0.31151   0.53833   0.00000  Uiso   1.00
C471   C     0.80877   0.31238   0.46128   0.00000  Uiso   1.00
C472   C     0.85790   0.02095   0.53872   0.00000  Uiso   1.00
C473   C     0.83286   0.29078   0.49970   0.00000  Uiso   1.00
C474   C     0.83381   0.04255   0.50030   0.00000  Uiso   1.00
C475   C     0.86635   0.19222   0.36115   0.00000  Uiso   1.00
C476   C     0.80032   0.14111   0.63885   0.00000  Uiso   1.00
C477   C     0.86630   0.19220   0.64654   0.00000  Uiso   1.00
C478   C     0.80036   0.14114   0.35346   0.00000  Uiso   1.00
H479   H     0.79020   0.03870   0.43220   0.00000  Uiso   1.00
H480   H     0.87647   0.29463   0.56780   0.00000  Uiso   1.00
H481   H     0.89265   0.21261   0.63144   0.00000  Uiso   1.00
H482   H     0.77401   0.12072   0.36856   0.00000  Uiso   1.00
N483   N     0.83332   0.16666   0.61907   0.00000  Uiso   1.00
N484   N     0.83335   0.16668   0.38093   0.00000  Uiso   1.00
O485   O     0.83333   0.10558   0.53821   0.00000  Uiso   1.00
O486   O     0.83334   0.22775   0.46179   0.00000  Uiso   1.00
O487   O     0.83333   0.10559   0.46176   0.00000  Uiso   1.00
O488   O     0.83334   0.22774   0.53824   0.00000  Uiso   1.00
O489   O     0.75725   0.16666   0.52928   0.00000  Uiso   1.00
O490   O     0.90942   0.16667   0.47072   0.00000  Uiso   1.00
O491   O     0.75725   0.16667   0.45284   0.00000  Uiso   1.00
O492   O     0.90942   0.16666   0.54716   0.00000  Uiso   1.00
Zn493  Zn    0.83333   0.16666   0.55104   0.00000  Uiso   1.00
Zn494  Zn    0.83333   0.16667   0.44896   0.00000  Uiso   1.00
C495   C     0.99446   0.12350   0.45221   0.00000  Uiso   1.00
H496   H     0.67710   0.12015   0.42035   0.00000  Uiso   1.00
O497   O     0.96373   0.09715   0.46230   0.00000  Uiso   1.00
C498   C     0.67222   0.20981   0.54779   0.00000  Uiso   1.00
H499   H     0.98965   0.21312   0.57971   0.00000  Uiso   1.00
O500   O     0.70287   0.23620   0.53765   0.00000  Uiso   1.00
F501   F     0.78373   0.29230   0.42412   0.00000  Uiso   1.00
F502   F     0.88294   0.04103   0.57588   0.00000  Uiso   1.00
F503   F     0.89946   0.21788   0.38761   0.00000  Uiso   1.00
F504   F     0.76721   0.11545   0.61239   0.00000  Uiso   1.00
C505   C     0.16706   0.42002   0.50014   0.00000  Uiso   1.00
C506   C     0.16627   0.57998   0.49986   0.00000  Uiso   1.00
C507   C     0.06727   0.49946   0.48840   0.00000  Uiso   1.00
C508   C     0.26607   0.50053   0.51159   0.00000  Uiso   1.00
C509   C     0.01341   0.49144   0.48422   0.00000  Uiso   1.00
C510   C     0.31993   0.50854   0.51577   0.00000  Uiso   1.00
C511   C     0.14272   0.35515   0.46167   0.00000  Uiso   1.00
C512   C     0.19062   0.64485   0.53833   0.00000  Uiso   1.00
C513   C     0.14210   0.64572   0.46128   0.00000  Uiso   1.00
C514   C     0.19123   0.35428   0.53872   0.00000  Uiso   1.00
C515   C     0.16619   0.62411   0.49970   0.00000  Uiso   1.00
C516   C     0.16714   0.37589   0.50030   0.00000  Uiso   1.00
C517   C     0.19968   0.52556   0.36115   0.00000  Uiso   1.00
C518   C     0.13365   0.47444   0.63885   0.00000  Uiso   1.00
C519   C     0.19964   0.52553   0.64654   0.00000  Uiso   1.00
C520   C     0.13370   0.47447   0.35346   0.00000  Uiso   1.00
H521   H     0.12353   0.37204   0.43220   0.00000  Uiso   1.00
H522   H     0.20980   0.62796   0.56780   0.00000  Uiso   1.00
H523   H     0.22599   0.54594   0.63144   0.00000  Uiso   1.00
H524   H     0.10735   0.45405   0.36856   0.00000  Uiso   1.00
N525   N     0.16665   0.49999   0.61907   0.00000  Uiso   1.00
N526   N     0.16668   0.50001   0.38093   0.00000  Uiso   1.00
O527   O     0.16666   0.43892   0.53821   0.00000  Uiso   1.00
O528   O     0.16667   0.56108   0.46179   0.00000  Uiso   1.00
O529   O     0.16666   0.43893   0.46176   0.00000  Uiso   1.00
O530   O     0.16667   0.56107   0.53824   0.00000  Uiso   1.00
O531   O     0.09058   0.50000   0.52928   0.00000  Uiso   1.00
O532   O     0.24275   0.50000   0.47072   0.00000  Uiso   1.00
O533   O     0.09058   0.50000   0.45284   0.00000  Uiso   1.00
O534   O     0.24275   0.50000   0.54716   0.00000  Uiso   1.00
Zn535  Zn    0.16667   0.49999   0.55104   0.00000  Uiso   1.00
Zn536  Zn    0.16667   0.50001   0.44896   0.00000  Uiso   1.00
C537   C     0.32779   0.45683   0.45221   0.00000  Uiso   1.00
H538   H     0.01043   0.45348   0.42035   0.00000  Uiso   1.00
O539   O     0.29706   0.43049   0.46230   0.00000  Uiso   1.00
C540   C     0.00555   0.54315   0.54779   0.00000  Uiso   1.00
H541   H     0.32298   0.54645   0.57971   0.00000  Uiso   1.00
O542   O     0.03620   0.56954   0.53765   0.00000  Uiso   1.00
F543   F     0.11706   0.62563   0.42412   0.00000  Uiso   1.00
F544   F     0.21627   0.37437   0.57588   0.00000  Uiso   1.00
F545   F     0.23279   0.55121   0.38761   0.00000  Uiso   1.00
F546   F     0.10054   0.44879   0.61239   0.00000  Uiso   1.00
C547   C     0.50039   0.42002   0.50014   0.00000  Uiso   1.00
C548   C     0.49961   0.57998   0.49986   0.00000  Uiso   1.00
C549   C     0.40060   0.49946   0.48840   0.00000  Uiso   1.00
C550   C     0.59940   0.50053   0.51159   0.00000  Uiso   1.00
C551   C     0.34674   0.49144   0.48422   0.00000  Uiso   1.00
C552   C     0.65326   0.50854   0.51577   0.00000  Uiso   1.00
C553   C     0.47605   0.35515   0.46167   0.00000  Uiso   1.00
C554   C     0.52395   0.64485   0.53833   0.00000  Uiso   1.00
C555   C     0.47544   0.64572   0.46128   0.00000  Uiso   1.00
C556   C     0.52456   0.35428   0.53872   0.00000  Uiso   1.00
C557   C     0.49952   0.62411   0.49970   0.00000  Uiso   1.00
C558   C     0.50048   0.37589   0.50030   0.00000  Uiso   1.00
C559   C     0.53301   0.52556   0.36115   0.00000  Uiso   1.00
C560   C     0.46699   0.47444   0.63885   0.00000  Uiso   1.00
C561   C     0.53297   0.52553   0.64654   0.00000  Uiso   1.00
C562   C     0.46703   0.47447   0.35346   0.00000  Uiso   1.00
H563   H     0.45687   0.37204   0.43220   0.00000  Uiso   1.00
H564   H     0.54313   0.62796   0.56780   0.00000  Uiso   1.00
H565   H     0.55932   0.54594   0.63144   0.00000  Uiso   1.00
H566   H     0.44068   0.45405   0.36856   0.00000  Uiso   1.00
N567   N     0.49999   0.49999   0.61907   0.00000  Uiso   1.00
N568   N     0.50001   0.50001   0.38093   0.00000  Uiso   1.00
O569   O     0.50000   0.43892   0.53821   0.00000  Uiso   1.00
O570   O     0.50000   0.56108   0.46179   0.00000  Uiso   1.00
O571   O     0.50000   0.43893   0.46176   0.00000  Uiso   1.00
O572   O     0.50000   0.56107   0.53824   0.00000  Uiso   1.00
O573   O     0.42392   0.50000   0.52928   0.00000  Uiso   1.00
O574   O     0.57608   0.50000   0.47072   0.00000  Uiso   1.00
O575   O     0.42392   0.50000   0.45284   0.00000  Uiso   1.00
O576   O     0.57608   0.50000   0.54716   0.00000  Uiso   1.00
Zn577  Zn    0.50000   0.49999   0.55104   0.00000  Uiso   1.00
Zn578  Zn    0.50000   0.50001   0.44896   0.00000  Uiso   1.00
C579   C     0.66113   0.45683   0.45221   0.00000  Uiso   1.00
H580   H     0.34377   0.45348   0.42035   0.00000  Uiso   1.00
O581   O     0.63040   0.43049   0.46230   0.00000  Uiso   1.00
C582   C     0.33889   0.54315   0.54779   0.00000  Uiso   1.00
H583   H     0.65632   0.54645   0.57971   0.00000  Uiso   1.00
O584   O     0.36954   0.56954   0.53765   0.00000  Uiso   1.00
F585   F     0.45040   0.62563   0.42412   0.00000  Uiso   1.00
F586   F     0.54960   0.37437   0.57588   0.00000  Uiso   1.00
F587   F     0.56613   0.55121   0.38761   0.00000  Uiso   1.00
F588   F     0.43387   0.44879   0.61239   0.00000  Uiso   1.00
C589   C     0.83373   0.42002   0.50014   0.00000  Uiso   1.00
C590   C     0.83294   0.57998   0.49986   0.00000  Uiso   1.00
C591   C     0.73393   0.49946   0.48840   0.00000  Uiso   1.00
C592   C     0.93273   0.50053   0.51159   0.00000  Uiso   1.00
C593   C     0.68008   0.49144   0.48422   0.00000  Uiso   1.00
C594   C     0.98659   0.50854   0.51577   0.00000  Uiso   1.00
C595   C     0.80938   0.35515   0.46167   0.00000  Uiso   1.00
C596   C     0.85728   0.64485   0.53833   0.00000  Uiso   1.00
C597   C     0.80877   0.64572   0.46128   0.00000  Uiso   1.00
C598   C     0.85790   0.35428   0.53872   0.00000  Uiso   1.00
C599   C     0.83286   0.62411   0.49970   0.00000  Uiso   1.00
C600   C     0.83381   0.37589   0.50030   0.00000  Uiso   1.00
C601   C     0.86635   0.52556   0.36115   0.00000  Uiso   1.00
C602   C     0.80032   0.47444   0.63885   0.00000  Uiso   1.00
C603   C     0.86630   0.52553   0.64654   0.00000  Uiso   1.00
C604   C     0.80036   0.47447   0.35346   0.00000  Uiso   1.00
H605   H     0.79020   0.37204   0.43220   0.00000  Uiso   1.00
H606   H     0.87647   0.62796   0.56780   0.00000  Uiso   1.00
H607   H     0.89265   0.54594   0.63144   0.00000  Uiso   1.00
H608   H     0.77401   0.45405   0.36856   0.00000  Uiso   1.00
N609   N     0.83332   0.49999   0.61907   0.00000  Uiso   1.00
N610   N     0.83335   0.50001   0.38093   0.00000  Uiso   1.00
O611   O     0.83333   0.43892   0.53821   0.00000  Uiso   1.00
O612   O     0.83334   0.56108   0.46179   0.00000  Uiso   1.00
O613   O     0.83333   0.43893   0.46176   0.00000  Uiso   1.00
O614   O     0.83334   0.56107   0.53824   0.00000  Uiso   1.00
O615   O     0.75725   0.50000   0.52928   0.00000  Uiso   1.00
O616   O     0.90942   0.50000   0.47072   0.00000  Uiso   1.00
O617   O     0.75725   0.50000   0.45284   0.00000  Uiso   1.00
O618   O     0.90942   0.50000   0.54716   0.00000  Uiso   1.00
Zn619  Zn    0.83333   0.49999   0.55104   0.00000  Uiso   1.00
Zn620  Zn    0.83333   0.50001   0.44896   0.00000  Uiso   1.00
C621   C     0.99446   0.45683   0.45221   0.00000  Uiso   1.00
H622   H     0.67710   0.45348   0.42035   0.00000  Uiso   1.00
O623   O     0.96373   0.43049   0.46230   0.00000  Uiso   1.00
C624   C     0.67222   0.54315   0.54779   0.00000  Uiso   1.00
H625   H     0.98965   0.54645   0.57971   0.00000  Uiso   1.00
O626   O     0.70287   0.56954   0.53765   0.00000  Uiso   1.00
F627   F     0.78373   0.62563   0.42412   0.00000  Uiso   1.00
F628   F     0.88294   0.37437   0.57588   0.00000  Uiso   1.00
F629   F     0.89946   0.55121   0.38761   0.00000  Uiso   1.00
F630   F     0.76721   0.44879   0.61239   0.00000  Uiso   1.00
C631   C     0.16706   0.75335   0.50014   0.00000  Uiso   1.00
C632   C     0.16627   0.91332   0.49986   0.00000  Uiso   1.00
C633   C     0.06727   0.83279   0.48840   0.00000  Uiso   1.00
C634   C     0.26607   0.83387   0.51159   0.00000  Uiso   1.00
C635   C     0.01341   0.82477   0.48422   0.00000  Uiso   1.00
C636   C     0.31993   0.84188   0.51577   0.00000  Uiso   1.00
C637   C     0.14272   0.68849   0.46167   0.00000  Uiso   1.00
C638   C     0.19062   0.97818   0.53833   0.00000  Uiso   1.00
C639   C     0.14210   0.97905   0.46128   0.00000  Uiso   1.00
C640   C     0.19123   0.68762   0.53872   0.00000  Uiso   1.00
C641   C     0.16619   0.95745   0.49970   0.00000  Uiso   1.00
C642   C     0.16714   0.70922   0.50030   0.00000  Uiso   1.00
C643   C     0.19968   0.85889   0.36115   0.00000  Uiso   1.00
C644   C     0.13365   0.80778   0.63885   0.00000  Uiso   1.00
C645   C     0.19964   0.85886   0.64654   0.00000  Uiso   1.00
C646   C     0.13370   0.80780   0.35346   0.00000  Uiso   1.00
H647   H     0.12353   0.70537   0.43220   0.00000  Uiso   1.00
H648   H     0.20980   0.96130   0.56780   0.00000  Uiso   1.00
H649   H     0.22599   0.87928   0.63144   0.00000  Uiso   1.00
H650   H     0.10735   0.78739   0.36856   0.00000  Uiso   1.00
N651   N     0.16665   0.83332   0.61907   0.00000  Uiso   1.00
N652   N     0.16668   0.83334   0.38093   0.00000  Uiso   1.00
O653   O     0.16666   0.77225   0.53821   0.00000  Uiso   1.00
O654   O     0.16667   0.89442   0.46179   0.00000  Uiso   1.00
O655   O     0.16666   0.77226   0.46176   0.00000  Uiso   1.00
O656   O     0.16667   0.89441   0.53824   0.00000  Uiso   1.00
O657   O     0.09058   0.83333   0.52928   0.00000  Uiso   1.00
O658   O     0.24275   0.83334   0.47072   0.00000  Uiso   1.00
O659   O     0.09058   0.83334   0.45284   0.00000  Uiso   1.00
O660   O     0.24275   0.83333   0.54716   0.00000  Uiso   1.00
Zn661  Zn    0.16667   0.83333   0.55104   0.00000  Uiso   1.00
Zn662  Zn    0.16667   0.83334   0.44896   0.00000  Uiso   1.00
C663   C     0.32779   0.79016   0.45221   0.00000  Uiso   1.00
H664   H     0.01043   0.78682   0.42035   0.00000  Uiso   1.00
O665   O     0.29706   0.76382   0.46230   0.00000  Uiso   1.00
C666   C     0.00555   0.87648   0.54779   0.00000  Uiso   1.00
H667   H     0.32298   0.87978   0.57971   0.00000  Uiso   1.00
O668   O     0.03620   0.90287   0.53765   0.00000  Uiso   1.00
F669   F     0.11706   0.95897   0.42412   0.00000  Uiso   1.00
F670   F     0.21627   0.70770   0.57588   0.00000  Uiso   1.00
F671   F     0.23279   0.88455   0.38761   0.00000  Uiso   1.00
F672   F     0.10054   0.78212   0.61239   0.00000  Uiso   1.00
C673   C     0.50039   0.75335   0.50014   0.00000  Uiso   1.00
C674   C     0.49961   0.91332   0.49986   0.00000  Uiso   1.00
C675   C     0.40060   0.83279   0.48840   0.00000  Uiso   1.00
C676   C     0.59940   0.83387   0.51159   0.00000  Uiso   1.00
C677   C     0.34674   0.82477   0.48422   0.00000  Uiso   1.00
C678   C     0.65326   0.84188   0.51577   0.00000  Uiso   1.00
C679   C     0.47605   0.68849   0.46167   0.00000  Uiso   1.00
C680   C     0.52395   0.97818   0.53833   0.00000  Uiso   1.00
C681   C     0.47544   0.97905   0.46128   0.00000  Uiso   1.00
C682   C     0.52456   0.68762   0.53872   0.00000  Uiso   1.00
C683   C     0.49952   0.95745   0.49970   0.00000  Uiso   1.00
C684   C     0.50048   0.70922   0.50030   0.00000  Uiso   1.00
C685   C     0.53301   0.85889   0.36115   0.00000  Uiso   1.00
C686   C     0.46699   0.80778   0.63885   0.00000  Uiso   1.00
C687   C     0.53297   0.85886   0.64654   0.00000  Uiso   1.00
C688   C     0.46703   0.80780   0.35346   0.00000  Uiso   1.00
H689   H     0.45687   0.70537   0.43220   0.00000  Uiso   1.00
H690   H     0.54313   0.96130   0.56780   0.00000  Uiso   1.00
H691   H     0.55932   0.87928   0.63144   0.00000  Uiso   1.00
H692   H     0.44068   0.78739   0.36856   0.00000  Uiso   1.00
N693   N     0.49999   0.83332   0.61907   0.00000  Uiso   1.00
N694   N     0.50001   0.83334   0.38093   0.00000  Uiso   1.00
O695   O     0.50000   0.77225   0.53821   0.00000  Uiso   1.00
O696   O     0.50000   0.89442   0.46179   0.00000  Uiso   1.00
O697   O     0.50000   0.77226   0.46176   0.00000  Uiso   1.00
O698   O     0.50000   0.89441   0.53824   0.00000  Uiso   1.00
O699   O     0.42392   0.83333   0.52928   0.00000  Uiso   1.00
O700   O     0.57608   0.83334   0.47072   0.00000  Uiso   1.00
O701   O     0.42392   0.83334   0.45284   0.00000  Uiso   1.00
O702   O     0.57608   0.83333   0.54716   0.00000  Uiso   1.00
Zn703  Zn    0.50000   0.83333   0.55104   0.00000  Uiso   1.00
Zn704  Zn    0.50000   0.83334   0.44896   0.00000  Uiso   1.00
C705   C     0.66113   0.79016   0.45221   0.00000  Uiso   1.00
H706   H     0.34377   0.78682   0.42035   0.00000  Uiso   1.00
O707   O     0.63040   0.76382   0.46230   0.00000  Uiso   1.00
C708   C     0.33889   0.87648   0.54779   0.00000  Uiso   1.00
H709   H     0.65632   0.87978   0.57971   0.00000  Uiso   1.00
O710   O     0.36954   0.90287   0.53765   0.00000  Uiso   1.00
F711   F     0.45040   0.95897   0.42412   0.00000  Uiso   1.00
F712   F     0.54960   0.70770   0.57588   0.00000  Uiso   1.00
F713   F     0.56613   0.88455   0.38761   0.00000  Uiso   1.00
F714   F     0.43387   0.78212   0.61239   0.00000  Uiso   1.00
C715   C     0.83373   0.75335   0.50014   0.00000  Uiso   1.00
C716   C     0.83294   0.91332   0.49986   0.00000  Uiso   1.00
C717   C     0.73393   0.83279   0.48840   0.00000  Uiso   1.00
C718   C     0.93273   0.83387   0.51159   0.00000  Uiso   1.00
C719   C     0.68008   0.82477   0.48422   0.00000  Uiso   1.00
C720   C     0.98659   0.84188   0.51577   0.00000  Uiso   1.00
C721   C     0.80938   0.68849   0.46167   0.00000  Uiso   1.00
C722   C     0.85728   0.97818   0.53833   0.00000  Uiso   1.00
C723   C     0.80877   0.97905   0.46128   0.00000  Uiso   1.00
C724   C     0.85790   0.68762   0.53872   0.00000  Uiso   1.00
C725   C     0.83286   0.95745   0.49970   0.00000  Uiso   1.00
C726   C     0.83381   0.70922   0.50030   0.00000  Uiso   1.00
C727   C     0.86635   0.85889   0.36115   0.00000  Uiso   1.00
C728   C     0.80032   0.80778   0.63885   0.00000  Uiso   1.00
C729   C     0.86630   0.85886   0.64654   0.00000  Uiso   1.00
C730   C     0.80036   0.80780   0.35346   0.00000  Uiso   1.00
H731   H     0.79020   0.70537   0.43220   0.00000  Uiso   1.00
H732   H     0.87647   0.96130   0.56780   0.00000  Uiso   1.00
H733   H     0.89265   0.87928   0.63144   0.00000  Uiso   1.00
H734   H     0.77401   0.78739   0.36856   0.00000  Uiso   1.00
N735   N     0.83332   0.83332   0.61907   0.00000  Uiso   1.00
N736   N     0.83335   0.83334   0.38093   0.00000  Uiso   1.00
O737   O     0.83333   0.77225   0.53821   0.00000  Uiso   1.00
O738   O     0.83334   0.89442   0.46179   0.00000  Uiso   1.00
O739   O     0.83333   0.77226   0.46176   0.00000  Uiso   1.00
O740   O     0.83334   0.89441   0.53824   0.00000  Uiso   1.00
O741   O     0.75725   0.83333   0.52928   0.00000  Uiso   1.00
O742   O     0.90942   0.83334   0.47072   0.00000  Uiso   1.00
O743   O     0.75725   0.83334   0.45284   0.00000  Uiso   1.00
O744   O     0.90942   0.83333   0.54716   0.00000  Uiso   1.00
Zn745  Zn    0.83333   0.83333   0.55104   0.00000  Uiso   1.00
Zn746  Zn    0.83333   0.83334   0.44896   0.00000  Uiso   1.00
C747   C     0.99446   0.79016   0.45221   0.00000  Uiso   1.00
H748   H     0.67710   0.78682   0.42035   0.00000  Uiso   1.00
O749   O     0.96373   0.76382   0.46230   0.00000  Uiso   1.00
C750   C     0.67222   0.87648   0.54779   0.00000  Uiso   1.00
H751   H     0.98965   0.87978   0.57971   0.00000  Uiso   1.00
O752   O     0.70287   0.90287   0.53765   0.00000  Uiso   1.00
F753   F     0.78373   0.95897   0.42412   0.00000  Uiso   1.00
F754   F     0.88294   0.70770   0.57588   0.00000  Uiso   1.00
F755   F     0.89946   0.88455   0.38761   0.00000  Uiso   1.00
F756   F     0.76721   0.78212   0.61239   0.00000  Uiso   1.00
C757   C     0.16706   0.08668   0.83347   0.00000  Uiso   1.00
C758   C     0.16627   0.24665   0.83320   0.00000  Uiso   1.00
C759   C     0.06727   0.16612   0.82174   0.00000  Uiso   1.00
C760   C     0.26607   0.16720   0.84493   0.00000  Uiso   1.00
C761   C     0.01341   0.15811   0.81756   0.00000  Uiso   1.00
C762   C     0.31993   0.17521   0.84911   0.00000  Uiso   1.00
C763   C     0.14272   0.02182   0.79501   0.00000  Uiso   1.00
C764   C     0.19062   0.31151   0.87166   0.00000  Uiso   1.00
C765   C     0.14210   0.31238   0.79461   0.00000  Uiso   1.00
C766   C     0.19123   0.02095   0.87205   0.00000  Uiso   1.00
C767   C     0.16619   0.29078   0.83303   0.00000  Uiso   1.00
C768   C     0.16714   0.04255   0.83364   0.00000  Uiso   1.00
C769   C     0.19968   0.19222   0.69448   0.00000  Uiso   1.00
C770   C     0.13365   0.14111   0.97219   0.00000  Uiso   1.00
C771   C     0.19964   0.19220   0.97987   0.00000  Uiso   1.00
C772   C     0.13370   0.14114   0.68679   0.00000  Uiso   1.00
H773   H     0.12353   0.03870   0.76554   0.00000  Uiso   1.00
H774   H     0.20980   0.29463   0.90113   0.00000  Uiso   1.00
H775   H     0.22599   0.21261   0.96477   0.00000  Uiso   1.00
H776   H     0.10735   0.12072   0.70190   0.00000  Uiso   1.00
N777   N     0.16665   0.16666   0.95240   0.00000  Uiso   1.00
N778   N     0.16668   0.16668   0.71427   0.00000  Uiso   1.00
O779   O     0.16666   0.10558   0.87154   0.00000  Uiso   1.00
O780   O     0.16667   0.22775   0.79513   0.00000  Uiso   1.00
O781   O     0.16666   0.10559   0.79510   0.00000  Uiso   1.00
O782   O     0.16667   0.22774   0.87157   0.00000  Uiso   1.00
O783   O     0.09058   0.16666   0.86261   0.00000  Uiso   1.00
O784   O     0.24275   0.16667   0.80405   0.00000  Uiso   1.00
O785   O     0.09058   0.16667   0.78617   0.00000  Uiso   1.00
O786   O     0.24275   0.16666   0.88050   0.00000  Uiso   1.00
Zn787  Zn    0.16667   0.16666   0.88437   0.00000  Uiso   1.00
Zn788  Zn    0.16667   0.16667   0.78229   0.00000  Uiso   1.00
C789   C     0.32779   0.12350   0.78554   0.00000  Uiso   1.00
H790   H     0.01043   0.12015   0.75368   0.00000  Uiso   1.00
O791   O     0.29706   0.09715   0.79563   0.00000  Uiso   1.00
C792   C     0.00555   0.20981   0.88112   0.00000  Uiso   1.00
H793   H     0.32298   0.21312   0.91304   0.00000  Uiso   1.00
O794   O     0.03620   0.23620   0.87099   0.00000  Uiso   1.00
F795   F     0.11706   0.29230   0.75746   0.00000  Uiso   1.00
F796   F     0.21627   0.04103   0.90921   0.00000  Uiso   1.00
F797   F     0.23279   0.21788   0.72094   0.00000  Uiso   1.00
F798   F     0.10054   0.11545   0.94573   0.00000  Uiso   1.00
C799   C     0.50039   0.08668   0.83347   0.00000  Uiso   1.00
C800   C     0.49961   0.24665   0.83320   0.00000  Uiso   1.00
C801   C     0.40060   0.16612   0.82174   0.00000  Uiso   1.00
C802   C     0.59940   0.16720   0.84493   0.00000  Uiso   1.00
C803   C     0.34674   0.15811   0.81756   0.00000  Uiso   1.00
C804   C     0.65326   0.17521   0.84911   0.00000  Uiso   1.00
C805   C     0.47605   0.02182   0.79501   0.00000  Uiso   1.00
C806   C     0.52395   0.31151   0.87166   0.00000  Uiso   1.00
C807   C     0.47544   0.31238   0.79461   0.00000  Uiso   1.00
C808   C     0.52456   0.02095   0.87205   0.00000  Uiso   1.00
C809   C     0.49952   0.29078   0.83303   0.00000  Uiso   1.00
C810   C     0.50048   0.04255   0.83364   0.00000  Uiso   1.00
C811   C     0.53301   0.19222   0.69448   0.00000  Uiso   1.00
C812   C     0.46699   0.14111   0.97219   0.00000  Uiso   1.00
C813   C     0.53297   0.19220   0.97987   0.00000  Uiso   1.00
C814   C     0.46703   0.14114   0.68679   0.00000  Uiso   1.00
H815   H     0.45687   0.03870   0.76554   0.00000  Uiso   1.00
H816   H     0.54313   0.29463   0.90113   0.00000  Uiso   1.00
H817   H     0.55932   0.21261   0.96477   0.00000  Uiso   1.00
H818   H     0.44068   0.12072   0.70190   0.00000  Uiso   1.00
N819   N     0.49999   0.16666   0.95240   0.00000  Uiso   1.00
N820   N     0.50001   0.16668   0.71427   0.00000  Uiso   1.00
O821   O     0.50000   0.10558   0.87154   0.00000  Uiso   1.00
O822   O     0.50000   0.22775   0.79513   0.00000  Uiso   1.00
O823   O     0.50000   0.10559   0.79510   0.00000  Uiso   1.00
O824   O     0.50000   0.22774   0.87157   0.00000  Uiso   1.00
O825   O     0.42392   0.16666   0.86261   0.00000  Uiso   1.00
O826   O     0.57608   0.16667   0.80405   0.00000  Uiso   1.00
O827   O     0.42392   0.16667   0.78617   0.00000  Uiso   1.00
O828   O     0.57608   0.16666   0.88050   0.00000  Uiso   1.00
Zn829  Zn    0.50000   0.16666   0.88437   0.00000  Uiso   1.00
Zn830  Zn    0.50000   0.16667   0.78229   0.00000  Uiso   1.00
C831   C     0.66113   0.12350   0.78554   0.00000  Uiso   1.00
H832   H     0.34377   0.12015   0.75368   0.00000  Uiso   1.00
O833   O     0.63040   0.09715   0.79563   0.00000  Uiso   1.00
C834   C     0.33889   0.20981   0.88112   0.00000  Uiso   1.00
H835   H     0.65632   0.21312   0.91304   0.00000  Uiso   1.00
O836   O     0.36954   0.23620   0.87099   0.00000  Uiso   1.00
F837   F     0.45040   0.29230   0.75746   0.00000  Uiso   1.00
F838   F     0.54960   0.04103   0.90921   0.00000  Uiso   1.00
F839   F     0.56613   0.21788   0.72094   0.00000  Uiso   1.00
F840   F     0.43387   0.11545   0.94573   0.00000  Uiso   1.00
C841   C     0.83373   0.08668   0.83347   0.00000  Uiso   1.00
C842   C     0.83294   0.24665   0.83320   0.00000  Uiso   1.00
C843   C     0.73393   0.16612   0.82174   0.00000  Uiso   1.00
C844   C     0.93273   0.16720   0.84493   0.00000  Uiso   1.00
C845   C     0.68008   0.15811   0.81756   0.00000  Uiso   1.00
C846   C     0.98659   0.17521   0.84911   0.00000  Uiso   1.00
C847   C     0.80938   0.02182   0.79501   0.00000  Uiso   1.00
C848   C     0.85728   0.31151   0.87166   0.00000  Uiso   1.00
C849   C     0.80877   0.31238   0.79461   0.00000  Uiso   1.00
C850   C     0.85790   0.02095   0.87205   0.00000  Uiso   1.00
C851   C     0.83286   0.29078   0.83303   0.00000  Uiso   1.00
C852   C     0.83381   0.04255   0.83364   0.00000  Uiso   1.00
C853   C     0.86635   0.19222   0.69448   0.00000  Uiso   1.00
C854   C     0.80032   0.14111   0.97219   0.00000  Uiso   1.00
C855   C     0.86630   0.19220   0.97987   0.00000  Uiso   1.00
C856   C     0.80036   0.14114   0.68679   0.00000  Uiso   1.00
H857   H     0.79020   0.03870   0.76554   0.00000  Uiso   1.00
H858   H     0.87647   0.29463   0.90113   0.00000  Uiso   1.00
H859   H     0.89265   0.21261   0.96477   0.00000  Uiso   1.00
H860   H     0.77401   0.12072   0.70190   0.00000  Uiso   1.00
N861   N     0.83332   0.16666   0.95240   0.00000  Uiso   1.00
N862   N     0.83335   0.16668   0.71427   0.00000  Uiso   1.00
O863   O     0.83333   0.10558   0.87154   0.00000  Uiso   1.00
O864   O     0.83334   0.22775   0.79513   0.00000  Uiso   1.00
O865   O     0.83333   0.10559   0.79510   0.00000  Uiso   1.00
O866   O     0.83334   0.22774   0.87157   0.00000  Uiso   1.00
O867   O     0.75725   0.16666   0.86261   0.00000  Uiso   1.00
O868   O     0.90942   0.16667   0.80405   0.00000  Uiso   1.00
O869   O     0.75725   0.16667   0.78617   0.00000  Uiso   1.00
O870   O     0.90942   0.16666   0.88050   0.00000  Uiso   1.00
Zn871  Zn    0.83333   0.16666   0.88437   0.00000  Uiso   1.00
Zn872  Zn    0.83333   0.16667   0.78229   0.00000  Uiso   1.00
C873   C     0.99446   0.12350   0.78554   0.00000  Uiso   1.00
H874   H     0.67710   0.12015   0.75368   0.00000  Uiso   1.00
O875   O     0.96373   0.09715   0.79563   0.00000  Uiso   1.00
C876   C     0.67222   0.20981   0.88112   0.00000  Uiso   1.00
H877   H     0.98965   0.21312   0.91304   0.00000  Uiso   1.00
O878   O     0.70287   0.23620   0.87099   0.00000  Uiso   1.00
F879   F     0.78373   0.29230   0.75746   0.00000  Uiso   1.00
F880   F     0.88294   0.04103   0.90921   0.00000  Uiso   1.00
F881   F     0.89946   0.21788   0.72094   0.00000  Uiso   1.00
F882   F     0.76721   0.11545   0.94573   0.00000  Uiso   1.00
C883   C     0.16706   0.42002   0.83347   0.00000  Uiso   1.00
C884   C     0.16627   0.57998   0.83320   0.00000  Uiso   1.00
C885   C     0.06727   0.49946   0.82174   0.00000  Uiso   1.00
C886   C     0.26607   0.50053   0.84493   0.00000  Uiso   1.00
C887   C     0.01341   0.49144   0.81756   0.00000  Uiso   1.00
C888   C     0.31993   0.50854   0.84911   0.00000  Uiso   1.00
C889   C     0.14272   0.35515   0.79501   0.00000  Uiso   1.00
C890   C     0.19062   0.64485   0.87166   0.00000  Uiso   1.00
C891   C     0.14210   0.64572   0.79461   0.00000  Uiso   1.00
C892   C     0.19123   0.35428   0.87205   0.00000  Uiso   1.00
C893   C     0.16619   0.62411   0.83303   0.00000  Uiso   1.00
C894   C     0.16714   0.37589   0.83364   0.00000  Uiso   1.00
C895   C     0.19968   0.52556   0.69448   0.00000  Uiso   1.00
C896   C     0.13365   0.47444   0.97219   0.00000  Uiso   1.00
C897   C     0.19964   0.52553   0.97987   0.00000  Uiso   1.00
C898   C     0.13370   0.47447   0.68679   0.00000  Uiso   1.00
H899   H     0.12353   0.37204   0.76554   0.00000  Uiso   1.00
H900   H     0.20980   0.62796   0.90113   0.00000  Uiso   1.00
H901   H     0.22599   0.54594   0.96477   0.00000  Uiso   1.00
H902   H     0.10735   0.45405   0.70190   0.00000  Uiso   1.00
N903   N     0.16665   0.49999   0.95240   0.00000  Uiso   1.00
N904   N     0.16668   0.50001   0.71427   0.00000  Uiso   1.00
O905   O     0.16666   0.43892   0.87154   0.00000  Uiso   1.00
O906   O     0.16667   0.56108   0.79513   0.00000  Uiso   1.00
O907   O     0.16666   0.43893   0.79510   0.00000  Uiso   1.00
O908   O     0.16667   0.56107   0.87157   0.00000  Uiso   1.00
O909   O     0.09058   0.50000   0.86261   0.00000  Uiso   1.00
O910   O     0.24275   0.50000   0.80405   0.00000  Uiso   1.00
O911   O     0.09058   0.50000   0.78617   0.00000  Uiso   1.00
O912   O     0.24275   0.50000   0.88050   0.00000  Uiso   1.00
Zn913  Zn    0.16667   0.49999   0.88437   0.00000  Uiso   1.00
Zn914  Zn    0.16667   0.50001   0.78229   0.00000  Uiso   1.00
C915   C     0.32779   0.45683   0.78554   0.00000  Uiso   1.00
H916   H     0.01043   0.45348   0.75368   0.00000  Uiso   1.00
O917   O     0.29706   0.43049   0.79563   0.00000  Uiso   1.00
C918   C     0.00555   0.54315   0.88112   0.00000  Uiso   1.00
H919   H     0.32298   0.54645   0.91304   0.00000  Uiso   1.00
O920   O     0.03620   0.56954   0.87099   0.00000  Uiso   1.00
F921   F     0.11706   0.62563   0.75746   0.00000  Uiso   1.00
F922   F     0.21627   0.37437   0.90921   0.00000  Uiso   1.00
F923   F     0.23279   0.55121   0.72094   0.00000  Uiso   1.00
F924   F     0.10054   0.44879   0.94573   0.00000  Uiso   1.00
C925   C     0.50039   0.42002   0.83347   0.00000  Uiso   1.00
C926   C     0.49961   0.57998   0.83320   0.00000  Uiso   1.00
C927   C     0.40060   0.49946   0.82174   0.00000  Uiso   1.00
C928   C     0.59940   0.50053   0.84493   0.00000  Uiso   1.00
C929   C     0.34674   0.49144   0.81756   0.00000  Uiso   1.00
C930   C     0.65326   0.50854   0.84911   0.00000  Uiso   1.00
C931   C     0.47605   0.35515   0.79501   0.00000  Uiso   1.00
C932   C     0.52395   0.64485   0.87166   0.00000  Uiso   1.00
C933   C     0.47544   0.64572   0.79461   0.00000  Uiso   1.00
C934   C     0.52456   0.35428   0.87205   0.00000  Uiso   1.00
C935   C     0.49952   0.62411   0.83303   0.00000  Uiso   1.00
C936   C     0.50048   0.37589   0.83364   0.00000  Uiso   1.00
C937   C     0.53301   0.52556   0.69448   0.00000  Uiso   1.00
C938   C     0.46699   0.47444   0.97219   0.00000  Uiso   1.00
C939   C     0.53297   0.52553   0.97987   0.00000  Uiso   1.00
C940   C     0.46703   0.47447   0.68679   0.00000  Uiso   1.00
H941   H     0.45687   0.37204   0.76554   0.00000  Uiso   1.00
H942   H     0.54313   0.62796   0.90113   0.00000  Uiso   1.00
H943   H     0.55932   0.54594   0.96477   0.00000  Uiso   1.00
H944   H     0.44068   0.45405   0.70190   0.00000  Uiso   1.00
N945   N     0.49999   0.49999   0.95240   0.00000  Uiso   1.00
N946   N     0.50001   0.50001   0.71427   0.00000  Uiso   1.00
O947   O     0.50000   0.43892   0.87154   0.00000  Uiso   1.00
O948   O     0.50000   0.56108   0.79513   0.00000  Uiso   1.00
O949   O     0.50000   0.43893   0.79510   0.00000  Uiso   1.00
O950   O     0.50000   0.56107   0.87157   0.00000  Uiso   1.00
O951   O     0.42392   0.50000   0.86261   0.00000  Uiso   1.00
O952   O     0.57608   0.50000   0.80405   0.00000  Uiso   1.00
O953   O     0.42392   0.50000   0.78617   0.00000  Uiso   1.00
O954   O     0.57608   0.50000   0.88050   0.00000  Uiso   1.00
Zn955  Zn    0.50000   0.49999   0.88437   0.00000  Uiso   1.00
Zn956  Zn    0.50000   0.50001   0.78229   0.00000  Uiso   1.00
C957   C     0.66113   0.45683   0.78554   0.00000  Uiso   1.00
H958   H     0.34377   0.45348   0.75368   0.00000  Uiso   1.00
O959   O     0.63040   0.43049   0.79563   0.00000  Uiso   1.00
C960   C     0.33889   0.54315   0.88112   0.00000  Uiso   1.00
H961   H     0.65632   0.54645   0.91304   0.00000  Uiso   1.00
O962   O     0.36954   0.56954   0.87099   0.00000  Uiso   1.00
F963   F     0.45040   0.62563   0.75746   0.00000  Uiso   1.00
F964   F     0.54960   0.37437   0.90921   0.00000  Uiso   1.00
F965   F     0.56613   0.55121   0.72094   0.00000  Uiso   1.00
F966   F     0.43387   0.44879   0.94573   0.00000  Uiso   1.00
C967   C     0.83373   0.42002   0.83347   0.00000  Uiso   1.00
C968   C     0.83294   0.57998   0.83320   0.00000  Uiso   1.00
C969   C     0.73393   0.49946   0.82174   0.00000  Uiso   1.00
C970   C     0.93273   0.50053   0.84493   0.00000  Uiso   1.00
C971   C     0.68008   0.49144   0.81756   0.00000  Uiso   1.00
C972   C     0.98659   0.50854   0.84911   0.00000  Uiso   1.00
C973   C     0.80938   0.35515   0.79501   0.00000  Uiso   1.00
C974   C     0.85728   0.64485   0.87166   0.00000  Uiso   1.00
C975   C     0.80877   0.64572   0.79461   0.00000  Uiso   1.00
C976   C     0.85790   0.35428   0.87205   0.00000  Uiso   1.00
C977   C     0.83286   0.62411   0.83303   0.00000  Uiso   1.00
C978   C     0.83381   0.37589   0.83364   0.00000  Uiso   1.00
C979   C     0.86635   0.52556   0.69448   0.00000  Uiso   1.00
C980   C     0.80032   0.47444   0.97219   0.00000  Uiso   1.00
C981   C     0.86630   0.52553   0.97987   0.00000  Uiso   1.00
C982   C     0.80036   0.47447   0.68679   0.00000  Uiso   1.00
H983   H     0.79020   0.37204   0.76554   0.00000  Uiso   1.00
H984   H     0.87647   0.62796   0.90113   0.00000  Uiso   1.00
H985   H     0.89265   0.54594   0.96477   0.00000  Uiso   1.00
H986   H     0.77401   0.45405   0.70190   0.00000  Uiso   1.00
N987   N     0.83332   0.49999   0.95240   0.00000  Uiso   1.00
N988   N     0.83335   0.50001   0.71427   0.00000  Uiso   1.00
O989   O     0.83333   0.43892   0.87154   0.00000  Uiso   1.00
O990   O     0.83334   0.56108   0.79513   0.00000  Uiso   1.00
O991   O     0.83333   0.43893   0.79510   0.00000  Uiso   1.00
O992   O     0.83334   0.56107   0.87157   0.00000  Uiso   1.00
O993   O     0.75725   0.50000   0.86261   0.00000  Uiso   1.00
O994   O     0.90942   0.50000   0.80405   0.00000  Uiso   1.00
O995   O     0.75725   0.50000   0.78617   0.00000  Uiso   1.00
O996   O     0.90942   0.50000   0.88050   0.00000  Uiso   1.00
Zn997  Zn    0.83333   0.49999   0.88437   0.00000  Uiso   1.00
Zn998  Zn    0.83333   0.50001   0.78229   0.00000  Uiso   1.00
C999   C     0.99446   0.45683   0.78554   0.00000  Uiso   1.00
H1000  H     0.67710   0.45348   0.75368   0.00000  Uiso   1.00
O1001  O     0.96373   0.43049   0.79563   0.00000  Uiso   1.00
C1002  C     0.67222   0.54315   0.88112   0.00000  Uiso   1.00
H1003  H     0.98965   0.54645   0.91304   0.00000  Uiso   1.00
O1004  O     0.70287   0.56954   0.87099   0.00000  Uiso   1.00
F1005  F     0.78373   0.62563   0.75746   0.00000  Uiso   1.00
F1006  F     0.88294   0.37437   0.90921   0.00000  Uiso   1.00
F1007  F     0.89946   0.55121   0.72094   0.00000  Uiso   1.00
F1008  F     0.76721   0.44879   0.94573   0.00000  Uiso   1.00
C1009  C     0.16706   0.75335   0.83347   0.00000  Uiso   1.00
C1010  C     0.16627   0.91332   0.83320   0.00000  Uiso   1.00
C1011  C     0.06727   0.83279   0.82174   0.00000  Uiso   1.00
C1012  C     0.26607   0.83387   0.84493   0.00000  Uiso   1.00
C1013  C     0.01341   0.82477   0.81756   0.00000  Uiso   1.00
C1014  C     0.31993   0.84188   0.84911   0.00000  Uiso   1.00
C1015  C     0.14272   0.68849   0.79501   0.00000  Uiso   1.00
C1016  C     0.19062   0.97818   0.87166   0.00000  Uiso   1.00
C1017  C     0.14210   0.97905   0.79461   0.00000  Uiso   1.00
C1018  C     0.19123   0.68762   0.87205   0.00000  Uiso   1.00
C1019  C     0.16619   0.95745   0.83303   0.00000  Uiso   1.00
C1020  C     0.16714   0.70922   0.83364   0.00000  Uiso   1.00
C1021  C     0.19968   0.85889   0.69448   0.00000  Uiso   1.00
C1022  C     0.13365   0.80778   0.97219   0.00000  Uiso   1.00
C1023  C     0.19964   0.85886   0.97987   0.00000  Uiso   1.00
C1024  C     0.13370   0.80780   0.68679   0.00000  Uiso   1.00
H1025  H     0.12353   0.70537   0.76554   0.00000  Uiso   1.00
H1026  H     0.20980   0.96130   0.90113   0.00000  Uiso   1.00
H1027  H     0.22599   0.87928   0.96477   0.00000  Uiso   1.00
H1028  H     0.10735   0.78739   0.70190   0.00000  Uiso   1.00
N1029  N     0.16665   0.83332   0.95240   0.00000  Uiso   1.00
N1030  N     0.16668   0.83334   0.71427   0.00000  Uiso   1.00
O1031  O     0.16666   0.77225   0.87154   0.00000  Uiso   1.00
O1032  O     0.16667   0.89442   0.79513   0.00000  Uiso   1.00
O1033  O     0.16666   0.77226   0.79510   0.00000  Uiso   1.00
O1034  O     0.16667   0.89441   0.87157   0.00000  Uiso   1.00
O1035  O     0.09058   0.83333   0.86261   0.00000  Uiso   1.00
O1036  O     0.24275   0.83334   0.80405   0.00000  Uiso   1.00
O1037  O     0.09058   0.83334   0.78617   0.00000  Uiso   1.00
O1038  O     0.24275   0.83333   0.88050   0.00000  Uiso   1.00
Zn1039 Zn    0.16667   0.83333   0.88437   0.00000  Uiso   1.00
Zn1040 Zn    0.16667   0.83334   0.78229   0.00000  Uiso   1.00
C1041  C     0.32779   0.79016   0.78554   0.00000  Uiso   1.00
H1042  H     0.01043   0.78682   0.75368   0.00000  Uiso   1.00
O1043  O     0.29706   0.76382   0.79563   0.00000  Uiso   1.00
C1044  C     0.00555   0.87648   0.88112   0.00000  Uiso   1.00
H1045  H     0.32298   0.87978   0.91304   0.00000  Uiso   1.00
O1046  O     0.03620   0.90287   0.87099   0.00000  Uiso   1.00
F1047  F     0.11706   0.95897   0.75746   0.00000  Uiso   1.00
F1048  F     0.21627   0.70770   0.90921   0.00000  Uiso   1.00
F1049  F     0.23279   0.88455   0.72094   0.00000  Uiso   1.00
F1050  F     0.10054   0.78212   0.94573   0.00000  Uiso   1.00
C1051  C     0.50039   0.75335   0.83347   0.00000  Uiso   1.00
C1052  C     0.49961   0.91332   0.83320   0.00000  Uiso   1.00
C1053  C     0.40060   0.83279   0.82174   0.00000  Uiso   1.00
C1054  C     0.59940   0.83387   0.84493   0.00000  Uiso   1.00
C1055  C     0.34674   0.82477   0.81756   0.00000  Uiso   1.00
C1056  C     0.65326   0.84188   0.84911   0.00000  Uiso   1.00
C1057  C     0.47605   0.68849   0.79501   0.00000  Uiso   1.00
C1058  C     0.52395   0.97818   0.87166   0.00000  Uiso   1.00
C1059  C     0.47544   0.97905   0.79461   0.00000  Uiso   1.00
C1060  C     0.52456   0.68762   0.87205   0.00000  Uiso   1.00
C1061  C     0.49952   0.95745   0.83303   0.00000  Uiso   1.00
C1062  C     0.50048   0.70922   0.83364   0.00000  Uiso   1.00
C1063  C     0.53301   0.85889   0.69448   0.00000  Uiso   1.00
C1064  C     0.46699   0.80778   0.97219   0.00000  Uiso   1.00
C1065  C     0.53297   0.85886   0.97987   0.00000  Uiso   1.00
C1066  C     0.46703   0.80780   0.68679   0.00000  Uiso   1.00
H1067  H     0.45687   0.70537   0.76554   0.00000  Uiso   1.00
H1068  H     0.54313   0.96130   0.90113   0.00000  Uiso   1.00
H1069  H     0.55932   0.87928   0.96477   0.00000  Uiso   1.00
H1070  H     0.44068   0.78739   0.70190   0.00000  Uiso   1.00
N1071  N     0.49999   0.83332   0.95240   0.00000  Uiso   1.00
N1072  N     0.50001   0.83334   0.71427   0.00000  Uiso   1.00
O1073  O     0.50000   0.77225   0.87154   0.00000  Uiso   1.00
O1074  O     0.50000   0.89442   0.79513   0.00000  Uiso   1.00
O1075  O     0.50000   0.77226   0.79510   0.00000  Uiso   1.00
O1076  O     0.50000   0.89441   0.87157   0.00000  Uiso   1.00
O1077  O     0.42392   0.83333   0.86261   0.00000  Uiso   1.00
O1078  O     0.57608   0.83334   0.80405   0.00000  Uiso   1.00
O1079  O     0.42392   0.83334   0.78617   0.00000  Uiso   1.00
O1080  O     0.57608   0.83333   0.88050   0.00000  Uiso   1.00
Zn1081 Zn    0.50000   0.83333   0.88437   0.00000  Uiso   1.00
Zn1082 Zn    0.50000   0.83334   0.78229   0.00000  Uiso   1.00
C1083  C     0.66113   0.79016   0.78554   0.00000  Uiso   1.00
H1084  H     0.34377   0.78682   0.75368   0.00000  Uiso   1.00
O1085  O     0.63040   0.76382   0.79563   0.00000  Uiso   1.00
C1086  C     0.33889   0.87648   0.88112   0.00000  Uiso   1.00
H1087  H     0.65632   0.87978   0.91304   0.00000  Uiso   1.00
O1088  O     0.36954   0.90287   0.87099   0.00000  Uiso   1.00
F1089  F     0.45040   0.95897   0.75746   0.00000  Uiso   1.00
F1090  F     0.54960   0.70770   0.90921   0.00000  Uiso   1.00
F1091  F     0.56613   0.88455   0.72094   0.00000  Uiso   1.00
F1092  F     0.43387   0.78212   0.94573   0.00000  Uiso   1.00
C1093  C     0.83373   0.75335   0.83347   0.00000  Uiso   1.00
C1094  C     0.83294   0.91332   0.83320   0.00000  Uiso   1.00
C1095  C     0.73393   0.83279   0.82174   0.00000  Uiso   1.00
C1096  C     0.93273   0.83387   0.84493   0.00000  Uiso   1.00
C1097  C     0.68008   0.82477   0.81756   0.00000  Uiso   1.00
C1098  C     0.98659   0.84188   0.84911   0.00000  Uiso   1.00
C1099  C     0.80938   0.68849   0.79501   0.00000  Uiso   1.00
C1100  C     0.85728   0.97818   0.87166   0.00000  Uiso   1.00
C1101  C     0.80877   0.97905   0.79461   0.00000  Uiso   1.00
C1102  C     0.85790   0.68762   0.87205   0.00000  Uiso   1.00
C1103  C     0.83286   0.95745   0.83303   0.00000  Uiso   1.00
C1104  C     0.83381   0.70922   0.83364   0.00000  Uiso   1.00
C1105  C     0.86635   0.85889   0.69448   0.00000  Uiso   1.00
C1106  C     0.80032   0.80778   0.97219   0.00000  Uiso   1.00
C1107  C     0.86630   0.85886   0.97987   0.00000  Uiso   1.00
C1108  C     0.80036   0.80780   0.68679   0.00000  Uiso   1.00
H1109  H     0.79020   0.70537   0.76554   0.00000  Uiso   1.00
H1110  H     0.87647   0.96130   0.90113   0.00000  Uiso   1.00
H1111  H     0.89265   0.87928   0.96477   0.00000  Uiso   1.00
H1112  H     0.77401   0.78739   0.70190   0.00000  Uiso   1.00
N1113  N     0.83332   0.83332   0.95240   0.00000  Uiso   1.00
N1114  N     0.83335   0.83334   0.71427   0.00000  Uiso   1.00
O1115  O     0.83333   0.77225   0.87154   0.00000  Uiso   1.00
O1116  O     0.83334   0.89442   0.79513   0.00000  Uiso   1.00
O1117  O     0.83333   0.77226   0.79510   0.00000  Uiso   1.00
O1118  O     0.83334   0.89441   0.87157   0.00000  Uiso   1.00
O1119  O     0.75725   0.83333   0.86261   0.00000  Uiso   1.00
O1120  O     0.90942   0.83334   0.80405   0.00000  Uiso   1.00
O1121  O     0.75725   0.83334   0.78617   0.00000  Uiso   1.00
O1122  O     0.90942   0.83333   0.88050   0.00000  Uiso   1.00
Zn1123 Zn    0.83333   0.83333   0.88437   0.00000  Uiso   1.00
Zn1124 Zn    0.83333   0.83334   0.78229   0.00000  Uiso   1.00
C1125  C     0.99446   0.79016   0.78554   0.00000  Uiso   1.00
H1126  H     0.67710   0.78682   0.75368   0.00000  Uiso   1.00
O1127  O     0.96373   0.76382   0.79563   0.00000  Uiso   1.00
C1128  C     0.67222   0.87648   0.88112   0.00000  Uiso   1.00
H1129  H     0.98965   0.87978   0.91304   0.00000  Uiso   1.00
O1130  O     0.70287   0.90287   0.87099   0.00000  Uiso   1.00
F1131  F     0.78373   0.95897   0.75746   0.00000  Uiso   1.00
F1132  F     0.88294   0.70770   0.90921   0.00000  Uiso   1.00
F1133  F     0.89946   0.88455   0.72094   0.00000  Uiso   1.00
F1134  F     0.76721   0.78212   0.94573   0.00000  Uiso   1.00
loop_
_geom_bond_atom_site_label_1
_geom_bond_atom_site_label_2
_geom_bond_distance
_geom_bond_site_symmetry_2
_ccdc_geom_bond_type
C1     O25     1.283   .     A
C1     C12     1.415   .     S
C1     O23     1.282   .     A
C2     O26     1.283   .     A
C2     C11     1.415   .     S
C2     O24     1.282   .     A
C3     O27     1.273   .     A
C3     O29     1.283   .     A
C3     C5      1.403   .     S
C4     O30     1.283   .     A
C4     C6      1.403   .     S
C4     O28     1.273   .     A
C5     C90     1.355   1_455 S
C5     C117    1.498   1_455 S
C6     C47     1.355   .     S
C6     C78     1.498   .     S
C7     C12     1.396   .     A
C7     H17     1.084   .     S
C7     C261    1.371   1_545 S
C8     C11     1.396   .     A
C8     H18     1.084   .     S
C8     C136    1.371   .     S
C9     C11     1.399   .     A
C9     F39     1.359   .     S
C9     C133    1.371   .     S
C10    C12     1.399   .     A
C10    F40     1.359   .     S
C10    C260    1.371   1_545 S
C13    F41     1.355   .     S
C13    N22     1.368   .     A
C13    C771    1.417   1_554 S
C14    F42     1.355   .     S
C14    N21     1.368   .     A
C14    C394    1.417   .     S
C15    H19     1.082   .     S
C15    N21     1.366   .     A
C15    C391    1.417   .     S
C16    H20     1.082   .     S
C16    N22     1.366   .     A
C16    C770    1.417   1_554 S
N21    Zn31    2.011   .     S
N22    Zn32    2.011   .     S
O23    Zn31    1.996   .     S
O24    Zn32    1.996   .     S
O25    Zn32    1.993   .     S
O26    Zn31    1.993   .     S
O27    Zn31    1.982   .     S
O28    Zn32    1.982   .     S
O29    Zn32    1.986   .     S
O30    Zn31    1.986   .     S
C33    O35     1.222   .     D
C33    C47     1.498   .     S
C33    H76     1.086   .     S
H34    C117    1.086   1_455 S
C36    O38     1.222   .     D
C36    C90     1.498   1_455 S
C36    H121    1.086   1_455 S
H37    C78     1.086   .     S
C43    O67     1.283   .     A
C43    C54     1.415   .     S
C43    O65     1.282   .     A
C44    O68     1.283   .     A
C44    C53     1.415   .     S
C44    O66     1.282   .     A
C45    O69     1.273   .     A
C45    O71     1.283   .     A
C45    C47     1.403   .     S
C46    O72     1.283   .     A
C46    C48     1.403   .     S
C46    O70     1.273   .     A
C48    C89     1.355   .     S
C48    C120    1.498   .     S
C49    C54     1.396   .     A
C49    H59     1.084   .     S
C49    C303    1.371   1_545 S
C50    C53     1.396   .     A
C50    H60     1.084   .     S
C50    C178    1.371   .     S
C51    C53     1.399   .     A
C51    F81     1.359   .     S
C51    C175    1.371   .     S
C52    C54     1.399   .     A
C52    F82     1.359   .     S
C52    C302    1.371   1_545 S
C55    F83     1.355   .     S
C55    N64     1.368   .     A
C55    C813    1.417   1_554 S
C56    F84     1.355   .     S
C56    N63     1.368   .     A
C56    C436    1.417   .     S
C57    H61     1.082   .     S
C57    N63     1.366   .     A
C57    C433    1.417   .     S
C58    H62     1.082   .     S
C58    N64     1.366   .     A
C58    C812    1.417   1_554 S
N63    Zn73    2.011   .     S
N64    Zn74    2.011   .     S
O65    Zn73    1.996   .     S
O66    Zn74    1.996   .     S
O67    Zn74    1.993   .     S
O68    Zn73    1.993   .     S
O69    Zn73    1.982   .     S
O70    Zn74    1.982   .     S
O71    Zn74    1.986   .     S
O72    Zn73    1.986   .     S
C75    O77     1.222   .     D
C75    C89     1.498   .     S
C75    H118    1.086   .     S
C78    O80     1.222   .     D
H79    C120    1.086   .     S
C85    O109    1.283   .     A
C85    C96     1.415   .     S
C85    O107    1.282   .     A
C86    O110    1.283   .     A
C86    C95     1.415   .     S
C86    O108    1.282   .     A
C87    O111    1.273   .     A
C87    O113    1.283   .     A
C87    C89     1.403   .     S
C88    O114    1.283   .     A
C88    C90     1.403   .     S
C88    O112    1.273   .     A
C90    C5      1.355   1_655 S
C90    C36     1.498   1_655 S
C91    C96     1.396   .     A
C91    H101    1.084   .     S
C91    C345    1.371   1_545 S
C92    C95     1.396   .     A
C92    H102    1.084   .     S
C92    C220    1.371   .     S
C93    C95     1.399   .     A
C93    F123    1.359   .     S
C93    C217    1.371   .     S
C94    C96     1.399   .     A
C94    F124    1.359   .     S
C94    C344    1.371   1_545 S
C97    F125    1.355   .     S
C97    N106    1.368   .     A
C97    C855    1.417   1_554 S
C98    F126    1.355   .     S
C98    N105    1.368   .     A
C98    C478    1.417   .     S
C99    H103    1.082   .     S
C99    N105    1.366   .     A
C99    C475    1.417   .     S
C100   H104    1.082   .     S
C100   N106    1.366   .     A
C100   C854    1.417   1_554 S
N105   Zn115   2.011   .     S
N106   Zn116   2.011   .     S
O107   Zn115   1.996   .     S
O108   Zn116   1.996   .     S
O109   Zn116   1.993   .     S
O110   Zn115   1.993   .     S
O111   Zn115   1.982   .     S
O112   Zn116   1.982   .     S
O113   Zn116   1.986   .     S
O114   Zn115   1.986   .     S
C117   O119    1.222   .     D
C117   C5      1.498   1_655 S
C117   H34     1.086   1_655 S
C120   O122    1.222   .     D
H121   C36     1.086   1_655 S
C127   O151    1.283   .     A
C127   C138    1.415   .     S
C127   O149    1.282   .     A
C128   O152    1.283   .     A
C128   C137    1.415   .     S
C128   O150    1.282   .     A
C129   O153    1.273   .     A
C129   O155    1.283   .     A
C129   C131    1.403   .     S
C130   O156    1.283   .     A
C130   C132    1.403   .     S
C130   O154    1.273   .     A
C131   C216    1.355   1_455 S
C131   C243    1.498   1_455 S
C132   C173    1.355   .     S
C132   C204    1.498   .     S
C133   C138    1.396   .     A
C133   H143    1.084   .     S
C134   C137    1.396   .     A
C134   H144    1.084   .     S
C134   C262    1.371   .     S
C135   C137    1.399   .     A
C135   F165    1.359   .     S
C135   C259    1.371   .     S
C136   C138    1.399   .     A
C136   F166    1.359   .     S
C139   F167    1.355   .     S
C139   N148    1.368   .     A
C139   C897    1.417   1_554 S
C140   F168    1.355   .     S
C140   N147    1.368   .     A
C140   C520    1.417   .     S
C141   H145    1.082   .     S
C141   N147    1.366   .     A
C141   C517    1.417   .     S
C142   H146    1.082   .     S
C142   N148    1.366   .     A
C142   C896    1.417   1_554 S
N147   Zn157   2.011   .     S
N148   Zn158   2.011   .     S
O149   Zn157   1.996   .     S
O150   Zn158   1.996   .     S
O151   Zn158   1.993   .     S
O152   Zn157   1.993   .     S
O153   Zn157   1.982   .     S
O154   Zn158   1.982   .     S
O155   Zn158   1.986   .     S
O156   Zn157   1.986   .     S
C159   O161    1.222   .     D
C159   C173    1.498   .     S
C159   H202    1.086   .     S
H160   C243    1.086   1_455 S
C162   O164    1.222   .     D
C162   C216    1.498   1_455 S
C162   H247    1.086   1_455 S
H163   C204    1.086   .     S
C169   O193    1.283   .     A
C169   C180    1.415   .     S
C169   O191    1.282   .     A
C170   O194    1.283   .     A
C170   C179    1.415   .     S
C170   O192    1.282   .     A
C171   O195    1.273   .     A
C171   O197    1.283   .     A
C171   C173    1.403   .     S
C172   O198    1.283   .     A
C172   C174    1.403   .     S
C172   O196    1.273   .     A
C174   C215    1.355   .     S
C174   C246    1.498   .     S
C175   C180    1.396   .     A
C175   H185    1.084   .     S
C176   C179    1.396   .     A
C176   H186    1.084   .     S
C176   C304    1.371   .     S
C177   C179    1.399   .     A
C177   F207    1.359   .     S
C177   C301    1.371   .     S
C178   C180    1.399   .     A
C178   F208    1.359   .     S
C181   F209    1.355   .     S
C181   N190    1.368   .     A
C181   C939    1.417   1_554 S
C182   F210    1.355   .     S
C182   N189    1.368   .     A
C182   C562    1.417   .     S
C183   H187    1.082   .     S
C183   N189    1.366   .     A
C183   C559    1.417   .     S
C184   H188    1.082   .     S
C184   N190    1.366   .     A
C184   C938    1.417   1_554 S
N189   Zn199   2.011   .     S
N190   Zn200   2.011   .     S
O191   Zn199   1.996   .     S
O192   Zn200   1.996   .     S
O193   Zn200   1.993   .     S
O194   Zn199   1.993   .     S
O195   Zn199   1.982   .     S
O196   Zn200   1.982   .     S
O197   Zn200   1.986   .     S
O198   Zn199   1.986   .     S
C201   O203    1.222   .     D
C201   C215    1.498   .     S
C201   H244    1.086   .     S
C204   O206    1.222   .     D
H205   C246    1.086   .     S
C211   O235    1.283   .     A
C211   C222    1.415   .     S
C211   O233    1.282   .     A
C212   O236    1.283   .     A
C212   C221    1.415   .     S
C212   O234    1.282   .     A
C213   O237    1.273   .     A
C213   O239    1.283   .     A
C213   C215    1.403   .     S
C214   O240    1.283   .     A
C214   C216    1.403   .     S
C214   O238    1.273   .     A
C216   C131    1.355   1_655 S
C216   C162    1.498   1_655 S
C217   C222    1.396   .     A
C217   H227    1.084   .     S
C218   C221    1.396   .     A
C218   H228    1.084   .     S
C218   C346    1.371   .     S
C219   C221    1.399   .     A
C219   F249    1.359   .     S
C219   C343    1.371   .     S
C220   C222    1.399   .     A
C220   F250    1.359   .     S
C223   F251    1.355   .     S
C223   N232    1.368   .     A
C223   C981    1.417   1_554 S
C224   F252    1.355   .     S
C224   N231    1.368   .     A
C224   C604    1.417   .     S
C225   H229    1.082   .     S
C225   N231    1.366   .     A
C225   C601    1.417   .     S
C226   H230    1.082   .     S
C226   N232    1.366   .     A
C226   C980    1.417   1_554 S
N231   Zn241   2.011   .     S
N232   Zn242   2.011   .     S
O233   Zn241   1.996   .     S
O234   Zn242   1.996   .     S
O235   Zn242   1.993   .     S
O236   Zn241   1.993   .     S
O237   Zn241   1.982   .     S
O238   Zn242   1.982   .     S
O239   Zn242   1.986   .     S
O240   Zn241   1.986   .     S
C243   O245    1.222   .     D
C243   C131    1.498   1_655 S
C243   H160    1.086   1_655 S
C246   O248    1.222   .     D
H247   C162    1.086   1_655 S
C253   O277    1.283   .     A
C253   C264    1.415   .     S
C253   O275    1.282   .     A
C254   O278    1.283   .     A
C254   C263    1.415   .     S
C254   O276    1.282   .     A
C255   O279    1.273   .     A
C255   O281    1.283   .     A
C255   C257    1.403   .     S
C256   O282    1.283   .     A
C256   C258    1.403   .     S
C256   O280    1.273   .     A
C257   C342    1.355   1_455 S
C257   C369    1.498   1_455 S
C258   C299    1.355   .     S
C258   C330    1.498   .     S
C259   C264    1.396   .     A
C259   H269    1.084   .     S
C260   C263    1.396   .     A
C260   H270    1.084   .     S
C260   C10     1.371   1_565 S
C261   C263    1.399   .     A
C261   F291    1.359   .     S
C261   C7      1.371   1_565 S
C262   C264    1.399   .     A
C262   F292    1.359   .     S
C265   F293    1.355   .     S
C265   N274    1.368   .     A
C265   C1023   1.417   1_554 S
C266   F294    1.355   .     S
C266   N273    1.368   .     A
C266   C646    1.417   .     S
C267   H271    1.082   .     S
C267   N273    1.366   .     A
C267   C643    1.417   .     S
C268   H272    1.082   .     S
C268   N274    1.366   .     A
C268   C1022   1.417   1_554 S
N273   Zn283   2.011   .     S
N274   Zn284   2.011   .     S
O275   Zn283   1.996   .     S
O276   Zn284   1.996   .     S
O277   Zn284   1.993   .     S
O278   Zn283   1.993   .     S
O279   Zn283   1.982   .     S
O280   Zn284   1.982   .     S
O281   Zn284   1.986   .     S
O282   Zn283   1.986   .     S
C285   O287    1.222   .     D
C285   C299    1.498   .     S
C285   H328    1.086   .     S
H286   C369    1.086   1_455 S
C288   O290    1.222   .     D
C288   C342    1.498   1_455 S
C288   H373    1.086   1_455 S
H289   C330    1.086   .     S
C295   O319    1.283   .     A
C295   C306    1.415   .     S
C295   O317    1.282   .     A
C296   O320    1.283   .     A
C296   C305    1.415   .     S
C296   O318    1.282   .     A
C297   O321    1.273   .     A
C297   O323    1.283   .     A
C297   C299    1.403   .     S
C298   O324    1.283   .     A
C298   C300    1.403   .     S
C298   O322    1.273   .     A
C300   C341    1.355   .     S
C300   C372    1.498   .     S
C301   C306    1.396   .     A
C301   H311    1.084   .     S
C302   C305    1.396   .     A
C302   H312    1.084   .     S
C302   C52     1.371   1_565 S
C303   C305    1.399   .     A
C303   F333    1.359   .     S
C303   C49     1.371   1_565 S
C304   C306    1.399   .     A
C304   F334    1.359   .     S
C307   F335    1.355   .     S
C307   N316    1.368   .     A
C307   C1065   1.417   1_554 S
C308   F336    1.355   .     S
C308   N315    1.368   .     A
C308   C688    1.417   .     S
C309   H313    1.082   .     S
C309   N315    1.366   .     A
C309   C685    1.417   .     S
C310   H314    1.082   .     S
C310   N316    1.366   .     A
C310   C1064   1.417   1_554 S
N315   Zn325   2.011   .     S
N316   Zn326   2.011   .     S
O317   Zn325   1.996   .     S
O318   Zn326   1.996   .     S
O319   Zn326   1.993   .     S
O320   Zn325   1.993   .     S
O321   Zn325   1.982   .     S
O322   Zn326   1.982   .     S
O323   Zn326   1.986   .     S
O324   Zn325   1.986   .     S
C327   O329    1.222   .     D
C327   C341    1.498   .     S
C327   H370    1.086   .     S
C330   O332    1.222   .     D
H331   C372    1.086   .     S
C337   O361    1.283   .     A
C337   C348    1.415   .     S
C337   O359    1.282   .     A
C338   O362    1.283   .     A
C338   C347    1.415   .     S
C338   O360    1.282   .     A
C339   O363    1.273   .     A
C339   O365    1.283   .     A
C339   C341    1.403   .     S
C340   O366    1.283   .     A
C340   C342    1.403   .     S
C340   O364    1.273   .     A
C342   C257    1.355   1_655 S
C342   C288    1.498   1_655 S
C343   C348    1.396   .     A
C343   H353    1.084   .     S
C344   C347    1.396   .     A
C344   H354    1.084   .     S
C344   C94     1.371   1_565 S
C345   C347    1.399   .     A
C345   F375    1.359   .     S
C345   C91     1.371   1_565 S
C346   C348    1.399   .     A
C346   F376    1.359   .     S
C349   F377    1.355   .     S
C349   N358    1.368   .     A
C349   C1107   1.417   1_554 S
C350   F378    1.355   .     S
C350   N357    1.368   .     A
C350   C730    1.417   .     S
C351   H355    1.082   .     S
C351   N357    1.366   .     A
C351   C727    1.417   .     S
C352   H356    1.082   .     S
C352   N358    1.366   .     A
C352   C1106   1.417   1_554 S
N357   Zn367   2.011   .     S
N358   Zn368   2.011   .     S
O359   Zn367   1.996   .     S
O360   Zn368   1.996   .     S
O361   Zn368   1.993   .     S
O362   Zn367   1.993   .     S
O363   Zn367   1.982   .     S
O364   Zn368   1.982   .     S
O365   Zn368   1.986   .     S
O366   Zn367   1.986   .     S
C369   O371    1.222   .     D
C369   C257    1.498   1_655 S
C369   H286    1.086   1_655 S
C372   O374    1.222   .     D
H373   C288    1.086   1_655 S
C379   O403    1.283   .     A
C379   C390    1.415   .     S
C379   O401    1.282   .     A
C380   O404    1.283   .     A
C380   C389    1.415   .     S
C380   O402    1.282   .     A
C381   O405    1.273   .     A
C381   O407    1.283   .     A
C381   C383    1.403   .     S
C382   O408    1.283   .     A
C382   C384    1.403   .     S
C382   O406    1.273   .     A
C383   C468    1.355   1_455 S
C383   C495    1.498   1_455 S
C384   C425    1.355   .     S
C384   C456    1.498   .     S
C385   C390    1.396   .     A
C385   H395    1.084   .     S
C385   C639    1.371   1_545 S
C386   C389    1.396   .     A
C386   H396    1.084   .     S
C386   C514    1.371   .     S
C387   C389    1.399   .     A
C387   F417    1.359   .     S
C387   C511    1.371   .     S
C388   C390    1.399   .     A
C388   F418    1.359   .     S
C388   C638    1.371   1_545 S
C391   F419    1.355   .     S
C391   N400    1.368   .     A
C392   F420    1.355   .     S
C392   N399    1.368   .     A
C392   C772    1.417   .     S
C393   H397    1.082   .     S
C393   N399    1.366   .     A
C393   C769    1.417   .     S
C394   H398    1.082   .     S
C394   N400    1.366   .     A
N399   Zn409   2.011   .     S
N400   Zn410   2.011   .     S
O401   Zn409   1.996   .     S
O402   Zn410   1.996   .     S
O403   Zn410   1.993   .     S
O404   Zn409   1.993   .     S
O405   Zn409   1.982   .     S
O406   Zn410   1.982   .     S
O407   Zn410   1.986   .     S
O408   Zn409   1.986   .     S
C411   O413    1.222   .     D
C411   C425    1.498   .     S
C411   H454    1.086   .     S
H412   C495    1.086   1_455 S
C414   O416    1.222   .     D
C414   C468    1.498   1_455 S
C414   H499    1.086   1_455 S
H415   C456    1.086   .     S
C421   O445    1.283   .     A
C421   C432    1.415   .     S
C421   O443    1.282   .     A
C422   O446    1.283   .     A
C422   C431    1.415   .     S
C422   O444    1.282   .     A
C423   O447    1.273   .     A
C423   O449    1.283   .     A
C423   C425    1.403   .     S
C424   O450    1.283   .     A
C424   C426    1.403   .     S
C424   O448    1.273   .     A
C426   C467    1.355   .     S
C426   C498    1.498   .     S
C427   C432    1.396   .     A
C427   H437    1.084   .     S
C427   C681    1.371   1_545 S
C428   C431    1.396   .     A
C428   H438    1.084   .     S
C428   C556    1.371   .     S
C429   C431    1.399   .     A
C429   F459    1.359   .     S
C429   C553    1.371   .     S
C430   C432    1.399   .     A
C430   F460    1.359   .     S
C430   C680    1.371   1_545 S
C433   F461    1.355   .     S
C433   N442    1.368   .     A
C434   F462    1.355   .     S
C434   N441    1.368   .     A
C434   C814    1.417   .     S
C435   H439    1.082   .     S
C435   N441    1.366   .     A
C435   C811    1.417   .     S
C436   H440    1.082   .     S
C436   N442    1.366   .     A
N441   Zn451   2.011   .     S
N442   Zn452   2.011   .     S
O443   Zn451   1.996   .     S
O444   Zn452   1.996   .     S
O445   Zn452   1.993   .     S
O446   Zn451   1.993   .     S
O447   Zn451   1.982   .     S
O448   Zn452   1.982   .     S
O449   Zn452   1.986   .     S
O450   Zn451   1.986   .     S
C453   O455    1.222   .     D
C453   C467    1.498   .     S
C453   H496    1.086   .     S
C456   O458    1.222   .     D
H457   C498    1.086   .     S
C463   O487    1.283   .     A
C463   C474    1.415   .     S
C463   O485    1.282   .     A
C464   O488    1.283   .     A
C464   C473    1.415   .     S
C464   O486    1.282   .     A
C465   O489    1.273   .     A
C465   O491    1.283   .     A
C465   C467    1.403   .     S
C466   O492    1.283   .     A
C466   C468    1.403   .     S
C466   O490    1.273   .     A
C468   C383    1.355   1_655 S
C468   C414    1.498   1_655 S
C469   C474    1.396   .     A
C469   H479    1.084   .     S
C469   C723    1.371   1_545 S
C470   C473    1.396   .     A
C470   H480    1.084   .     S
C470   C598    1.371   .     S
C471   C473    1.399   .     A
C471   F501    1.359   .     S
C471   C595    1.371   .     S
C472   C474    1.399   .     A
C472   F502    1.359   .     S
C472   C722    1.371   1_545 S
C475   F503    1.355   .     S
C475   N484    1.368   .     A
C476   F504    1.355   .     S
C476   N483    1.368   .     A
C476   C856    1.417   .     S
C477   H481    1.082   .     S
C477   N483    1.366   .     A
C477   C853    1.417   .     S
C478   H482    1.082   .     S
C478   N484    1.366   .     A
N483   Zn493   2.011   .     S
N484   Zn494   2.011   .     S
O485   Zn493   1.996   .     S
O486   Zn494   1.996   .     S
O487   Zn494   1.993   .     S
O488   Zn493   1.993   .     S
O489   Zn493   1.982   .     S
O490   Zn494   1.982   .     S
O491   Zn494   1.986   .     S
O492   Zn493   1.986   .     S
C495   O497    1.222   .     D
C495   C383    1.498   1_655 S
C495   H412    1.086   1_655 S
C498   O500    1.222   .     D
H499   C414    1.086   1_655 S
C505   O529    1.283   .     A
C505   C516    1.415   .     S
C505   O527    1.282   .     A
C506   O530    1.283   .     A
C506   C515    1.415   .     S
C506   O528    1.282   .     A
C507   O531    1.273   .     A
C507   O533    1.283   .     A
C507   C509    1.403   .     S
C508   O534    1.283   .     A
C508   C510    1.403   .     S
C508   O532    1.273   .     A
C509   C594    1.355   1_455 S
C509   C621    1.498   1_455 S
C510   C551    1.355   .     S
C510   C582    1.498   .     S
C511   C516    1.396   .     A
C511   H521    1.084   .     S
C512   C515    1.396   .     A
C512   H522    1.084   .     S
C512   C640    1.371   .     S
C513   C515    1.399   .     A
C513   F543    1.359   .     S
C513   C637    1.371   .     S
C514   C516    1.399   .     A
C514   F544    1.359   .     S
C517   F545    1.355   .     S
C517   N526    1.368   .     A
C518   F546    1.355   .     S
C518   N525    1.368   .     A
C518   C898    1.417   .     S
C519   H523    1.082   .     S
C519   N525    1.366   .     A
C519   C895    1.417   .     S
C520   H524    1.082   .     S
C520   N526    1.366   .     A
N525   Zn535   2.011   .     S
N526   Zn536   2.011   .     S
O527   Zn535   1.996   .     S
O528   Zn536   1.996   .     S
O529   Zn536   1.993   .     S
O530   Zn535   1.993   .     S
O531   Zn535   1.982   .     S
O532   Zn536   1.982   .     S
O533   Zn536   1.986   .     S
O534   Zn535   1.986   .     S
C537   O539    1.222   .     D
C537   C551    1.498   .     S
C537   H580    1.086   .     S
H538   C621    1.086   1_455 S
C540   O542    1.222   .     D
C540   C594    1.498   1_455 S
C540   H625    1.086   1_455 S
H541   C582    1.086   .     S
C547   O571    1.283   .     A
C547   C558    1.415   .     S
C547   O569    1.282   .     A
C548   O572    1.283   .     A
C548   C557    1.415   .     S
C548   O570    1.282   .     A
C549   O573    1.273   .     A
C549   O575    1.283   .     A
C549   C551    1.403   .     S
C550   O576    1.283   .     A
C550   C552    1.403   .     S
C550   O574    1.273   .     A
C552   C593    1.355   .     S
C552   C624    1.498   .     S
C553   C558    1.396   .     A
C553   H563    1.084   .     S
C554   C557    1.396   .     A
C554   H564    1.084   .     S
C554   C682    1.371   .     S
C555   C557    1.399   .     A
C555   F585    1.359   .     S
C555   C679    1.371   .     S
C556   C558    1.399   .     A
C556   F586    1.359   .     S
C559   F587    1.355   .     S
C559   N568    1.368   .     A
C560   F588    1.355   .     S
C560   N567    1.368   .     A
C560   C940    1.417   .     S
C561   H565    1.082   .     S
C561   N567    1.366   .     A
C561   C937    1.417   .     S
C562   H566    1.082   .     S
C562   N568    1.366   .     A
N567   Zn577   2.011   .     S
N568   Zn578   2.011   .     S
O569   Zn577   1.996   .     S
O570   Zn578   1.996   .     S
O571   Zn578   1.993   .     S
O572   Zn577   1.993   .     S
O573   Zn577   1.982   .     S
O574   Zn578   1.982   .     S
O575   Zn578   1.986   .     S
O576   Zn577   1.986   .     S
C579   O581    1.222   .     D
C579   C593    1.498   .     S
C579   H622    1.086   .     S
C582   O584    1.222   .     D
H583   C624    1.086   .     S
C589   O613    1.283   .     A
C589   C600    1.415   .     S
C589   O611    1.282   .     A
C590   O614    1.283   .     A
C590   C599    1.415   .     S
C590   O612    1.282   .     A
C591   O615    1.273   .     A
C591   O617    1.283   .     A
C591   C593    1.403   .     S
C592   O618    1.283   .     A
C592   C594    1.403   .     S
C592   O616    1.273   .     A
C594   C509    1.355   1_655 S
C594   C540    1.498   1_655 S
C595   C600    1.396   .     A
C595   H605    1.084   .     S
C596   C599    1.396   .     A
C596   H606    1.084   .     S
C596   C724    1.371   .     S
C597   C599    1.399   .     A
C597   F627    1.359   .     S
C597   C721    1.371   .     S
C598   C600    1.399   .     A
C598   F628    1.359   .     S
C601   F629    1.355   .     S
C601   N610    1.368   .     A
C602   F630    1.355   .     S
C602   N609    1.368   .     A
C602   C982    1.417   .     S
C603   H607    1.082   .     S
C603   N609    1.366   .     A
C603   C979    1.417   .     S
C604   H608    1.082   .     S
C604   N610    1.366   .     A
N609   Zn619   2.011   .     S
N610   Zn620   2.011   .     S
O611   Zn619   1.996   .     S
O612   Zn620   1.996   .     S
O613   Zn620   1.993   .     S
O614   Zn619   1.993   .     S
O615   Zn619   1.982   .     S
O616   Zn620   1.982   .     S
O617   Zn620   1.986   .     S
O618   Zn619   1.986   .     S
C621   O623    1.222   .     D
C621   C509    1.498   1_655 S
C621   H538    1.086   1_655 S
C624   O626    1.222   .     D
H625   C540    1.086   1_655 S
C631   O655    1.283   .     A
C631   C642    1.415   .     S
C631   O653    1.282   .     A
C632   O656    1.283   .     A
C632   C641    1.415   .     S
C632   O654    1.282   .     A
C633   O657    1.273   .     A
C633   O659    1.283   .     A
C633   C635    1.403   .     S
C634   O660    1.283   .     A
C634   C636    1.403   .     S
C634   O658    1.273   .     A
C635   C720    1.355   1_455 S
C635   C747    1.498   1_455 S
C636   C677    1.355   .     S
C636   C708    1.498   .     S
C637   C642    1.396   .     A
C637   H647    1.084   .     S
C638   C641    1.396   .     A
C638   H648    1.084   .     S
C638   C388    1.371   1_565 S
C639   C641    1.399   .     A
C639   F669    1.359   .     S
C639   C385    1.371   1_565 S
C640   C642    1.399   .     A
C640   F670    1.359   .     S
C643   F671    1.355   .     S
C643   N652    1.368   .     A
C644   F672    1.355   .     S
C644   N651    1.368   .     A
C644   C1024   1.417   .     S
C645   H649    1.082   .     S
C645   N651    1.366   .     A
C645   C1021   1.417   .     S
C646   H650    1.082   .     S
C646   N652    1.366   .     A
N651   Zn661   2.011   .     S
N652   Zn662   2.011   .     S
O653   Zn661   1.996   .     S
O654   Zn662   1.996   .     S
O655   Zn662   1.993   .     S
O656   Zn661   1.993   .     S
O657   Zn661   1.982   .     S
O658   Zn662   1.982   .     S
O659   Zn662   1.986   .     S
O660   Zn661   1.986   .     S
C663   O665    1.222   .     D
C663   C677    1.498   .     S
C663   H706    1.086   .     S
H664   C747    1.086   1_455 S
C666   O668    1.222   .     D
C666   C720    1.498   1_455 S
C666   H751    1.086   1_455 S
H667   C708    1.086   .     S
C673   O697    1.283   .     A
C673   C684    1.415   .     S
C673   O695    1.282   .     A
C674   O698    1.283   .     A
C674   C683    1.415   .     S
C674   O696    1.282   .     A
C675   O699    1.273   .     A
C675   O701    1.283   .     A
C675   C677    1.403   .     S
C676   O702    1.283   .     A
C676   C678    1.403   .     S
C676   O700    1.273   .     A
C678   C719    1.355   .     S
C678   C750    1.498   .     S
C679   C684    1.396   .     A
C679   H689    1.084   .     S
C680   C683    1.396   .     A
C680   H690    1.084   .     S
C680   C430    1.371   1_565 S
C681   C683    1.399   .     A
C681   F711    1.359   .     S
C681   C427    1.371   1_565 S
C682   C684    1.399   .     A
C682   F712    1.359   .     S
C685   F713    1.355   .     S
C685   N694    1.368   .     A
C686   F714    1.355   .     S
C686   N693    1.368   .     A
C686   C1066   1.417   .     S
C687   H691    1.082   .     S
C687   N693    1.366   .     A
C687   C1063   1.417   .     S
C688   H692    1.082   .     S
C688   N694    1.366   .     A
N693   Zn703   2.011   .     S
N694   Zn704   2.011   .     S
O695   Zn703   1.996   .     S
O696   Zn704   1.996   .     S
O697   Zn704   1.993   .     S
O698   Zn703   1.993   .     S
O699   Zn703   1.982   .     S
O700   Zn704   1.982   .     S
O701   Zn704   1.986   .     S
O702   Zn703   1.986   .     S
C705   O707    1.222   .     D
C705   C719    1.498   .     S
C705   H748    1.086   .     S
C708   O710    1.222   .     D
H709   C750    1.086   .     S
C715   O739    1.283   .     A
C715   C726    1.415   .     S
C715   O737    1.282   .     A
C716   O740    1.283   .     A
C716   C725    1.415   .     S
C716   O738    1.282   .     A
C717   O741    1.273   .     A
C717   O743    1.283   .     A
C717   C719    1.403   .     S
C718   O744    1.283   .     A
C718   C720    1.403   .     S
C718   O742    1.273   .     A
C720   C635    1.355   1_655 S
C720   C666    1.498   1_655 S
C721   C726    1.396   .     A
C721   H731    1.084   .     S
C722   C725    1.396   .     A
C722   H732    1.084   .     S
C722   C472    1.371   1_565 S
C723   C725    1.399   .     A
C723   F753    1.359   .     S
C723   C469    1.371   1_565 S
C724   C726    1.399   .     A
C724   F754    1.359   .     S
C727   F755    1.355   .     S
C727   N736    1.368   .     A
C728   F756    1.355   .     S
C728   N735    1.368   .     A
C728   C1108   1.417   .     S
C729   H733    1.082   .     S
C729   N735    1.366   .     A
C729   C1105   1.417   .     S
C730   H734    1.082   .     S
C730   N736    1.366   .     A
N735   Zn745   2.011   .     S
N736   Zn746   2.011   .     S
O737   Zn745   1.996   .     S
O738   Zn746   1.996   .     S
O739   Zn746   1.993   .     S
O740   Zn745   1.993   .     S
O741   Zn745   1.982   .     S
O742   Zn746   1.982   .     S
O743   Zn746   1.986   .     S
O744   Zn745   1.986   .     S
C747   O749    1.222   .     D
C747   C635    1.498   1_655 S
C747   H664    1.086   1_655 S
C750   O752    1.222   .     D
H751   C666    1.086   1_655 S
C757   O781    1.283   .     A
C757   C768    1.415   .     S
C757   O779    1.282   .     A
C758   O782    1.283   .     A
C758   C767    1.415   .     S
C758   O780    1.282   .     A
C759   O783    1.273   .     A
C759   O785    1.283   .     A
C759   C761    1.403   .     S
C760   O786    1.283   .     A
C760   C762    1.403   .     S
C760   O784    1.273   .     A
C761   C846    1.355   1_455 S
C761   C873    1.498   1_455 S
C762   C803    1.355   .     S
C762   C834    1.498   .     S
C763   C768    1.396   .     A
C763   H773    1.084   .     S
C763   C1017   1.371   1_545 S
C764   C767    1.396   .     A
C764   H774    1.084   .     S
C764   C892    1.371   .     S
C765   C767    1.399   .     A
C765   F795    1.359   .     S
C765   C889    1.371   .     S
C766   C768    1.399   .     A
C766   F796    1.359   .     S
C766   C1016   1.371   1_545 S
C769   F797    1.355   .     S
C769   N778    1.368   .     A
C770   F798    1.355   .     S
C770   N777    1.368   .     A
C770   C16     1.417   1_556 S
C771   H775    1.082   .     S
C771   N777    1.366   .     A
C771   C13     1.417   1_556 S
C772   H776    1.082   .     S
C772   N778    1.366   .     A
N777   Zn787   2.011   .     S
N778   Zn788   2.011   .     S
O779   Zn787   1.996   .     S
O780   Zn788   1.996   .     S
O781   Zn788   1.993   .     S
O782   Zn787   1.993   .     S
O783   Zn787   1.982   .     S
O784   Zn788   1.982   .     S
O785   Zn788   1.986   .     S
O786   Zn787   1.986   .     S
C789   O791    1.222   .     D
C789   C803    1.498   .     S
C789   H832    1.086   .     S
H790   C873    1.086   1_455 S
C792   O794    1.222   .     D
C792   C846    1.498   1_455 S
C792   H877    1.086   1_455 S
H793   C834    1.086   .     S
C799   O823    1.283   .     A
C799   C810    1.415   .     S
C799   O821    1.282   .     A
C800   O824    1.283   .     A
C800   C809    1.415   .     S
C800   O822    1.282   .     A
C801   O825    1.273   .     A
C801   O827    1.283   .     A
C801   C803    1.403   .     S
C802   O828    1.283   .     A
C802   C804    1.403   .     S
C802   O826    1.273   .     A
C804   C845    1.355   .     S
C804   C876    1.498   .     S
C805   C810    1.396   .     A
C805   H815    1.084   .     S
C805   C1059   1.371   1_545 S
C806   C809    1.396   .     A
C806   H816    1.084   .     S
C806   C934    1.371   .     S
C807   C809    1.399   .     A
C807   F837    1.359   .     S
C807   C931    1.371   .     S
C808   C810    1.399   .     A
C808   F838    1.359   .     S
C808   C1058   1.371   1_545 S
C811   F839    1.355   .     S
C811   N820    1.368   .     A
C812   F840    1.355   .     S
C812   N819    1.368   .     A
C812   C58     1.417   1_556 S
C813   H817    1.082   .     S
C813   N819    1.366   .     A
C813   C55     1.417   1_556 S
C814   H818    1.082   .     S
C814   N820    1.366   .     A
N819   Zn829   2.011   .     S
N820   Zn830   2.011   .     S
O821   Zn829   1.996   .     S
O822   Zn830   1.996   .     S
O823   Zn830   1.993   .     S
O824   Zn829   1.993   .     S
O825   Zn829   1.982   .     S
O826   Zn830   1.982   .     S
O827   Zn830   1.986   .     S
O828   Zn829   1.986   .     S
C831   O833    1.222   .     D
C831   C845    1.498   .     S
C831   H874    1.086   .     S
C834   O836    1.222   .     D
H835   C876    1.086   .     S
C841   O865    1.283   .     A
C841   C852    1.415   .     S
C841   O863    1.282   .     A
C842   O866    1.283   .     A
C842   C851    1.415   .     S
C842   O864    1.282   .     A
C843   O867    1.273   .     A
C843   O869    1.283   .     A
C843   C845    1.403   .     S
C844   O870    1.283   .     A
C844   C846    1.403   .     S
C844   O868    1.273   .     A
C846   C761    1.355   1_655 S
C846   C792    1.498   1_655 S
C847   C852    1.396   .     A
C847   H857    1.084   .     S
C847   C1101   1.371   1_545 S
C848   C851    1.396   .     A
C848   H858    1.084   .     S
C848   C976    1.371   .     S
C849   C851    1.399   .     A
C849   F879    1.359   .     S
C849   C973    1.371   .     S
C850   C852    1.399   .     A
C850   F880    1.359   .     S
C850   C1100   1.371   1_545 S
C853   F881    1.355   .     S
C853   N862    1.368   .     A
C854   F882    1.355   .     S
C854   N861    1.368   .     A
C854   C100    1.417   1_556 S
C855   H859    1.082   .     S
C855   N861    1.366   .     A
C855   C97     1.417   1_556 S
C856   H860    1.082   .     S
C856   N862    1.366   .     A
N861   Zn871   2.011   .     S
N862   Zn872   2.011   .     S
O863   Zn871   1.996   .     S
O864   Zn872   1.996   .     S
O865   Zn872   1.993   .     S
O866   Zn871   1.993   .     S
O867   Zn871   1.982   .     S
O868   Zn872   1.982   .     S
O869   Zn872   1.986   .     S
O870   Zn871   1.986   .     S
C873   O875    1.222   .     D
C873   C761    1.498   1_655 S
C873   H790    1.086   1_655 S
C876   O878    1.222   .     D
H877   C792    1.086   1_655 S
C883   O907    1.283   .     A
C883   C894    1.415   .     S
C883   O905    1.282   .     A
C884   O908    1.283   .     A
C884   C893    1.415   .     S
C884   O906    1.282   .     A
C885   O909    1.273   .     A
C885   O911    1.283   .     A
C885   C887    1.403   .     S
C886   O912    1.283   .     A
C886   C888    1.403   .     S
C886   O910    1.273   .     A
C887   C972    1.355   1_455 S
C887   C999    1.498   1_455 S
C888   C929    1.355   .     S
C888   C960    1.498   .     S
C889   C894    1.396   .     A
C889   H899    1.084   .     S
C890   C893    1.396   .     A
C890   H900    1.084   .     S
C890   C1018   1.371   .     S
C891   C893    1.399   .     A
C891   F921    1.359   .     S
C891   C1015   1.371   .     S
C892   C894    1.399   .     A
C892   F922    1.359   .     S
C895   F923    1.355   .     S
C895   N904    1.368   .     A
C896   F924    1.355   .     S
C896   N903    1.368   .     A
C896   C142    1.417   1_556 S
C897   H901    1.082   .     S
C897   N903    1.366   .     A
C897   C139    1.417   1_556 S
C898   H902    1.082   .     S
C898   N904    1.366   .     A
N903   Zn913   2.011   .     S
N904   Zn914   2.011   .     S
O905   Zn913   1.996   .     S
O906   Zn914   1.996   .     S
O907   Zn914   1.993   .     S
O908   Zn913   1.993   .     S
O909   Zn913   1.982   .     S
O910   Zn914   1.982   .     S
O911   Zn914   1.986   .     S
O912   Zn913   1.986   .     S
C915   O917    1.222   .     D
C915   C929    1.498   .     S
C915   H958    1.086   .     S
H916   C999    1.086   1_455 S
C918   O920    1.222   .     D
C918   C972    1.498   1_455 S
C918   H1003   1.086   1_455 S
H919   C960    1.086   .     S
C925   O949    1.283   .     A
C925   C936    1.415   .     S
C925   O947    1.282   .     A
C926   O950    1.283   .     A
C926   C935    1.415   .     S
C926   O948    1.282   .     A
C927   O951    1.273   .     A
C927   O953    1.283   .     A
C927   C929    1.403   .     S
C928   O954    1.283   .     A
C928   C930    1.403   .     S
C928   O952    1.273   .     A
C930   C971    1.355   .     S
C930   C1002   1.498   .     S
C931   C936    1.396   .     A
C931   H941    1.084   .     S
C932   C935    1.396   .     A
C932   H942    1.084   .     S
C932   C1060   1.371   .     S
C933   C935    1.399   .     A
C933   F963    1.359   .     S
C933   C1057   1.371   .     S
C934   C936    1.399   .     A
C934   F964    1.359   .     S
C937   F965    1.355   .     S
C937   N946    1.368   .     A
C938   F966    1.355   .     S
C938   N945    1.368   .     A
C938   C184    1.417   1_556 S
C939   H943    1.082   .     S
C939   N945    1.366   .     A
C939   C181    1.417   1_556 S
C940   H944    1.082   .     S
C940   N946    1.366   .     A
N945   Zn955   2.011   .     S
N946   Zn956   2.011   .     S
O947   Zn955   1.996   .     S
O948   Zn956   1.996   .     S
O949   Zn956   1.993   .     S
O950   Zn955   1.993   .     S
O951   Zn955   1.982   .     S
O952   Zn956   1.982   .     S
O953   Zn956   1.986   .     S
O954   Zn955   1.986   .     S
C957   O959    1.222   .     D
C957   C971    1.498   .     S
C957   H1000   1.086   .     S
C960   O962    1.222   .     D
H961   C1002   1.086   .     S
C967   O991    1.283   .     A
C967   C978    1.415   .     S
C967   O989    1.282   .     A
C968   O992    1.283   .     A
C968   C977    1.415   .     S
C968   O990    1.282   .     A
C969   O993    1.273   .     A
C969   O995    1.283   .     A
C969   C971    1.403   .     S
C970   O996    1.283   .     A
C970   C972    1.403   .     S
C970   O994    1.273   .     A
C972   C887    1.355   1_655 S
C972   C918    1.498   1_655 S
C973   C978    1.396   .     A
C973   H983    1.084   .     S
C974   C977    1.396   .     A
C974   H984    1.084   .     S
C974   C1102   1.371   .     S
C975   C977    1.399   .     A
C975   F1005   1.359   .     S
C975   C1099   1.371   .     S
C976   C978    1.399   .     A
C976   F1006   1.359   .     S
C979   F1007   1.355   .     S
C979   N988    1.368   .     A
C980   F1008   1.355   .     S
C980   N987    1.368   .     A
C980   C226    1.417   1_556 S
C981   H985    1.082   .     S
C981   N987    1.366   .     A
C981   C223    1.417   1_556 S
C982   H986    1.082   .     S
C982   N988    1.366   .     A
N987   Zn997   2.011   .     S
N988   Zn998   2.011   .     S
O989   Zn997   1.996   .     S
O990   Zn998   1.996   .     S
O991   Zn998   1.993   .     S
O992   Zn997   1.993   .     S
O993   Zn997   1.982   .     S
O994   Zn998   1.982   .     S
O995   Zn998   1.986   .     S
O996   Zn997   1.986   .     S
C999   O1001   1.222   .     D
C999   C887    1.498   1_655 S
C999   H916    1.086   1_655 S
C1002  O1004   1.222   .     D
H1003  C918    1.086   1_655 S
C1009  O1033   1.283   .     A
C1009  C1020   1.415   .     S
C1009  O1031   1.282   .     A
C1010  O1034   1.283   .     A
C1010  C1019   1.415   .     S
C1010  O1032   1.282   .     A
C1011  O1035   1.273   .     A
C1011  O1037   1.283   .     A
C1011  C1013   1.403   .     S
C1012  O1038   1.283   .     A
C1012  C1014   1.403   .     S
C1012  O1036   1.273   .     A
C1013  C1098   1.355   1_455 S
C1013  C1125   1.498   1_455 S
C1014  C1055   1.355   .     S
C1014  C1086   1.498   .     S
C1015  C1020   1.396   .     A
C1015  H1025   1.084   .     S
C1016  C1019   1.396   .     A
C1016  H1026   1.084   .     S
C1016  C766    1.371   1_565 S
C1017  C1019   1.399   .     A
C1017  F1047   1.359   .     S
C1017  C763    1.371   1_565 S
C1018  C1020   1.399   .     A
C1018  F1048   1.359   .     S
C1021  F1049   1.355   .     S
C1021  N1030   1.368   .     A
C1022  F1050   1.355   .     S
C1022  N1029   1.368   .     A
C1022  C268    1.417   1_556 S
C1023  H1027   1.082   .     S
C1023  N1029   1.366   .     A
C1023  C265    1.417   1_556 S
C1024  H1028   1.082   .     S
C1024  N1030   1.366   .     A
N1029  Zn1039  2.011   .     S
N1030  Zn1040  2.011   .     S
O1031  Zn1039  1.996   .     S
O1032  Zn1040  1.996   .     S
O1033  Zn1040  1.993   .     S
O1034  Zn1039  1.993   .     S
O1035  Zn1039  1.982   .     S
O1036  Zn1040  1.982   .     S
O1037  Zn1040  1.986   .     S
O1038  Zn1039  1.986   .     S
C1041  O1043   1.222   .     D
C1041  C1055   1.498   .     S
C1041  H1084   1.086   .     S
H1042  C1125   1.086   1_455 S
C1044  O1046   1.222   .     D
C1044  C1098   1.498   1_455 S
C1044  H1129   1.086   1_455 S
H1045  C1086   1.086   .     S
C1051  O1075   1.283   .     A
C1051  C1062   1.415   .     S
C1051  O1073   1.282   .     A
C1052  O1076   1.283   .     A
C1052  C1061   1.415   .     S
C1052  O1074   1.282   .     A
C1053  O1077   1.273   .     A
C1053  O1079   1.283   .     A
C1053  C1055   1.403   .     S
C1054  O1080   1.283   .     A
C1054  C1056   1.403   .     S
C1054  O1078   1.273   .     A
C1056  C1097   1.355   .     S
C1056  C1128   1.498   .     S
C1057  C1062   1.396   .     A
C1057  H1067   1.084   .     S
C1058  C1061   1.396   .     A
C1058  H1068   1.084   .     S
C1058  C808    1.371   1_565 S
C1059  C1061   1.399   .     A
C1059  F1089   1.359   .     S
C1059  C805    1.371   1_565 S
C1060  C1062   1.399   .     A
C1060  F1090   1.359   .     S
C1063  F1091   1.355   .     S
C1063  N1072   1.368   .     A
C1064  F1092   1.355   .     S
C1064  N1071   1.368   .     A
C1064  C310    1.417   1_556 S
C1065  H1069   1.082   .     S
C1065  N1071   1.366   .     A
C1065  C307    1.417   1_556 S
C1066  H1070   1.082   .     S
C1066  N1072   1.366   .     A
N1071  Zn1081  2.011   .     S
N1072  Zn1082  2.011   .     S
O1073  Zn1081  1.996   .     S
O1074  Zn1082  1.996   .     S
O1075  Zn1082  1.993   .     S
O1076  Zn1081  1.993   .     S
O1077  Zn1081  1.982   .     S
O1078  Zn1082  1.982   .     S
O1079  Zn1082  1.986   .     S
O1080  Zn1081  1.986   .     S
C1083  O1085   1.222   .     D
C1083  C1097   1.498   .     S
C1083  H1126   1.086   .     S
C1086  O1088   1.222   .     D
H1087  C1128   1.086   .     S
C1093  O1117   1.283   .     A
C1093  C1104   1.415   .     S
C1093  O1115   1.282   .     A
C1094  O1118   1.283   .     A
C1094  C1103   1.415   .     S
C1094  O1116   1.282   .     A
C1095  O1119   1.273   .     A
C1095  O1121   1.283   .     A
C1095  C1097   1.403   .     S
C1096  O1122   1.283   .     A
C1096  C1098   1.403   .     S
C1096  O1120   1.273   .     A
C1098  C1013   1.355   1_655 S
C1098  C1044   1.498   1_655 S
C1099  C1104   1.396   .     A
C1099  H1109   1.084   .     S
C1100  C1103   1.396   .     A
C1100  H1110   1.084   .     S
C1100  C850    1.371   1_565 S
C1101  C1103   1.399   .     A
C1101  F1131   1.359   .     S
C1101  C847    1.371   1_565 S
C1102  C1104   1.399   .     A
C1102  F1132   1.359   .     S
C1105  F1133   1.355   .     S
C1105  N1114   1.368   .     A
C1106  F1134   1.355   .     S
C1106  N1113   1.368   .     A
C1106  C352    1.417   1_556 S
C1107  H1111   1.082   .     S
C1107  N1113   1.366   .     A
C1107  C349    1.417   1_556 S
C1108  H1112   1.082   .     S
C1108  N1114   1.366   .     A
N1113  Zn1123  2.011   .     S
N1114  Zn1124  2.011   .     S
O1115  Zn1123  1.996   .     S
O1116  Zn1124  1.996   .     S
O1117  Zn1124  1.993   .     S
O1118  Zn1123  1.993   .     S
O1119  Zn1123  1.982   .     S
O1120  Zn1124  1.982   .     S
O1121  Zn1124  1.986   .     S
O1122  Zn1123  1.986   .     S
C1125  O1127   1.222   .     D
C1125  C1013   1.498   1_655 S
C1125  H1042   1.086   1_655 S
C1128  O1130   1.222   .     D
H1129  C1044   1.086   1_655 S
