data_str_m1_o10_o18_pcu_sym.119
_audit_creation_date              2020-01-03
_audit_creation_method            'Materials Studio'
_symmetry_space_group_name_H-M    'P1'
_symmetry_Int_Tables_number       1
_symmetry_cell_setting            triclinic
loop_
_symmetry_equiv_pos_as_xyz
  x,y,z
_cell_length_a                    32.5523
_cell_length_b                    32.6682
_cell_length_c                    35.5061
_cell_angle_alpha                 98.4360
_cell_angle_beta                  72.8258
_cell_angle_gamma                 98.6032
loop_
_atom_site_label
_atom_site_type_symbol
_atom_site_fract_x
_atom_site_fract_y
_atom_site_fract_z
_atom_site_U_iso_or_equiv
_atom_site_adp_type
_atom_site_occupancy
C1     C     0.05239   0.15971   0.25919   0.00000  Uiso   1.00
C2     C     0.19860   0.12429   0.45667   0.00000  Uiso   1.00
C3     C     0.22532   0.11232   0.47643   0.00000  Uiso   1.00
C4     C     0.28115   0.17340   0.24091   0.00000  Uiso   1.00
C5     C     0.21661   0.11905   0.01786   0.00000  Uiso   1.00
C6     C     0.17859   0.13733   0.04017   0.00000  Uiso   1.00
C7     C     0.24525   0.10795   0.03736   0.00000  Uiso   1.00
C8     C     0.23628   0.11617   0.07919   0.00000  Uiso   1.00
C9     C     0.17090   0.14542   0.08153   0.00000  Uiso   1.00
C10    C     0.32747   0.17592   0.23659   0.00000  Uiso   1.00
C11    C     0.00718   0.15830   0.26223   0.00000  Uiso   1.00
C12    C     0.08728   0.19880   0.42196   0.00000  Uiso   1.00
C13    C     0.18019   0.32228   0.23962   0.00000  Uiso   1.00
C14    C     0.14974   0.01253   0.26273   0.00000  Uiso   1.00
C15    C     0.15644   0.05622   0.25835   0.00000  Uiso   1.00
C16    C     0.17656   0.27767   0.24146   0.00000  Uiso   1.00
C17    C     0.18825   0.14534   0.14384   0.00000  Uiso   1.00
C18    C     0.14459   0.18705   0.35644   0.00000  Uiso   1.00
C19    C     0.12917   0.18891   0.40015   0.00000  Uiso   1.00
C20    C     0.19902   0.13538   0.10070   0.00000  Uiso   1.00
C21    C     0.07315   0.19549   0.46278   0.00000  Uiso   1.00
C22    C     0.28575   0.08988   0.01437   0.00000  Uiso   1.00
C23    C     0.15536   0.17535   0.41972   0.00000  Uiso   1.00
C24    C     0.03649   0.23969   0.21475   0.00000  Uiso   1.00
C25    C     0.08573   0.02193   0.32006   0.00000  Uiso   1.00
C26    C     0.26445   0.10393   0.10123   0.00000  Uiso   1.00
C27    C     0.03245   0.17687   0.38797   0.00000  Uiso   1.00
C28    C     0.17448   0.07507   0.40758   0.00000  Uiso   1.00
C29    C     0.13937   0.16662   0.45943   0.00000  Uiso   1.00
C30    C     0.09868   0.17943   0.48149   0.00000  Uiso   1.00
C31    C     0.16332   0.14702   0.47822   0.00000  Uiso   1.00
C32    C     0.15050   0.14906   0.02038   0.00000  Uiso   1.00
C33    C     0.10952   0.16210   0.04135   0.00000  Uiso   1.00
C34    C     0.08375   0.17598   0.02201   0.00000  Uiso   1.00
H35    H     0.05231   0.18509   0.03913   0.00000  Uiso   1.00
H36    H     0.01610   0.19018   0.17870   0.00000  Uiso   1.00
H37    H     0.06202   0.25211   0.18934   0.00000  Uiso   1.00
H38    H     0.04942   0.24471   0.24090   0.00000  Uiso   1.00
H39    H     0.00790   0.25709   0.22119   0.00000  Uiso   1.00
H40    H     0.09011   0.31002   0.27130   0.00000  Uiso   1.00
H41    H     0.05802   0.00307   0.33871   0.00000  Uiso   1.00
H42    H     0.07301   0.04616   0.30905   0.00000  Uiso   1.00
H43    H     0.10705   0.03694   0.33872   0.00000  Uiso   1.00
H44    H     0.26511   0.12001   0.13005   0.00000  Uiso   1.00
H45    H     0.04049   0.23404   0.42015   0.00000  Uiso   1.00
H46    H     0.31766   0.14328   0.28664   0.00000  Uiso   1.00
H47    H     0.00980   0.16066   0.41278   0.00000  Uiso   1.00
H48    H     0.05305   0.15428   0.36718   0.00000  Uiso   1.00
H49    H     0.01332   0.18887   0.37160   0.00000  Uiso   1.00
H50    H     0.23687   0.10448   0.40061   0.00000  Uiso   1.00
H51    H     0.18072   0.06727   0.37501   0.00000  Uiso   1.00
H52    H     0.14089   0.08345   0.41985   0.00000  Uiso   1.00
H53    H     0.17768   0.04725   0.42071   0.00000  Uiso   1.00
H54    H     0.20905   0.00326   0.21943   0.00000  Uiso   1.00
H55    H     0.14407   0.16148   0.09985   0.00000  Uiso   1.00
H56    H     0.25287   0.09699   0.45846   0.00000  Uiso   1.00
H57    H     0.04142   0.20409   0.47964   0.00000  Uiso   1.00
H58    H     0.18857   0.17216   0.40332   0.00000  Uiso   1.00
H59    H     0.09559   0.16043   0.07272   0.00000  Uiso   1.00
H60    H     0.31658   0.10456   0.01841   0.00000  Uiso   1.00
N61    N     0.02470   0.19580   0.20488   0.00000  Uiso   1.00
N62    N     0.10933   0.32843   0.28712   0.00000  Uiso   1.00
N63    N     0.05883   0.21121   0.40316   0.00000  Uiso   1.00
N64    N     0.20537   0.10946   0.41571   0.00000  Uiso   1.00
O65    O     0.16667   0.16667   0.25000   0.00000  Uiso   1.00
O66    O     0.15693   0.12393   0.16625   0.00000  Uiso   1.00
O67    O     0.12687   0.20646   0.33749   0.00000  Uiso   1.00
O68    O     0.21088   0.17493   0.15877   0.00000  Uiso   1.00
O69    O     0.17198   0.16135   0.33749   0.00000  Uiso   1.00
O70    O     0.28467   0.05744   0.49250   0.00000  Uiso   1.00
O71    O     0.28610   0.07487   0.08830   0.00000  Uiso   1.00
O72    O     0.17849   0.08101   0.27821   0.00000  Uiso   1.00
O73    O     0.14581   0.26136   0.26767   0.00000  Uiso   1.00
O74    O     0.07452   0.13251   0.23607   0.00000  Uiso   1.00
O75    O     0.26785   0.19179   0.21806   0.00000  Uiso   1.00
O76    O     0.06990   0.18960   0.27820   0.00000  Uiso   1.00
O77    O     0.25440   0.15277   0.26768   0.00000  Uiso   1.00
O78    O     0.13800   0.06903   0.23607   0.00000  Uiso   1.00
O79    O     0.20437   0.25527   0.21805   0.00000  Uiso   1.00
Zn80   Zn    0.19244   0.14090   0.28278   0.00000  Uiso   1.00
Zn81   Zn    0.13459   0.12378   0.22258   0.00000  Uiso   1.00
Zn82   Zn    0.21166   0.19664   0.21188   0.00000  Uiso   1.00
Zn83   Zn    0.12798   0.20535   0.28277   0.00000  Uiso   1.00
C84    C     0.38572   0.15971   0.25919   0.00000  Uiso   1.00
C85    C     0.53193   0.12429   0.45667   0.00000  Uiso   1.00
C86    C     0.55865   0.11232   0.47643   0.00000  Uiso   1.00
C87    C     0.61448   0.17340   0.24091   0.00000  Uiso   1.00
C88    C     0.54995   0.11905   0.01786   0.00000  Uiso   1.00
C89    C     0.51192   0.13733   0.04017   0.00000  Uiso   1.00
C90    C     0.57859   0.10795   0.03736   0.00000  Uiso   1.00
C91    C     0.56961   0.11617   0.07919   0.00000  Uiso   1.00
C92    C     0.50424   0.14542   0.08153   0.00000  Uiso   1.00
C93    C     0.66081   0.17592   0.23659   0.00000  Uiso   1.00
C94    C     0.34052   0.15830   0.26223   0.00000  Uiso   1.00
C95    C     0.42061   0.19880   0.42196   0.00000  Uiso   1.00
C96    C     0.51353   0.32228   0.23962   0.00000  Uiso   1.00
C97    C     0.48307   0.01253   0.26273   0.00000  Uiso   1.00
C98    C     0.48978   0.05622   0.25835   0.00000  Uiso   1.00
C99    C     0.50989   0.27767   0.24146   0.00000  Uiso   1.00
C100   C     0.52159   0.14534   0.14384   0.00000  Uiso   1.00
C101   C     0.47792   0.18705   0.35644   0.00000  Uiso   1.00
C102   C     0.46250   0.18891   0.40015   0.00000  Uiso   1.00
C103   C     0.53235   0.13538   0.10070   0.00000  Uiso   1.00
C104   C     0.40649   0.19549   0.46278   0.00000  Uiso   1.00
C105   C     0.61908   0.08988   0.01437   0.00000  Uiso   1.00
C106   C     0.48869   0.17535   0.41972   0.00000  Uiso   1.00
C107   C     0.36982   0.23969   0.21475   0.00000  Uiso   1.00
C108   C     0.41906   0.02193   0.32006   0.00000  Uiso   1.00
C109   C     0.59779   0.10393   0.10123   0.00000  Uiso   1.00
C110   C     0.36578   0.17687   0.38797   0.00000  Uiso   1.00
C111   C     0.50781   0.07507   0.40758   0.00000  Uiso   1.00
C112   C     0.47270   0.16662   0.45943   0.00000  Uiso   1.00
C113   C     0.43201   0.17943   0.48149   0.00000  Uiso   1.00
C114   C     0.49666   0.14702   0.47822   0.00000  Uiso   1.00
C115   C     0.48383   0.14906   0.02038   0.00000  Uiso   1.00
C116   C     0.44286   0.16210   0.04135   0.00000  Uiso   1.00
C117   C     0.41708   0.17598   0.02201   0.00000  Uiso   1.00
H118   H     0.38565   0.18509   0.03913   0.00000  Uiso   1.00
H119   H     0.34943   0.19018   0.17870   0.00000  Uiso   1.00
H120   H     0.39535   0.25211   0.18934   0.00000  Uiso   1.00
H121   H     0.38275   0.24471   0.24090   0.00000  Uiso   1.00
H122   H     0.34123   0.25709   0.22119   0.00000  Uiso   1.00
H123   H     0.42344   0.31002   0.27130   0.00000  Uiso   1.00
H124   H     0.39135   0.00307   0.33871   0.00000  Uiso   1.00
H125   H     0.40634   0.04616   0.30905   0.00000  Uiso   1.00
H126   H     0.44038   0.03694   0.33872   0.00000  Uiso   1.00
H127   H     0.59844   0.12001   0.13005   0.00000  Uiso   1.00
H128   H     0.37383   0.23404   0.42015   0.00000  Uiso   1.00
H129   H     0.65099   0.14328   0.28664   0.00000  Uiso   1.00
H130   H     0.34313   0.16066   0.41278   0.00000  Uiso   1.00
H131   H     0.38638   0.15428   0.36718   0.00000  Uiso   1.00
H132   H     0.34665   0.18887   0.37160   0.00000  Uiso   1.00
H133   H     0.57020   0.10448   0.40061   0.00000  Uiso   1.00
H134   H     0.51405   0.06727   0.37501   0.00000  Uiso   1.00
H135   H     0.47422   0.08345   0.41985   0.00000  Uiso   1.00
H136   H     0.51102   0.04725   0.42071   0.00000  Uiso   1.00
H137   H     0.54239   0.00326   0.21943   0.00000  Uiso   1.00
H138   H     0.47740   0.16148   0.09985   0.00000  Uiso   1.00
H139   H     0.58621   0.09699   0.45846   0.00000  Uiso   1.00
H140   H     0.37476   0.20409   0.47964   0.00000  Uiso   1.00
H141   H     0.52191   0.17216   0.40332   0.00000  Uiso   1.00
H142   H     0.42893   0.16043   0.07272   0.00000  Uiso   1.00
H143   H     0.64991   0.10456   0.01841   0.00000  Uiso   1.00
N144   N     0.35803   0.19580   0.20488   0.00000  Uiso   1.00
N145   N     0.44266   0.32843   0.28712   0.00000  Uiso   1.00
N146   N     0.39216   0.21121   0.40316   0.00000  Uiso   1.00
N147   N     0.53870   0.10946   0.41571   0.00000  Uiso   1.00
O148   O     0.50000   0.16667   0.25000   0.00000  Uiso   1.00
O149   O     0.49027   0.12393   0.16625   0.00000  Uiso   1.00
O150   O     0.46020   0.20646   0.33749   0.00000  Uiso   1.00
O151   O     0.54421   0.17493   0.15877   0.00000  Uiso   1.00
O152   O     0.50532   0.16135   0.33749   0.00000  Uiso   1.00
O153   O     0.61800   0.05744   0.49250   0.00000  Uiso   1.00
O154   O     0.61944   0.07487   0.08830   0.00000  Uiso   1.00
O155   O     0.51182   0.08101   0.27821   0.00000  Uiso   1.00
O156   O     0.47914   0.26136   0.26767   0.00000  Uiso   1.00
O157   O     0.40785   0.13251   0.23607   0.00000  Uiso   1.00
O158   O     0.60119   0.19179   0.21806   0.00000  Uiso   1.00
O159   O     0.40323   0.18960   0.27820   0.00000  Uiso   1.00
O160   O     0.58773   0.15277   0.26768   0.00000  Uiso   1.00
O161   O     0.47133   0.06903   0.23607   0.00000  Uiso   1.00
O162   O     0.53771   0.25527   0.21805   0.00000  Uiso   1.00
Zn163  Zn    0.52577   0.14090   0.28278   0.00000  Uiso   1.00
Zn164  Zn    0.46792   0.12378   0.22258   0.00000  Uiso   1.00
Zn165  Zn    0.54500   0.19664   0.21188   0.00000  Uiso   1.00
Zn166  Zn    0.46131   0.20535   0.28277   0.00000  Uiso   1.00
C167   C     0.71906   0.15971   0.25919   0.00000  Uiso   1.00
C168   C     0.86527   0.12429   0.45667   0.00000  Uiso   1.00
C169   C     0.89198   0.11232   0.47643   0.00000  Uiso   1.00
C170   C     0.94782   0.17340   0.24091   0.00000  Uiso   1.00
C171   C     0.88328   0.11905   0.01786   0.00000  Uiso   1.00
C172   C     0.84526   0.13733   0.04017   0.00000  Uiso   1.00
C173   C     0.91192   0.10795   0.03736   0.00000  Uiso   1.00
C174   C     0.90295   0.11617   0.07919   0.00000  Uiso   1.00
C175   C     0.83757   0.14542   0.08153   0.00000  Uiso   1.00
C176   C     0.99414   0.17592   0.23659   0.00000  Uiso   1.00
C177   C     0.67385   0.15830   0.26223   0.00000  Uiso   1.00
C178   C     0.75395   0.19880   0.42196   0.00000  Uiso   1.00
C179   C     0.84686   0.32228   0.23962   0.00000  Uiso   1.00
C180   C     0.81640   0.01253   0.26273   0.00000  Uiso   1.00
C181   C     0.82311   0.05622   0.25835   0.00000  Uiso   1.00
C182   C     0.84323   0.27767   0.24146   0.00000  Uiso   1.00
C183   C     0.85492   0.14534   0.14384   0.00000  Uiso   1.00
C184   C     0.81125   0.18705   0.35644   0.00000  Uiso   1.00
C185   C     0.79583   0.18891   0.40015   0.00000  Uiso   1.00
C186   C     0.86569   0.13538   0.10070   0.00000  Uiso   1.00
C187   C     0.73982   0.19549   0.46278   0.00000  Uiso   1.00
C188   C     0.95241   0.08988   0.01437   0.00000  Uiso   1.00
C189   C     0.82203   0.17535   0.41972   0.00000  Uiso   1.00
C190   C     0.70315   0.23969   0.21475   0.00000  Uiso   1.00
C191   C     0.75240   0.02193   0.32006   0.00000  Uiso   1.00
C192   C     0.93112   0.10393   0.10123   0.00000  Uiso   1.00
C193   C     0.69912   0.17687   0.38797   0.00000  Uiso   1.00
C194   C     0.84115   0.07507   0.40758   0.00000  Uiso   1.00
C195   C     0.80604   0.16662   0.45943   0.00000  Uiso   1.00
C196   C     0.76535   0.17943   0.48149   0.00000  Uiso   1.00
C197   C     0.82999   0.14702   0.47822   0.00000  Uiso   1.00
C198   C     0.81717   0.14906   0.02038   0.00000  Uiso   1.00
C199   C     0.77619   0.16210   0.04135   0.00000  Uiso   1.00
C200   C     0.75042   0.17598   0.02201   0.00000  Uiso   1.00
H201   H     0.71898   0.18509   0.03913   0.00000  Uiso   1.00
H202   H     0.68276   0.19018   0.17870   0.00000  Uiso   1.00
H203   H     0.72868   0.25211   0.18934   0.00000  Uiso   1.00
H204   H     0.71608   0.24471   0.24090   0.00000  Uiso   1.00
H205   H     0.67457   0.25709   0.22119   0.00000  Uiso   1.00
H206   H     0.75678   0.31002   0.27130   0.00000  Uiso   1.00
H207   H     0.72468   0.00307   0.33871   0.00000  Uiso   1.00
H208   H     0.73968   0.04616   0.30905   0.00000  Uiso   1.00
H209   H     0.77371   0.03694   0.33872   0.00000  Uiso   1.00
H210   H     0.93177   0.12001   0.13005   0.00000  Uiso   1.00
H211   H     0.70716   0.23404   0.42015   0.00000  Uiso   1.00
H212   H     0.98433   0.14328   0.28664   0.00000  Uiso   1.00
H213   H     0.67646   0.16066   0.41278   0.00000  Uiso   1.00
H214   H     0.71971   0.15428   0.36718   0.00000  Uiso   1.00
H215   H     0.67998   0.18887   0.37160   0.00000  Uiso   1.00
H216   H     0.90353   0.10448   0.40061   0.00000  Uiso   1.00
H217   H     0.84739   0.06727   0.37501   0.00000  Uiso   1.00
H218   H     0.80756   0.08345   0.41985   0.00000  Uiso   1.00
H219   H     0.84435   0.04725   0.42071   0.00000  Uiso   1.00
H220   H     0.87572   0.00326   0.21943   0.00000  Uiso   1.00
H221   H     0.81073   0.16148   0.09985   0.00000  Uiso   1.00
H222   H     0.91954   0.09699   0.45846   0.00000  Uiso   1.00
H223   H     0.70809   0.20409   0.47964   0.00000  Uiso   1.00
H224   H     0.85524   0.17216   0.40332   0.00000  Uiso   1.00
H225   H     0.76226   0.16043   0.07272   0.00000  Uiso   1.00
H226   H     0.98324   0.10456   0.01841   0.00000  Uiso   1.00
N227   N     0.69136   0.19580   0.20488   0.00000  Uiso   1.00
N228   N     0.77600   0.32843   0.28712   0.00000  Uiso   1.00
N229   N     0.72550   0.21121   0.40316   0.00000  Uiso   1.00
N230   N     0.87203   0.10946   0.41571   0.00000  Uiso   1.00
O231   O     0.83333   0.16667   0.25000   0.00000  Uiso   1.00
O232   O     0.82360   0.12393   0.16625   0.00000  Uiso   1.00
O233   O     0.79354   0.20646   0.33749   0.00000  Uiso   1.00
O234   O     0.87755   0.17493   0.15877   0.00000  Uiso   1.00
O235   O     0.83865   0.16135   0.33749   0.00000  Uiso   1.00
O236   O     0.95133   0.05744   0.49250   0.00000  Uiso   1.00
O237   O     0.95277   0.07487   0.08830   0.00000  Uiso   1.00
O238   O     0.84515   0.08101   0.27821   0.00000  Uiso   1.00
O239   O     0.81247   0.26136   0.26767   0.00000  Uiso   1.00
O240   O     0.74119   0.13251   0.23607   0.00000  Uiso   1.00
O241   O     0.93452   0.19179   0.21806   0.00000  Uiso   1.00
O242   O     0.73656   0.18960   0.27820   0.00000  Uiso   1.00
O243   O     0.92106   0.15277   0.26768   0.00000  Uiso   1.00
O244   O     0.80467   0.06903   0.23607   0.00000  Uiso   1.00
O245   O     0.87104   0.25527   0.21805   0.00000  Uiso   1.00
Zn246  Zn    0.85910   0.14090   0.28278   0.00000  Uiso   1.00
Zn247  Zn    0.80125   0.12378   0.22258   0.00000  Uiso   1.00
Zn248  Zn    0.87833   0.19664   0.21188   0.00000  Uiso   1.00
Zn249  Zn    0.79465   0.20535   0.28277   0.00000  Uiso   1.00
C250   C     0.05239   0.49304   0.25919   0.00000  Uiso   1.00
C251   C     0.19860   0.45763   0.45667   0.00000  Uiso   1.00
C252   C     0.22532   0.44566   0.47643   0.00000  Uiso   1.00
C253   C     0.28115   0.50673   0.24091   0.00000  Uiso   1.00
C254   C     0.21661   0.45238   0.01786   0.00000  Uiso   1.00
C255   C     0.17859   0.47066   0.04017   0.00000  Uiso   1.00
C256   C     0.24525   0.44128   0.03736   0.00000  Uiso   1.00
C257   C     0.23628   0.44950   0.07919   0.00000  Uiso   1.00
C258   C     0.17090   0.47875   0.08153   0.00000  Uiso   1.00
C259   C     0.32747   0.50926   0.23659   0.00000  Uiso   1.00
C260   C     0.00718   0.49163   0.26223   0.00000  Uiso   1.00
C261   C     0.08728   0.53213   0.42196   0.00000  Uiso   1.00
C262   C     0.18019   0.65562   0.23962   0.00000  Uiso   1.00
C263   C     0.14974   0.34586   0.26273   0.00000  Uiso   1.00
C264   C     0.15644   0.38956   0.25835   0.00000  Uiso   1.00
C265   C     0.17656   0.61100   0.24146   0.00000  Uiso   1.00
C266   C     0.18825   0.47867   0.14384   0.00000  Uiso   1.00
C267   C     0.14459   0.52038   0.35644   0.00000  Uiso   1.00
C268   C     0.12917   0.52225   0.40015   0.00000  Uiso   1.00
C269   C     0.19902   0.46871   0.10070   0.00000  Uiso   1.00
C270   C     0.07315   0.52882   0.46278   0.00000  Uiso   1.00
C271   C     0.28575   0.42321   0.01437   0.00000  Uiso   1.00
C272   C     0.15536   0.50868   0.41972   0.00000  Uiso   1.00
C273   C     0.03649   0.57302   0.21475   0.00000  Uiso   1.00
C274   C     0.08573   0.35527   0.32006   0.00000  Uiso   1.00
C275   C     0.26445   0.43727   0.10123   0.00000  Uiso   1.00
C276   C     0.03245   0.51020   0.38797   0.00000  Uiso   1.00
C277   C     0.17448   0.40840   0.40758   0.00000  Uiso   1.00
C278   C     0.13937   0.49995   0.45943   0.00000  Uiso   1.00
C279   C     0.09868   0.51276   0.48149   0.00000  Uiso   1.00
C280   C     0.16332   0.48035   0.47822   0.00000  Uiso   1.00
C281   C     0.15050   0.48240   0.02038   0.00000  Uiso   1.00
C282   C     0.10952   0.49544   0.04135   0.00000  Uiso   1.00
C283   C     0.08375   0.50932   0.02201   0.00000  Uiso   1.00
H284   H     0.05231   0.51842   0.03913   0.00000  Uiso   1.00
H285   H     0.01610   0.52352   0.17870   0.00000  Uiso   1.00
H286   H     0.06202   0.58544   0.18934   0.00000  Uiso   1.00
H287   H     0.04942   0.57804   0.24090   0.00000  Uiso   1.00
H288   H     0.00790   0.59042   0.22119   0.00000  Uiso   1.00
H289   H     0.09011   0.64335   0.27130   0.00000  Uiso   1.00
H290   H     0.05802   0.33641   0.33871   0.00000  Uiso   1.00
H291   H     0.07301   0.37949   0.30905   0.00000  Uiso   1.00
H292   H     0.10705   0.37028   0.33872   0.00000  Uiso   1.00
H293   H     0.26511   0.45334   0.13005   0.00000  Uiso   1.00
H294   H     0.04049   0.56737   0.42015   0.00000  Uiso   1.00
H295   H     0.31766   0.47661   0.28664   0.00000  Uiso   1.00
H296   H     0.00980   0.49400   0.41278   0.00000  Uiso   1.00
H297   H     0.05305   0.48762   0.36718   0.00000  Uiso   1.00
H298   H     0.01332   0.52221   0.37160   0.00000  Uiso   1.00
H299   H     0.23687   0.43781   0.40061   0.00000  Uiso   1.00
H300   H     0.18072   0.40061   0.37501   0.00000  Uiso   1.00
H301   H     0.14089   0.41678   0.41985   0.00000  Uiso   1.00
H302   H     0.17768   0.38058   0.42071   0.00000  Uiso   1.00
H303   H     0.20905   0.33659   0.21943   0.00000  Uiso   1.00
H304   H     0.14407   0.49481   0.09985   0.00000  Uiso   1.00
H305   H     0.25287   0.43032   0.45846   0.00000  Uiso   1.00
H306   H     0.04142   0.53742   0.47964   0.00000  Uiso   1.00
H307   H     0.18857   0.50549   0.40332   0.00000  Uiso   1.00
H308   H     0.09559   0.49376   0.07272   0.00000  Uiso   1.00
H309   H     0.31658   0.43789   0.01841   0.00000  Uiso   1.00
N310   N     0.02470   0.52914   0.20488   0.00000  Uiso   1.00
N311   N     0.10933   0.66176   0.28712   0.00000  Uiso   1.00
N312   N     0.05883   0.54455   0.40316   0.00000  Uiso   1.00
N313   N     0.20537   0.44279   0.41571   0.00000  Uiso   1.00
O314   O     0.16667   0.50000   0.25000   0.00000  Uiso   1.00
O315   O     0.15693   0.45726   0.16625   0.00000  Uiso   1.00
O316   O     0.12687   0.53979   0.33749   0.00000  Uiso   1.00
O317   O     0.21088   0.50826   0.15877   0.00000  Uiso   1.00
O318   O     0.17198   0.49468   0.33749   0.00000  Uiso   1.00
O319   O     0.28467   0.39077   0.49250   0.00000  Uiso   1.00
O320   O     0.28610   0.40820   0.08830   0.00000  Uiso   1.00
O321   O     0.17849   0.41434   0.27821   0.00000  Uiso   1.00
O322   O     0.14581   0.59469   0.26767   0.00000  Uiso   1.00
O323   O     0.07452   0.46584   0.23607   0.00000  Uiso   1.00
O324   O     0.26785   0.52512   0.21806   0.00000  Uiso   1.00
O325   O     0.06990   0.52293   0.27820   0.00000  Uiso   1.00
O326   O     0.25440   0.48610   0.26768   0.00000  Uiso   1.00
O327   O     0.13800   0.40236   0.23607   0.00000  Uiso   1.00
O328   O     0.20437   0.58860   0.21805   0.00000  Uiso   1.00
Zn329  Zn    0.19244   0.47423   0.28278   0.00000  Uiso   1.00
Zn330  Zn    0.13459   0.45711   0.22258   0.00000  Uiso   1.00
Zn331  Zn    0.21166   0.52997   0.21188   0.00000  Uiso   1.00
Zn332  Zn    0.12798   0.53868   0.28277   0.00000  Uiso   1.00
C333   C     0.38572   0.49304   0.25919   0.00000  Uiso   1.00
C334   C     0.53193   0.45763   0.45667   0.00000  Uiso   1.00
C335   C     0.55865   0.44566   0.47643   0.00000  Uiso   1.00
C336   C     0.61448   0.50673   0.24091   0.00000  Uiso   1.00
C337   C     0.54995   0.45238   0.01786   0.00000  Uiso   1.00
C338   C     0.51192   0.47066   0.04017   0.00000  Uiso   1.00
C339   C     0.57859   0.44128   0.03736   0.00000  Uiso   1.00
C340   C     0.56961   0.44950   0.07919   0.00000  Uiso   1.00
C341   C     0.50424   0.47875   0.08153   0.00000  Uiso   1.00
C342   C     0.66081   0.50926   0.23659   0.00000  Uiso   1.00
C343   C     0.34052   0.49163   0.26223   0.00000  Uiso   1.00
C344   C     0.42061   0.53213   0.42196   0.00000  Uiso   1.00
C345   C     0.51353   0.65562   0.23962   0.00000  Uiso   1.00
C346   C     0.48307   0.34586   0.26273   0.00000  Uiso   1.00
C347   C     0.48978   0.38956   0.25835   0.00000  Uiso   1.00
C348   C     0.50989   0.61100   0.24146   0.00000  Uiso   1.00
C349   C     0.52159   0.47867   0.14384   0.00000  Uiso   1.00
C350   C     0.47792   0.52038   0.35644   0.00000  Uiso   1.00
C351   C     0.46250   0.52225   0.40015   0.00000  Uiso   1.00
C352   C     0.53235   0.46871   0.10070   0.00000  Uiso   1.00
C353   C     0.40649   0.52882   0.46278   0.00000  Uiso   1.00
C354   C     0.61908   0.42321   0.01437   0.00000  Uiso   1.00
C355   C     0.48869   0.50868   0.41972   0.00000  Uiso   1.00
C356   C     0.36982   0.57302   0.21475   0.00000  Uiso   1.00
C357   C     0.41906   0.35527   0.32006   0.00000  Uiso   1.00
C358   C     0.59779   0.43727   0.10123   0.00000  Uiso   1.00
C359   C     0.36578   0.51020   0.38797   0.00000  Uiso   1.00
C360   C     0.50781   0.40840   0.40758   0.00000  Uiso   1.00
C361   C     0.47270   0.49995   0.45943   0.00000  Uiso   1.00
C362   C     0.43201   0.51276   0.48149   0.00000  Uiso   1.00
C363   C     0.49666   0.48035   0.47822   0.00000  Uiso   1.00
C364   C     0.48383   0.48240   0.02038   0.00000  Uiso   1.00
C365   C     0.44286   0.49544   0.04135   0.00000  Uiso   1.00
C366   C     0.41708   0.50932   0.02201   0.00000  Uiso   1.00
H367   H     0.38565   0.51842   0.03913   0.00000  Uiso   1.00
H368   H     0.34943   0.52352   0.17870   0.00000  Uiso   1.00
H369   H     0.39535   0.58544   0.18934   0.00000  Uiso   1.00
H370   H     0.38275   0.57804   0.24090   0.00000  Uiso   1.00
H371   H     0.34123   0.59042   0.22119   0.00000  Uiso   1.00
H372   H     0.42344   0.64335   0.27130   0.00000  Uiso   1.00
H373   H     0.39135   0.33641   0.33871   0.00000  Uiso   1.00
H374   H     0.40634   0.37949   0.30905   0.00000  Uiso   1.00
H375   H     0.44038   0.37028   0.33872   0.00000  Uiso   1.00
H376   H     0.59844   0.45334   0.13005   0.00000  Uiso   1.00
H377   H     0.37383   0.56737   0.42015   0.00000  Uiso   1.00
H378   H     0.65099   0.47661   0.28664   0.00000  Uiso   1.00
H379   H     0.34313   0.49400   0.41278   0.00000  Uiso   1.00
H380   H     0.38638   0.48762   0.36718   0.00000  Uiso   1.00
H381   H     0.34665   0.52221   0.37160   0.00000  Uiso   1.00
H382   H     0.57020   0.43781   0.40061   0.00000  Uiso   1.00
H383   H     0.51405   0.40061   0.37501   0.00000  Uiso   1.00
H384   H     0.47422   0.41678   0.41985   0.00000  Uiso   1.00
H385   H     0.51102   0.38058   0.42071   0.00000  Uiso   1.00
H386   H     0.54239   0.33659   0.21943   0.00000  Uiso   1.00
H387   H     0.47740   0.49481   0.09985   0.00000  Uiso   1.00
H388   H     0.58621   0.43032   0.45846   0.00000  Uiso   1.00
H389   H     0.37476   0.53742   0.47964   0.00000  Uiso   1.00
H390   H     0.52191   0.50549   0.40332   0.00000  Uiso   1.00
H391   H     0.42893   0.49376   0.07272   0.00000  Uiso   1.00
H392   H     0.64991   0.43789   0.01841   0.00000  Uiso   1.00
N393   N     0.35803   0.52914   0.20488   0.00000  Uiso   1.00
N394   N     0.44266   0.66176   0.28712   0.00000  Uiso   1.00
N395   N     0.39216   0.54455   0.40316   0.00000  Uiso   1.00
N396   N     0.53870   0.44279   0.41571   0.00000  Uiso   1.00
O397   O     0.50000   0.50000   0.25000   0.00000  Uiso   1.00
O398   O     0.49027   0.45726   0.16625   0.00000  Uiso   1.00
O399   O     0.46020   0.53979   0.33749   0.00000  Uiso   1.00
O400   O     0.54421   0.50826   0.15877   0.00000  Uiso   1.00
O401   O     0.50532   0.49468   0.33749   0.00000  Uiso   1.00
O402   O     0.61800   0.39077   0.49250   0.00000  Uiso   1.00
O403   O     0.61944   0.40820   0.08830   0.00000  Uiso   1.00
O404   O     0.51182   0.41434   0.27821   0.00000  Uiso   1.00
O405   O     0.47914   0.59469   0.26767   0.00000  Uiso   1.00
O406   O     0.40785   0.46584   0.23607   0.00000  Uiso   1.00
O407   O     0.60119   0.52512   0.21806   0.00000  Uiso   1.00
O408   O     0.40323   0.52293   0.27820   0.00000  Uiso   1.00
O409   O     0.58773   0.48610   0.26768   0.00000  Uiso   1.00
O410   O     0.47133   0.40236   0.23607   0.00000  Uiso   1.00
O411   O     0.53771   0.58860   0.21805   0.00000  Uiso   1.00
Zn412  Zn    0.52577   0.47423   0.28278   0.00000  Uiso   1.00
Zn413  Zn    0.46792   0.45711   0.22258   0.00000  Uiso   1.00
Zn414  Zn    0.54500   0.52997   0.21188   0.00000  Uiso   1.00
Zn415  Zn    0.46131   0.53868   0.28277   0.00000  Uiso   1.00
C416   C     0.71906   0.49304   0.25919   0.00000  Uiso   1.00
C417   C     0.86527   0.45763   0.45667   0.00000  Uiso   1.00
C418   C     0.89198   0.44566   0.47643   0.00000  Uiso   1.00
C419   C     0.94782   0.50673   0.24091   0.00000  Uiso   1.00
C420   C     0.88328   0.45238   0.01786   0.00000  Uiso   1.00
C421   C     0.84526   0.47066   0.04017   0.00000  Uiso   1.00
C422   C     0.91192   0.44128   0.03736   0.00000  Uiso   1.00
C423   C     0.90295   0.44950   0.07919   0.00000  Uiso   1.00
C424   C     0.83757   0.47875   0.08153   0.00000  Uiso   1.00
C425   C     0.99414   0.50926   0.23659   0.00000  Uiso   1.00
C426   C     0.67385   0.49163   0.26223   0.00000  Uiso   1.00
C427   C     0.75395   0.53213   0.42196   0.00000  Uiso   1.00
C428   C     0.84686   0.65562   0.23962   0.00000  Uiso   1.00
C429   C     0.81640   0.34586   0.26273   0.00000  Uiso   1.00
C430   C     0.82311   0.38956   0.25835   0.00000  Uiso   1.00
C431   C     0.84323   0.61100   0.24146   0.00000  Uiso   1.00
C432   C     0.85492   0.47867   0.14384   0.00000  Uiso   1.00
C433   C     0.81125   0.52038   0.35644   0.00000  Uiso   1.00
C434   C     0.79583   0.52225   0.40015   0.00000  Uiso   1.00
C435   C     0.86569   0.46871   0.10070   0.00000  Uiso   1.00
C436   C     0.73982   0.52882   0.46278   0.00000  Uiso   1.00
C437   C     0.95241   0.42321   0.01437   0.00000  Uiso   1.00
C438   C     0.82203   0.50868   0.41972   0.00000  Uiso   1.00
C439   C     0.70315   0.57302   0.21475   0.00000  Uiso   1.00
C440   C     0.75240   0.35527   0.32006   0.00000  Uiso   1.00
C441   C     0.93112   0.43727   0.10123   0.00000  Uiso   1.00
C442   C     0.69912   0.51020   0.38797   0.00000  Uiso   1.00
C443   C     0.84115   0.40840   0.40758   0.00000  Uiso   1.00
C444   C     0.80604   0.49995   0.45943   0.00000  Uiso   1.00
C445   C     0.76535   0.51276   0.48149   0.00000  Uiso   1.00
C446   C     0.82999   0.48035   0.47822   0.00000  Uiso   1.00
C447   C     0.81717   0.48240   0.02038   0.00000  Uiso   1.00
C448   C     0.77619   0.49544   0.04135   0.00000  Uiso   1.00
C449   C     0.75042   0.50932   0.02201   0.00000  Uiso   1.00
H450   H     0.71898   0.51842   0.03913   0.00000  Uiso   1.00
H451   H     0.68276   0.52352   0.17870   0.00000  Uiso   1.00
H452   H     0.72868   0.58544   0.18934   0.00000  Uiso   1.00
H453   H     0.71608   0.57804   0.24090   0.00000  Uiso   1.00
H454   H     0.67457   0.59042   0.22119   0.00000  Uiso   1.00
H455   H     0.75678   0.64335   0.27130   0.00000  Uiso   1.00
H456   H     0.72468   0.33641   0.33871   0.00000  Uiso   1.00
H457   H     0.73968   0.37949   0.30905   0.00000  Uiso   1.00
H458   H     0.77371   0.37028   0.33872   0.00000  Uiso   1.00
H459   H     0.93177   0.45334   0.13005   0.00000  Uiso   1.00
H460   H     0.70716   0.56737   0.42015   0.00000  Uiso   1.00
H461   H     0.98433   0.47661   0.28664   0.00000  Uiso   1.00
H462   H     0.67646   0.49400   0.41278   0.00000  Uiso   1.00
H463   H     0.71971   0.48762   0.36718   0.00000  Uiso   1.00
H464   H     0.67998   0.52221   0.37160   0.00000  Uiso   1.00
H465   H     0.90353   0.43781   0.40061   0.00000  Uiso   1.00
H466   H     0.84739   0.40061   0.37501   0.00000  Uiso   1.00
H467   H     0.80756   0.41678   0.41985   0.00000  Uiso   1.00
H468   H     0.84435   0.38058   0.42071   0.00000  Uiso   1.00
H469   H     0.87572   0.33659   0.21943   0.00000  Uiso   1.00
H470   H     0.81073   0.49481   0.09985   0.00000  Uiso   1.00
H471   H     0.91954   0.43032   0.45846   0.00000  Uiso   1.00
H472   H     0.70809   0.53742   0.47964   0.00000  Uiso   1.00
H473   H     0.85524   0.50549   0.40332   0.00000  Uiso   1.00
H474   H     0.76226   0.49376   0.07272   0.00000  Uiso   1.00
H475   H     0.98324   0.43789   0.01841   0.00000  Uiso   1.00
N476   N     0.69136   0.52914   0.20488   0.00000  Uiso   1.00
N477   N     0.77600   0.66176   0.28712   0.00000  Uiso   1.00
N478   N     0.72550   0.54455   0.40316   0.00000  Uiso   1.00
N479   N     0.87203   0.44279   0.41571   0.00000  Uiso   1.00
O480   O     0.83333   0.50000   0.25000   0.00000  Uiso   1.00
O481   O     0.82360   0.45726   0.16625   0.00000  Uiso   1.00
O482   O     0.79354   0.53979   0.33749   0.00000  Uiso   1.00
O483   O     0.87755   0.50826   0.15877   0.00000  Uiso   1.00
O484   O     0.83865   0.49468   0.33749   0.00000  Uiso   1.00
O485   O     0.95133   0.39077   0.49250   0.00000  Uiso   1.00
O486   O     0.95277   0.40820   0.08830   0.00000  Uiso   1.00
O487   O     0.84515   0.41434   0.27821   0.00000  Uiso   1.00
O488   O     0.81247   0.59469   0.26767   0.00000  Uiso   1.00
O489   O     0.74119   0.46584   0.23607   0.00000  Uiso   1.00
O490   O     0.93452   0.52512   0.21806   0.00000  Uiso   1.00
O491   O     0.73656   0.52293   0.27820   0.00000  Uiso   1.00
O492   O     0.92106   0.48610   0.26768   0.00000  Uiso   1.00
O493   O     0.80467   0.40236   0.23607   0.00000  Uiso   1.00
O494   O     0.87104   0.58860   0.21805   0.00000  Uiso   1.00
Zn495  Zn    0.85910   0.47423   0.28278   0.00000  Uiso   1.00
Zn496  Zn    0.80125   0.45711   0.22258   0.00000  Uiso   1.00
Zn497  Zn    0.87833   0.52997   0.21188   0.00000  Uiso   1.00
Zn498  Zn    0.79465   0.53868   0.28277   0.00000  Uiso   1.00
C499   C     0.05239   0.82637   0.25919   0.00000  Uiso   1.00
C500   C     0.19860   0.79096   0.45667   0.00000  Uiso   1.00
C501   C     0.22532   0.77899   0.47643   0.00000  Uiso   1.00
C502   C     0.28115   0.84006   0.24091   0.00000  Uiso   1.00
C503   C     0.21661   0.78572   0.01786   0.00000  Uiso   1.00
C504   C     0.17859   0.80400   0.04017   0.00000  Uiso   1.00
C505   C     0.24525   0.77462   0.03736   0.00000  Uiso   1.00
C506   C     0.23628   0.78284   0.07919   0.00000  Uiso   1.00
C507   C     0.17090   0.81209   0.08153   0.00000  Uiso   1.00
C508   C     0.32747   0.84259   0.23659   0.00000  Uiso   1.00
C509   C     0.00718   0.82497   0.26223   0.00000  Uiso   1.00
C510   C     0.08728   0.86547   0.42196   0.00000  Uiso   1.00
C511   C     0.18019   0.98895   0.23962   0.00000  Uiso   1.00
C512   C     0.14974   0.67920   0.26273   0.00000  Uiso   1.00
C513   C     0.15644   0.72289   0.25835   0.00000  Uiso   1.00
C514   C     0.17656   0.94433   0.24146   0.00000  Uiso   1.00
C515   C     0.18825   0.81200   0.14384   0.00000  Uiso   1.00
C516   C     0.14459   0.85371   0.35644   0.00000  Uiso   1.00
C517   C     0.12917   0.85558   0.40015   0.00000  Uiso   1.00
C518   C     0.19902   0.80204   0.10070   0.00000  Uiso   1.00
C519   C     0.07315   0.86216   0.46278   0.00000  Uiso   1.00
C520   C     0.28575   0.75655   0.01437   0.00000  Uiso   1.00
C521   C     0.15536   0.84201   0.41972   0.00000  Uiso   1.00
C522   C     0.03649   0.90635   0.21475   0.00000  Uiso   1.00
C523   C     0.08573   0.68860   0.32006   0.00000  Uiso   1.00
C524   C     0.26445   0.77060   0.10123   0.00000  Uiso   1.00
C525   C     0.03245   0.84353   0.38797   0.00000  Uiso   1.00
C526   C     0.17448   0.74173   0.40758   0.00000  Uiso   1.00
C527   C     0.13937   0.83329   0.45943   0.00000  Uiso   1.00
C528   C     0.09868   0.84609   0.48149   0.00000  Uiso   1.00
C529   C     0.16332   0.81369   0.47822   0.00000  Uiso   1.00
C530   C     0.15050   0.81573   0.02038   0.00000  Uiso   1.00
C531   C     0.10952   0.82877   0.04135   0.00000  Uiso   1.00
C532   C     0.08375   0.84265   0.02201   0.00000  Uiso   1.00
H533   H     0.05231   0.85175   0.03913   0.00000  Uiso   1.00
H534   H     0.01610   0.85685   0.17870   0.00000  Uiso   1.00
H535   H     0.06202   0.91877   0.18934   0.00000  Uiso   1.00
H536   H     0.04942   0.91138   0.24090   0.00000  Uiso   1.00
H537   H     0.00790   0.92375   0.22119   0.00000  Uiso   1.00
H538   H     0.09011   0.97669   0.27130   0.00000  Uiso   1.00
H539   H     0.05802   0.66974   0.33871   0.00000  Uiso   1.00
H540   H     0.07301   0.71282   0.30905   0.00000  Uiso   1.00
H541   H     0.10705   0.70361   0.33872   0.00000  Uiso   1.00
H542   H     0.26511   0.78667   0.13005   0.00000  Uiso   1.00
H543   H     0.04049   0.90070   0.42015   0.00000  Uiso   1.00
H544   H     0.31766   0.80995   0.28664   0.00000  Uiso   1.00
H545   H     0.00980   0.82733   0.41278   0.00000  Uiso   1.00
H546   H     0.05305   0.82095   0.36718   0.00000  Uiso   1.00
H547   H     0.01332   0.85554   0.37160   0.00000  Uiso   1.00
H548   H     0.23687   0.77114   0.40061   0.00000  Uiso   1.00
H549   H     0.18072   0.73394   0.37501   0.00000  Uiso   1.00
H550   H     0.14089   0.75011   0.41985   0.00000  Uiso   1.00
H551   H     0.17768   0.71392   0.42071   0.00000  Uiso   1.00
H552   H     0.20905   0.66992   0.21943   0.00000  Uiso   1.00
H553   H     0.14407   0.82815   0.09985   0.00000  Uiso   1.00
H554   H     0.25287   0.76365   0.45846   0.00000  Uiso   1.00
H555   H     0.04142   0.87075   0.47964   0.00000  Uiso   1.00
H556   H     0.18857   0.83882   0.40332   0.00000  Uiso   1.00
H557   H     0.09559   0.82710   0.07272   0.00000  Uiso   1.00
H558   H     0.31658   0.77122   0.01841   0.00000  Uiso   1.00
N559   N     0.02470   0.86247   0.20488   0.00000  Uiso   1.00
N560   N     0.10933   0.99509   0.28712   0.00000  Uiso   1.00
N561   N     0.05883   0.87788   0.40316   0.00000  Uiso   1.00
N562   N     0.20537   0.77613   0.41571   0.00000  Uiso   1.00
O563   O     0.16667   0.83333   0.25000   0.00000  Uiso   1.00
O564   O     0.15693   0.79060   0.16625   0.00000  Uiso   1.00
O565   O     0.12687   0.87313   0.33749   0.00000  Uiso   1.00
O566   O     0.21088   0.84159   0.15877   0.00000  Uiso   1.00
O567   O     0.17198   0.82802   0.33749   0.00000  Uiso   1.00
O568   O     0.28467   0.72411   0.49250   0.00000  Uiso   1.00
O569   O     0.28610   0.74153   0.08830   0.00000  Uiso   1.00
O570   O     0.17849   0.74768   0.27821   0.00000  Uiso   1.00
O571   O     0.14581   0.92803   0.26767   0.00000  Uiso   1.00
O572   O     0.07452   0.79917   0.23607   0.00000  Uiso   1.00
O573   O     0.26785   0.85845   0.21806   0.00000  Uiso   1.00
O574   O     0.06990   0.85627   0.27820   0.00000  Uiso   1.00
O575   O     0.25440   0.81944   0.26768   0.00000  Uiso   1.00
O576   O     0.13800   0.73570   0.23607   0.00000  Uiso   1.00
O577   O     0.20437   0.92193   0.21805   0.00000  Uiso   1.00
Zn578  Zn    0.19244   0.80756   0.28278   0.00000  Uiso   1.00
Zn579  Zn    0.13459   0.79044   0.22258   0.00000  Uiso   1.00
Zn580  Zn    0.21166   0.86331   0.21188   0.00000  Uiso   1.00
Zn581  Zn    0.12798   0.87202   0.28277   0.00000  Uiso   1.00
C582   C     0.38572   0.82637   0.25919   0.00000  Uiso   1.00
C583   C     0.53193   0.79096   0.45667   0.00000  Uiso   1.00
C584   C     0.55865   0.77899   0.47643   0.00000  Uiso   1.00
C585   C     0.61448   0.84006   0.24091   0.00000  Uiso   1.00
C586   C     0.54995   0.78572   0.01786   0.00000  Uiso   1.00
C587   C     0.51192   0.80400   0.04017   0.00000  Uiso   1.00
C588   C     0.57859   0.77462   0.03736   0.00000  Uiso   1.00
C589   C     0.56961   0.78284   0.07919   0.00000  Uiso   1.00
C590   C     0.50424   0.81209   0.08153   0.00000  Uiso   1.00
C591   C     0.66081   0.84259   0.23659   0.00000  Uiso   1.00
C592   C     0.34052   0.82497   0.26223   0.00000  Uiso   1.00
C593   C     0.42061   0.86547   0.42196   0.00000  Uiso   1.00
C594   C     0.51353   0.98895   0.23962   0.00000  Uiso   1.00
C595   C     0.48307   0.67920   0.26273   0.00000  Uiso   1.00
C596   C     0.48978   0.72289   0.25835   0.00000  Uiso   1.00
C597   C     0.50989   0.94433   0.24146   0.00000  Uiso   1.00
C598   C     0.52159   0.81200   0.14384   0.00000  Uiso   1.00
C599   C     0.47792   0.85371   0.35644   0.00000  Uiso   1.00
C600   C     0.46250   0.85558   0.40015   0.00000  Uiso   1.00
C601   C     0.53235   0.80204   0.10070   0.00000  Uiso   1.00
C602   C     0.40649   0.86216   0.46278   0.00000  Uiso   1.00
C603   C     0.61908   0.75655   0.01437   0.00000  Uiso   1.00
C604   C     0.48869   0.84201   0.41972   0.00000  Uiso   1.00
C605   C     0.36982   0.90635   0.21475   0.00000  Uiso   1.00
C606   C     0.41906   0.68860   0.32006   0.00000  Uiso   1.00
C607   C     0.59779   0.77060   0.10123   0.00000  Uiso   1.00
C608   C     0.36578   0.84353   0.38797   0.00000  Uiso   1.00
C609   C     0.50781   0.74173   0.40758   0.00000  Uiso   1.00
C610   C     0.47270   0.83329   0.45943   0.00000  Uiso   1.00
C611   C     0.43201   0.84609   0.48149   0.00000  Uiso   1.00
C612   C     0.49666   0.81369   0.47822   0.00000  Uiso   1.00
C613   C     0.48383   0.81573   0.02038   0.00000  Uiso   1.00
C614   C     0.44286   0.82877   0.04135   0.00000  Uiso   1.00
C615   C     0.41708   0.84265   0.02201   0.00000  Uiso   1.00
H616   H     0.38565   0.85175   0.03913   0.00000  Uiso   1.00
H617   H     0.34943   0.85685   0.17870   0.00000  Uiso   1.00
H618   H     0.39535   0.91877   0.18934   0.00000  Uiso   1.00
H619   H     0.38275   0.91138   0.24090   0.00000  Uiso   1.00
H620   H     0.34123   0.92375   0.22119   0.00000  Uiso   1.00
H621   H     0.42344   0.97669   0.27130   0.00000  Uiso   1.00
H622   H     0.39135   0.66974   0.33871   0.00000  Uiso   1.00
H623   H     0.40634   0.71282   0.30905   0.00000  Uiso   1.00
H624   H     0.44038   0.70361   0.33872   0.00000  Uiso   1.00
H625   H     0.59844   0.78667   0.13005   0.00000  Uiso   1.00
H626   H     0.37383   0.90070   0.42015   0.00000  Uiso   1.00
H627   H     0.65099   0.80995   0.28664   0.00000  Uiso   1.00
H628   H     0.34313   0.82733   0.41278   0.00000  Uiso   1.00
H629   H     0.38638   0.82095   0.36718   0.00000  Uiso   1.00
H630   H     0.34665   0.85554   0.37160   0.00000  Uiso   1.00
H631   H     0.57020   0.77114   0.40061   0.00000  Uiso   1.00
H632   H     0.51405   0.73394   0.37501   0.00000  Uiso   1.00
H633   H     0.47422   0.75011   0.41985   0.00000  Uiso   1.00
H634   H     0.51102   0.71392   0.42071   0.00000  Uiso   1.00
H635   H     0.54239   0.66992   0.21943   0.00000  Uiso   1.00
H636   H     0.47740   0.82815   0.09985   0.00000  Uiso   1.00
H637   H     0.58621   0.76365   0.45846   0.00000  Uiso   1.00
H638   H     0.37476   0.87075   0.47964   0.00000  Uiso   1.00
H639   H     0.52191   0.83882   0.40332   0.00000  Uiso   1.00
H640   H     0.42893   0.82710   0.07272   0.00000  Uiso   1.00
H641   H     0.64991   0.77122   0.01841   0.00000  Uiso   1.00
N642   N     0.35803   0.86247   0.20488   0.00000  Uiso   1.00
N643   N     0.44266   0.99509   0.28712   0.00000  Uiso   1.00
N644   N     0.39216   0.87788   0.40316   0.00000  Uiso   1.00
N645   N     0.53870   0.77613   0.41571   0.00000  Uiso   1.00
O646   O     0.50000   0.83333   0.25000   0.00000  Uiso   1.00
O647   O     0.49027   0.79060   0.16625   0.00000  Uiso   1.00
O648   O     0.46020   0.87313   0.33749   0.00000  Uiso   1.00
O649   O     0.54421   0.84159   0.15877   0.00000  Uiso   1.00
O650   O     0.50532   0.82802   0.33749   0.00000  Uiso   1.00
O651   O     0.61800   0.72411   0.49250   0.00000  Uiso   1.00
O652   O     0.61944   0.74153   0.08830   0.00000  Uiso   1.00
O653   O     0.51182   0.74768   0.27821   0.00000  Uiso   1.00
O654   O     0.47914   0.92803   0.26767   0.00000  Uiso   1.00
O655   O     0.40785   0.79917   0.23607   0.00000  Uiso   1.00
O656   O     0.60119   0.85845   0.21806   0.00000  Uiso   1.00
O657   O     0.40323   0.85627   0.27820   0.00000  Uiso   1.00
O658   O     0.58773   0.81944   0.26768   0.00000  Uiso   1.00
O659   O     0.47133   0.73570   0.23607   0.00000  Uiso   1.00
O660   O     0.53771   0.92193   0.21805   0.00000  Uiso   1.00
Zn661  Zn    0.52577   0.80756   0.28278   0.00000  Uiso   1.00
Zn662  Zn    0.46792   0.79044   0.22258   0.00000  Uiso   1.00
Zn663  Zn    0.54500   0.86331   0.21188   0.00000  Uiso   1.00
Zn664  Zn    0.46131   0.87202   0.28277   0.00000  Uiso   1.00
C665   C     0.71906   0.82637   0.25919   0.00000  Uiso   1.00
C666   C     0.86527   0.79096   0.45667   0.00000  Uiso   1.00
C667   C     0.89198   0.77899   0.47643   0.00000  Uiso   1.00
C668   C     0.94782   0.84006   0.24091   0.00000  Uiso   1.00
C669   C     0.88328   0.78572   0.01786   0.00000  Uiso   1.00
C670   C     0.84526   0.80400   0.04017   0.00000  Uiso   1.00
C671   C     0.91192   0.77462   0.03736   0.00000  Uiso   1.00
C672   C     0.90295   0.78284   0.07919   0.00000  Uiso   1.00
C673   C     0.83757   0.81209   0.08153   0.00000  Uiso   1.00
C674   C     0.99414   0.84259   0.23659   0.00000  Uiso   1.00
C675   C     0.67385   0.82497   0.26223   0.00000  Uiso   1.00
C676   C     0.75395   0.86547   0.42196   0.00000  Uiso   1.00
C677   C     0.84686   0.98895   0.23962   0.00000  Uiso   1.00
C678   C     0.81640   0.67920   0.26273   0.00000  Uiso   1.00
C679   C     0.82311   0.72289   0.25835   0.00000  Uiso   1.00
C680   C     0.84323   0.94433   0.24146   0.00000  Uiso   1.00
C681   C     0.85492   0.81200   0.14384   0.00000  Uiso   1.00
C682   C     0.81125   0.85371   0.35644   0.00000  Uiso   1.00
C683   C     0.79583   0.85558   0.40015   0.00000  Uiso   1.00
C684   C     0.86569   0.80204   0.10070   0.00000  Uiso   1.00
C685   C     0.73982   0.86216   0.46278   0.00000  Uiso   1.00
C686   C     0.95241   0.75655   0.01437   0.00000  Uiso   1.00
C687   C     0.82203   0.84201   0.41972   0.00000  Uiso   1.00
C688   C     0.70315   0.90635   0.21475   0.00000  Uiso   1.00
C689   C     0.75240   0.68860   0.32006   0.00000  Uiso   1.00
C690   C     0.93112   0.77060   0.10123   0.00000  Uiso   1.00
C691   C     0.69912   0.84353   0.38797   0.00000  Uiso   1.00
C692   C     0.84115   0.74173   0.40758   0.00000  Uiso   1.00
C693   C     0.80604   0.83329   0.45943   0.00000  Uiso   1.00
C694   C     0.76535   0.84609   0.48149   0.00000  Uiso   1.00
C695   C     0.82999   0.81369   0.47822   0.00000  Uiso   1.00
C696   C     0.81717   0.81573   0.02038   0.00000  Uiso   1.00
C697   C     0.77619   0.82877   0.04135   0.00000  Uiso   1.00
C698   C     0.75042   0.84265   0.02201   0.00000  Uiso   1.00
H699   H     0.71898   0.85175   0.03913   0.00000  Uiso   1.00
H700   H     0.68276   0.85685   0.17870   0.00000  Uiso   1.00
H701   H     0.72868   0.91877   0.18934   0.00000  Uiso   1.00
H702   H     0.71608   0.91138   0.24090   0.00000  Uiso   1.00
H703   H     0.67457   0.92375   0.22119   0.00000  Uiso   1.00
H704   H     0.75678   0.97669   0.27130   0.00000  Uiso   1.00
H705   H     0.72468   0.66974   0.33871   0.00000  Uiso   1.00
H706   H     0.73968   0.71282   0.30905   0.00000  Uiso   1.00
H707   H     0.77371   0.70361   0.33872   0.00000  Uiso   1.00
H708   H     0.93177   0.78667   0.13005   0.00000  Uiso   1.00
H709   H     0.70716   0.90070   0.42015   0.00000  Uiso   1.00
H710   H     0.98433   0.80995   0.28664   0.00000  Uiso   1.00
H711   H     0.67646   0.82733   0.41278   0.00000  Uiso   1.00
H712   H     0.71971   0.82095   0.36718   0.00000  Uiso   1.00
H713   H     0.67998   0.85554   0.37160   0.00000  Uiso   1.00
H714   H     0.90353   0.77114   0.40061   0.00000  Uiso   1.00
H715   H     0.84739   0.73394   0.37501   0.00000  Uiso   1.00
H716   H     0.80756   0.75011   0.41985   0.00000  Uiso   1.00
H717   H     0.84435   0.71392   0.42071   0.00000  Uiso   1.00
H718   H     0.87572   0.66992   0.21943   0.00000  Uiso   1.00
H719   H     0.81073   0.82815   0.09985   0.00000  Uiso   1.00
H720   H     0.91954   0.76365   0.45846   0.00000  Uiso   1.00
H721   H     0.70809   0.87075   0.47964   0.00000  Uiso   1.00
H722   H     0.85524   0.83882   0.40332   0.00000  Uiso   1.00
H723   H     0.76226   0.82710   0.07272   0.00000  Uiso   1.00
H724   H     0.98324   0.77122   0.01841   0.00000  Uiso   1.00
N725   N     0.69136   0.86247   0.20488   0.00000  Uiso   1.00
N726   N     0.77600   0.99509   0.28712   0.00000  Uiso   1.00
N727   N     0.72550   0.87788   0.40316   0.00000  Uiso   1.00
N728   N     0.87203   0.77613   0.41571   0.00000  Uiso   1.00
O729   O     0.83333   0.83333   0.25000   0.00000  Uiso   1.00
O730   O     0.82360   0.79060   0.16625   0.00000  Uiso   1.00
O731   O     0.79354   0.87313   0.33749   0.00000  Uiso   1.00
O732   O     0.87755   0.84159   0.15877   0.00000  Uiso   1.00
O733   O     0.83865   0.82802   0.33749   0.00000  Uiso   1.00
O734   O     0.95133   0.72411   0.49250   0.00000  Uiso   1.00
O735   O     0.95277   0.74153   0.08830   0.00000  Uiso   1.00
O736   O     0.84515   0.74768   0.27821   0.00000  Uiso   1.00
O737   O     0.81247   0.92803   0.26767   0.00000  Uiso   1.00
O738   O     0.74119   0.79917   0.23607   0.00000  Uiso   1.00
O739   O     0.93452   0.85845   0.21806   0.00000  Uiso   1.00
O740   O     0.73656   0.85627   0.27820   0.00000  Uiso   1.00
O741   O     0.92106   0.81944   0.26768   0.00000  Uiso   1.00
O742   O     0.80467   0.73570   0.23607   0.00000  Uiso   1.00
O743   O     0.87104   0.92193   0.21805   0.00000  Uiso   1.00
Zn744  Zn    0.85910   0.80756   0.28278   0.00000  Uiso   1.00
Zn745  Zn    0.80125   0.79044   0.22258   0.00000  Uiso   1.00
Zn746  Zn    0.87833   0.86331   0.21188   0.00000  Uiso   1.00
Zn747  Zn    0.79465   0.87202   0.28277   0.00000  Uiso   1.00
C748   C     0.05239   0.15971   0.75919   0.00000  Uiso   1.00
C749   C     0.19860   0.12429   0.95667   0.00000  Uiso   1.00
C750   C     0.22532   0.11232   0.97643   0.00000  Uiso   1.00
C751   C     0.28115   0.17340   0.74091   0.00000  Uiso   1.00
C752   C     0.21661   0.11905   0.51786   0.00000  Uiso   1.00
C753   C     0.17859   0.13733   0.54017   0.00000  Uiso   1.00
C754   C     0.24525   0.10795   0.53736   0.00000  Uiso   1.00
C755   C     0.23628   0.11617   0.57919   0.00000  Uiso   1.00
C756   C     0.17090   0.14542   0.58153   0.00000  Uiso   1.00
C757   C     0.32747   0.17592   0.73659   0.00000  Uiso   1.00
C758   C     0.00718   0.15830   0.76223   0.00000  Uiso   1.00
C759   C     0.08728   0.19880   0.92196   0.00000  Uiso   1.00
C760   C     0.18019   0.32228   0.73962   0.00000  Uiso   1.00
C761   C     0.14974   0.01253   0.76273   0.00000  Uiso   1.00
C762   C     0.15644   0.05622   0.75835   0.00000  Uiso   1.00
C763   C     0.17656   0.27767   0.74146   0.00000  Uiso   1.00
C764   C     0.18825   0.14534   0.64384   0.00000  Uiso   1.00
C765   C     0.14459   0.18705   0.85644   0.00000  Uiso   1.00
C766   C     0.12917   0.18891   0.90015   0.00000  Uiso   1.00
C767   C     0.19902   0.13538   0.60070   0.00000  Uiso   1.00
C768   C     0.07315   0.19549   0.96278   0.00000  Uiso   1.00
C769   C     0.28575   0.08988   0.51437   0.00000  Uiso   1.00
C770   C     0.15536   0.17535   0.91972   0.00000  Uiso   1.00
C771   C     0.03649   0.23969   0.71475   0.00000  Uiso   1.00
C772   C     0.08573   0.02193   0.82006   0.00000  Uiso   1.00
C773   C     0.26445   0.10393   0.60123   0.00000  Uiso   1.00
C774   C     0.03245   0.17687   0.88797   0.00000  Uiso   1.00
C775   C     0.17448   0.07507   0.90758   0.00000  Uiso   1.00
C776   C     0.13937   0.16662   0.95943   0.00000  Uiso   1.00
C777   C     0.09868   0.17943   0.98149   0.00000  Uiso   1.00
C778   C     0.16332   0.14702   0.97822   0.00000  Uiso   1.00
C779   C     0.15050   0.14906   0.52038   0.00000  Uiso   1.00
C780   C     0.10952   0.16210   0.54135   0.00000  Uiso   1.00
C781   C     0.08375   0.17598   0.52201   0.00000  Uiso   1.00
H782   H     0.05231   0.18509   0.53913   0.00000  Uiso   1.00
H783   H     0.01610   0.19018   0.67870   0.00000  Uiso   1.00
H784   H     0.06202   0.25211   0.68934   0.00000  Uiso   1.00
H785   H     0.04942   0.24471   0.74090   0.00000  Uiso   1.00
H786   H     0.00790   0.25709   0.72119   0.00000  Uiso   1.00
H787   H     0.09011   0.31002   0.77130   0.00000  Uiso   1.00
H788   H     0.05802   0.00307   0.83871   0.00000  Uiso   1.00
H789   H     0.07301   0.04616   0.80905   0.00000  Uiso   1.00
H790   H     0.10705   0.03694   0.83872   0.00000  Uiso   1.00
H791   H     0.26511   0.12001   0.63005   0.00000  Uiso   1.00
H792   H     0.04049   0.23404   0.92015   0.00000  Uiso   1.00
H793   H     0.31766   0.14328   0.78664   0.00000  Uiso   1.00
H794   H     0.00980   0.16066   0.91278   0.00000  Uiso   1.00
H795   H     0.05305   0.15428   0.86718   0.00000  Uiso   1.00
H796   H     0.01332   0.18887   0.87160   0.00000  Uiso   1.00
H797   H     0.23687   0.10448   0.90061   0.00000  Uiso   1.00
H798   H     0.18072   0.06727   0.87501   0.00000  Uiso   1.00
H799   H     0.14089   0.08345   0.91985   0.00000  Uiso   1.00
H800   H     0.17768   0.04725   0.92071   0.00000  Uiso   1.00
H801   H     0.20905   0.00326   0.71943   0.00000  Uiso   1.00
H802   H     0.14407   0.16148   0.59985   0.00000  Uiso   1.00
H803   H     0.25287   0.09699   0.95846   0.00000  Uiso   1.00
H804   H     0.04142   0.20409   0.97964   0.00000  Uiso   1.00
H805   H     0.18857   0.17216   0.90332   0.00000  Uiso   1.00
H806   H     0.09559   0.16043   0.57272   0.00000  Uiso   1.00
H807   H     0.31658   0.10456   0.51841   0.00000  Uiso   1.00
N808   N     0.02470   0.19580   0.70488   0.00000  Uiso   1.00
N809   N     0.10933   0.32843   0.78712   0.00000  Uiso   1.00
N810   N     0.05883   0.21121   0.90316   0.00000  Uiso   1.00
N811   N     0.20537   0.10946   0.91571   0.00000  Uiso   1.00
O812   O     0.16667   0.16667   0.75000   0.00000  Uiso   1.00
O813   O     0.15693   0.12393   0.66625   0.00000  Uiso   1.00
O814   O     0.12687   0.20646   0.83749   0.00000  Uiso   1.00
O815   O     0.21088   0.17493   0.65877   0.00000  Uiso   1.00
O816   O     0.17198   0.16135   0.83749   0.00000  Uiso   1.00
O817   O     0.28467   0.05744   0.99250   0.00000  Uiso   1.00
O818   O     0.28610   0.07487   0.58830   0.00000  Uiso   1.00
O819   O     0.17849   0.08101   0.77821   0.00000  Uiso   1.00
O820   O     0.14581   0.26136   0.76767   0.00000  Uiso   1.00
O821   O     0.07452   0.13251   0.73607   0.00000  Uiso   1.00
O822   O     0.26785   0.19179   0.71806   0.00000  Uiso   1.00
O823   O     0.06990   0.18960   0.77820   0.00000  Uiso   1.00
O824   O     0.25440   0.15277   0.76768   0.00000  Uiso   1.00
O825   O     0.13800   0.06903   0.73607   0.00000  Uiso   1.00
O826   O     0.20437   0.25527   0.71805   0.00000  Uiso   1.00
Zn827  Zn    0.19244   0.14090   0.78278   0.00000  Uiso   1.00
Zn828  Zn    0.13459   0.12378   0.72258   0.00000  Uiso   1.00
Zn829  Zn    0.21166   0.19664   0.71188   0.00000  Uiso   1.00
Zn830  Zn    0.12798   0.20535   0.78277   0.00000  Uiso   1.00
C831   C     0.38572   0.15971   0.75919   0.00000  Uiso   1.00
C832   C     0.53193   0.12429   0.95667   0.00000  Uiso   1.00
C833   C     0.55865   0.11232   0.97643   0.00000  Uiso   1.00
C834   C     0.61448   0.17340   0.74091   0.00000  Uiso   1.00
C835   C     0.54995   0.11905   0.51786   0.00000  Uiso   1.00
C836   C     0.51192   0.13733   0.54017   0.00000  Uiso   1.00
C837   C     0.57859   0.10795   0.53736   0.00000  Uiso   1.00
C838   C     0.56961   0.11617   0.57919   0.00000  Uiso   1.00
C839   C     0.50424   0.14542   0.58153   0.00000  Uiso   1.00
C840   C     0.66081   0.17592   0.73659   0.00000  Uiso   1.00
C841   C     0.34052   0.15830   0.76223   0.00000  Uiso   1.00
C842   C     0.42061   0.19880   0.92196   0.00000  Uiso   1.00
C843   C     0.51353   0.32228   0.73962   0.00000  Uiso   1.00
C844   C     0.48307   0.01253   0.76273   0.00000  Uiso   1.00
C845   C     0.48978   0.05622   0.75835   0.00000  Uiso   1.00
C846   C     0.50989   0.27767   0.74146   0.00000  Uiso   1.00
C847   C     0.52159   0.14534   0.64384   0.00000  Uiso   1.00
C848   C     0.47792   0.18705   0.85644   0.00000  Uiso   1.00
C849   C     0.46250   0.18891   0.90015   0.00000  Uiso   1.00
C850   C     0.53235   0.13538   0.60070   0.00000  Uiso   1.00
C851   C     0.40649   0.19549   0.96278   0.00000  Uiso   1.00
C852   C     0.61908   0.08988   0.51437   0.00000  Uiso   1.00
C853   C     0.48869   0.17535   0.91972   0.00000  Uiso   1.00
C854   C     0.36982   0.23969   0.71475   0.00000  Uiso   1.00
C855   C     0.41906   0.02193   0.82006   0.00000  Uiso   1.00
C856   C     0.59779   0.10393   0.60123   0.00000  Uiso   1.00
C857   C     0.36578   0.17687   0.88797   0.00000  Uiso   1.00
C858   C     0.50781   0.07507   0.90758   0.00000  Uiso   1.00
C859   C     0.47270   0.16662   0.95943   0.00000  Uiso   1.00
C860   C     0.43201   0.17943   0.98149   0.00000  Uiso   1.00
C861   C     0.49666   0.14702   0.97822   0.00000  Uiso   1.00
C862   C     0.48383   0.14906   0.52038   0.00000  Uiso   1.00
C863   C     0.44286   0.16210   0.54135   0.00000  Uiso   1.00
C864   C     0.41708   0.17598   0.52201   0.00000  Uiso   1.00
H865   H     0.38565   0.18509   0.53913   0.00000  Uiso   1.00
H866   H     0.34943   0.19018   0.67870   0.00000  Uiso   1.00
H867   H     0.39535   0.25211   0.68934   0.00000  Uiso   1.00
H868   H     0.38275   0.24471   0.74090   0.00000  Uiso   1.00
H869   H     0.34123   0.25709   0.72119   0.00000  Uiso   1.00
H870   H     0.42344   0.31002   0.77130   0.00000  Uiso   1.00
H871   H     0.39135   0.00307   0.83871   0.00000  Uiso   1.00
H872   H     0.40634   0.04616   0.80905   0.00000  Uiso   1.00
H873   H     0.44038   0.03694   0.83872   0.00000  Uiso   1.00
H874   H     0.59844   0.12001   0.63005   0.00000  Uiso   1.00
H875   H     0.37383   0.23404   0.92015   0.00000  Uiso   1.00
H876   H     0.65099   0.14328   0.78664   0.00000  Uiso   1.00
H877   H     0.34313   0.16066   0.91278   0.00000  Uiso   1.00
H878   H     0.38638   0.15428   0.86718   0.00000  Uiso   1.00
H879   H     0.34665   0.18887   0.87160   0.00000  Uiso   1.00
H880   H     0.57020   0.10448   0.90061   0.00000  Uiso   1.00
H881   H     0.51405   0.06727   0.87501   0.00000  Uiso   1.00
H882   H     0.47422   0.08345   0.91985   0.00000  Uiso   1.00
H883   H     0.51102   0.04725   0.92071   0.00000  Uiso   1.00
H884   H     0.54239   0.00326   0.71943   0.00000  Uiso   1.00
H885   H     0.47740   0.16148   0.59985   0.00000  Uiso   1.00
H886   H     0.58621   0.09699   0.95846   0.00000  Uiso   1.00
H887   H     0.37476   0.20409   0.97964   0.00000  Uiso   1.00
H888   H     0.52191   0.17216   0.90332   0.00000  Uiso   1.00
H889   H     0.42893   0.16043   0.57272   0.00000  Uiso   1.00
H890   H     0.64991   0.10456   0.51841   0.00000  Uiso   1.00
N891   N     0.35803   0.19580   0.70488   0.00000  Uiso   1.00
N892   N     0.44266   0.32843   0.78712   0.00000  Uiso   1.00
N893   N     0.39216   0.21121   0.90316   0.00000  Uiso   1.00
N894   N     0.53870   0.10946   0.91571   0.00000  Uiso   1.00
O895   O     0.50000   0.16667   0.75000   0.00000  Uiso   1.00
O896   O     0.49027   0.12393   0.66625   0.00000  Uiso   1.00
O897   O     0.46020   0.20646   0.83749   0.00000  Uiso   1.00
O898   O     0.54421   0.17493   0.65877   0.00000  Uiso   1.00
O899   O     0.50532   0.16135   0.83749   0.00000  Uiso   1.00
O900   O     0.61800   0.05744   0.99250   0.00000  Uiso   1.00
O901   O     0.61944   0.07487   0.58830   0.00000  Uiso   1.00
O902   O     0.51182   0.08101   0.77821   0.00000  Uiso   1.00
O903   O     0.47914   0.26136   0.76767   0.00000  Uiso   1.00
O904   O     0.40785   0.13251   0.73607   0.00000  Uiso   1.00
O905   O     0.60119   0.19179   0.71806   0.00000  Uiso   1.00
O906   O     0.40323   0.18960   0.77820   0.00000  Uiso   1.00
O907   O     0.58773   0.15277   0.76768   0.00000  Uiso   1.00
O908   O     0.47133   0.06903   0.73607   0.00000  Uiso   1.00
O909   O     0.53771   0.25527   0.71805   0.00000  Uiso   1.00
Zn910  Zn    0.52577   0.14090   0.78278   0.00000  Uiso   1.00
Zn911  Zn    0.46792   0.12378   0.72258   0.00000  Uiso   1.00
Zn912  Zn    0.54500   0.19664   0.71188   0.00000  Uiso   1.00
Zn913  Zn    0.46131   0.20535   0.78277   0.00000  Uiso   1.00
C914   C     0.71906   0.15971   0.75919   0.00000  Uiso   1.00
C915   C     0.86527   0.12429   0.95667   0.00000  Uiso   1.00
C916   C     0.89198   0.11232   0.97643   0.00000  Uiso   1.00
C917   C     0.94782   0.17340   0.74091   0.00000  Uiso   1.00
C918   C     0.88328   0.11905   0.51786   0.00000  Uiso   1.00
C919   C     0.84526   0.13733   0.54017   0.00000  Uiso   1.00
C920   C     0.91192   0.10795   0.53736   0.00000  Uiso   1.00
C921   C     0.90295   0.11617   0.57919   0.00000  Uiso   1.00
C922   C     0.83757   0.14542   0.58153   0.00000  Uiso   1.00
C923   C     0.99414   0.17592   0.73659   0.00000  Uiso   1.00
C924   C     0.67385   0.15830   0.76223   0.00000  Uiso   1.00
C925   C     0.75395   0.19880   0.92196   0.00000  Uiso   1.00
C926   C     0.84686   0.32228   0.73962   0.00000  Uiso   1.00
C927   C     0.81640   0.01253   0.76273   0.00000  Uiso   1.00
C928   C     0.82311   0.05622   0.75835   0.00000  Uiso   1.00
C929   C     0.84323   0.27767   0.74146   0.00000  Uiso   1.00
C930   C     0.85492   0.14534   0.64384   0.00000  Uiso   1.00
C931   C     0.81125   0.18705   0.85644   0.00000  Uiso   1.00
C932   C     0.79583   0.18891   0.90015   0.00000  Uiso   1.00
C933   C     0.86569   0.13538   0.60070   0.00000  Uiso   1.00
C934   C     0.73982   0.19549   0.96278   0.00000  Uiso   1.00
C935   C     0.95241   0.08988   0.51437   0.00000  Uiso   1.00
C936   C     0.82203   0.17535   0.91972   0.00000  Uiso   1.00
C937   C     0.70315   0.23969   0.71475   0.00000  Uiso   1.00
C938   C     0.75240   0.02193   0.82006   0.00000  Uiso   1.00
C939   C     0.93112   0.10393   0.60123   0.00000  Uiso   1.00
C940   C     0.69912   0.17687   0.88797   0.00000  Uiso   1.00
C941   C     0.84115   0.07507   0.90758   0.00000  Uiso   1.00
C942   C     0.80604   0.16662   0.95943   0.00000  Uiso   1.00
C943   C     0.76535   0.17943   0.98149   0.00000  Uiso   1.00
C944   C     0.82999   0.14702   0.97822   0.00000  Uiso   1.00
C945   C     0.81717   0.14906   0.52038   0.00000  Uiso   1.00
C946   C     0.77619   0.16210   0.54135   0.00000  Uiso   1.00
C947   C     0.75042   0.17598   0.52201   0.00000  Uiso   1.00
H948   H     0.71898   0.18509   0.53913   0.00000  Uiso   1.00
H949   H     0.68276   0.19018   0.67870   0.00000  Uiso   1.00
H950   H     0.72868   0.25211   0.68934   0.00000  Uiso   1.00
H951   H     0.71608   0.24471   0.74090   0.00000  Uiso   1.00
H952   H     0.67457   0.25709   0.72119   0.00000  Uiso   1.00
H953   H     0.75678   0.31002   0.77130   0.00000  Uiso   1.00
H954   H     0.72468   0.00307   0.83871   0.00000  Uiso   1.00
H955   H     0.73968   0.04616   0.80905   0.00000  Uiso   1.00
H956   H     0.77371   0.03694   0.83872   0.00000  Uiso   1.00
H957   H     0.93177   0.12001   0.63005   0.00000  Uiso   1.00
H958   H     0.70716   0.23404   0.92015   0.00000  Uiso   1.00
H959   H     0.98433   0.14328   0.78664   0.00000  Uiso   1.00
H960   H     0.67646   0.16066   0.91278   0.00000  Uiso   1.00
H961   H     0.71971   0.15428   0.86718   0.00000  Uiso   1.00
H962   H     0.67998   0.18887   0.87160   0.00000  Uiso   1.00
H963   H     0.90353   0.10448   0.90061   0.00000  Uiso   1.00
H964   H     0.84739   0.06727   0.87501   0.00000  Uiso   1.00
H965   H     0.80756   0.08345   0.91985   0.00000  Uiso   1.00
H966   H     0.84435   0.04725   0.92071   0.00000  Uiso   1.00
H967   H     0.87572   0.00326   0.71943   0.00000  Uiso   1.00
H968   H     0.81073   0.16148   0.59985   0.00000  Uiso   1.00
H969   H     0.91954   0.09699   0.95846   0.00000  Uiso   1.00
H970   H     0.70809   0.20409   0.97964   0.00000  Uiso   1.00
H971   H     0.85524   0.17216   0.90332   0.00000  Uiso   1.00
H972   H     0.76226   0.16043   0.57272   0.00000  Uiso   1.00
H973   H     0.98324   0.10456   0.51841   0.00000  Uiso   1.00
N974   N     0.69136   0.19580   0.70488   0.00000  Uiso   1.00
N975   N     0.77600   0.32843   0.78712   0.00000  Uiso   1.00
N976   N     0.72550   0.21121   0.90316   0.00000  Uiso   1.00
N977   N     0.87203   0.10946   0.91571   0.00000  Uiso   1.00
O978   O     0.83333   0.16667   0.75000   0.00000  Uiso   1.00
O979   O     0.82360   0.12393   0.66625   0.00000  Uiso   1.00
O980   O     0.79354   0.20646   0.83749   0.00000  Uiso   1.00
O981   O     0.87755   0.17493   0.65877   0.00000  Uiso   1.00
O982   O     0.83865   0.16135   0.83749   0.00000  Uiso   1.00
O983   O     0.95133   0.05744   0.99250   0.00000  Uiso   1.00
O984   O     0.95277   0.07487   0.58830   0.00000  Uiso   1.00
O985   O     0.84515   0.08101   0.77821   0.00000  Uiso   1.00
O986   O     0.81247   0.26136   0.76767   0.00000  Uiso   1.00
O987   O     0.74119   0.13251   0.73607   0.00000  Uiso   1.00
O988   O     0.93452   0.19179   0.71806   0.00000  Uiso   1.00
O989   O     0.73656   0.18960   0.77820   0.00000  Uiso   1.00
O990   O     0.92106   0.15277   0.76768   0.00000  Uiso   1.00
O991   O     0.80467   0.06903   0.73607   0.00000  Uiso   1.00
O992   O     0.87104   0.25527   0.71805   0.00000  Uiso   1.00
Zn993  Zn    0.85910   0.14090   0.78278   0.00000  Uiso   1.00
Zn994  Zn    0.80125   0.12378   0.72258   0.00000  Uiso   1.00
Zn995  Zn    0.87833   0.19664   0.71188   0.00000  Uiso   1.00
Zn996  Zn    0.79465   0.20535   0.78277   0.00000  Uiso   1.00
C997   C     0.05239   0.49304   0.75919   0.00000  Uiso   1.00
C998   C     0.19860   0.45763   0.95667   0.00000  Uiso   1.00
C999   C     0.22532   0.44566   0.97643   0.00000  Uiso   1.00
C1000  C     0.28115   0.50673   0.74091   0.00000  Uiso   1.00
C1001  C     0.21661   0.45238   0.51786   0.00000  Uiso   1.00
C1002  C     0.17859   0.47066   0.54017   0.00000  Uiso   1.00
C1003  C     0.24525   0.44128   0.53736   0.00000  Uiso   1.00
C1004  C     0.23628   0.44950   0.57919   0.00000  Uiso   1.00
C1005  C     0.17090   0.47875   0.58153   0.00000  Uiso   1.00
C1006  C     0.32747   0.50926   0.73659   0.00000  Uiso   1.00
C1007  C     0.00718   0.49163   0.76223   0.00000  Uiso   1.00
C1008  C     0.08728   0.53213   0.92196   0.00000  Uiso   1.00
C1009  C     0.18019   0.65562   0.73962   0.00000  Uiso   1.00
C1010  C     0.14974   0.34586   0.76273   0.00000  Uiso   1.00
C1011  C     0.15644   0.38956   0.75835   0.00000  Uiso   1.00
C1012  C     0.17656   0.61100   0.74146   0.00000  Uiso   1.00
C1013  C     0.18825   0.47867   0.64384   0.00000  Uiso   1.00
C1014  C     0.14459   0.52038   0.85644   0.00000  Uiso   1.00
C1015  C     0.12917   0.52225   0.90015   0.00000  Uiso   1.00
C1016  C     0.19902   0.46871   0.60070   0.00000  Uiso   1.00
C1017  C     0.07315   0.52882   0.96278   0.00000  Uiso   1.00
C1018  C     0.28575   0.42321   0.51437   0.00000  Uiso   1.00
C1019  C     0.15536   0.50868   0.91972   0.00000  Uiso   1.00
C1020  C     0.03649   0.57302   0.71475   0.00000  Uiso   1.00
C1021  C     0.08573   0.35527   0.82006   0.00000  Uiso   1.00
C1022  C     0.26445   0.43727   0.60123   0.00000  Uiso   1.00
C1023  C     0.03245   0.51020   0.88797   0.00000  Uiso   1.00
C1024  C     0.17448   0.40840   0.90758   0.00000  Uiso   1.00
C1025  C     0.13937   0.49995   0.95943   0.00000  Uiso   1.00
C1026  C     0.09868   0.51276   0.98149   0.00000  Uiso   1.00
C1027  C     0.16332   0.48035   0.97822   0.00000  Uiso   1.00
C1028  C     0.15050   0.48240   0.52038   0.00000  Uiso   1.00
C1029  C     0.10952   0.49544   0.54135   0.00000  Uiso   1.00
C1030  C     0.08375   0.50932   0.52201   0.00000  Uiso   1.00
H1031  H     0.05231   0.51842   0.53913   0.00000  Uiso   1.00
H1032  H     0.01610   0.52352   0.67870   0.00000  Uiso   1.00
H1033  H     0.06202   0.58544   0.68934   0.00000  Uiso   1.00
H1034  H     0.04942   0.57804   0.74090   0.00000  Uiso   1.00
H1035  H     0.00790   0.59042   0.72119   0.00000  Uiso   1.00
H1036  H     0.09011   0.64335   0.77130   0.00000  Uiso   1.00
H1037  H     0.05802   0.33641   0.83871   0.00000  Uiso   1.00
H1038  H     0.07301   0.37949   0.80905   0.00000  Uiso   1.00
H1039  H     0.10705   0.37028   0.83872   0.00000  Uiso   1.00
H1040  H     0.26511   0.45334   0.63005   0.00000  Uiso   1.00
H1041  H     0.04049   0.56737   0.92015   0.00000  Uiso   1.00
H1042  H     0.31766   0.47661   0.78664   0.00000  Uiso   1.00
H1043  H     0.00980   0.49400   0.91278   0.00000  Uiso   1.00
H1044  H     0.05305   0.48762   0.86718   0.00000  Uiso   1.00
H1045  H     0.01332   0.52221   0.87160   0.00000  Uiso   1.00
H1046  H     0.23687   0.43781   0.90061   0.00000  Uiso   1.00
H1047  H     0.18072   0.40061   0.87501   0.00000  Uiso   1.00
H1048  H     0.14089   0.41678   0.91985   0.00000  Uiso   1.00
H1049  H     0.17768   0.38058   0.92071   0.00000  Uiso   1.00
H1050  H     0.20905   0.33659   0.71943   0.00000  Uiso   1.00
H1051  H     0.14407   0.49481   0.59985   0.00000  Uiso   1.00
H1052  H     0.25287   0.43032   0.95846   0.00000  Uiso   1.00
H1053  H     0.04142   0.53742   0.97964   0.00000  Uiso   1.00
H1054  H     0.18857   0.50549   0.90332   0.00000  Uiso   1.00
H1055  H     0.09559   0.49376   0.57272   0.00000  Uiso   1.00
H1056  H     0.31658   0.43789   0.51841   0.00000  Uiso   1.00
N1057  N     0.02470   0.52914   0.70488   0.00000  Uiso   1.00
N1058  N     0.10933   0.66176   0.78712   0.00000  Uiso   1.00
N1059  N     0.05883   0.54455   0.90316   0.00000  Uiso   1.00
N1060  N     0.20537   0.44279   0.91571   0.00000  Uiso   1.00
O1061  O     0.16667   0.50000   0.75000   0.00000  Uiso   1.00
O1062  O     0.15693   0.45726   0.66625   0.00000  Uiso   1.00
O1063  O     0.12687   0.53979   0.83749   0.00000  Uiso   1.00
O1064  O     0.21088   0.50826   0.65877   0.00000  Uiso   1.00
O1065  O     0.17198   0.49468   0.83749   0.00000  Uiso   1.00
O1066  O     0.28467   0.39077   0.99250   0.00000  Uiso   1.00
O1067  O     0.28610   0.40820   0.58830   0.00000  Uiso   1.00
O1068  O     0.17849   0.41434   0.77821   0.00000  Uiso   1.00
O1069  O     0.14581   0.59469   0.76767   0.00000  Uiso   1.00
O1070  O     0.07452   0.46584   0.73607   0.00000  Uiso   1.00
O1071  O     0.26785   0.52512   0.71806   0.00000  Uiso   1.00
O1072  O     0.06990   0.52293   0.77820   0.00000  Uiso   1.00
O1073  O     0.25440   0.48610   0.76768   0.00000  Uiso   1.00
O1074  O     0.13800   0.40236   0.73607   0.00000  Uiso   1.00
O1075  O     0.20437   0.58860   0.71805   0.00000  Uiso   1.00
Zn1076 Zn    0.19244   0.47423   0.78278   0.00000  Uiso   1.00
Zn1077 Zn    0.13459   0.45711   0.72258   0.00000  Uiso   1.00
Zn1078 Zn    0.21166   0.52997   0.71188   0.00000  Uiso   1.00
Zn1079 Zn    0.12798   0.53868   0.78277   0.00000  Uiso   1.00
C1080  C     0.38572   0.49304   0.75919   0.00000  Uiso   1.00
C1081  C     0.53193   0.45763   0.95667   0.00000  Uiso   1.00
C1082  C     0.55865   0.44566   0.97643   0.00000  Uiso   1.00
C1083  C     0.61448   0.50673   0.74091   0.00000  Uiso   1.00
C1084  C     0.54995   0.45238   0.51786   0.00000  Uiso   1.00
C1085  C     0.51192   0.47066   0.54017   0.00000  Uiso   1.00
C1086  C     0.57859   0.44128   0.53736   0.00000  Uiso   1.00
C1087  C     0.56961   0.44950   0.57919   0.00000  Uiso   1.00
C1088  C     0.50424   0.47875   0.58153   0.00000  Uiso   1.00
C1089  C     0.66081   0.50926   0.73659   0.00000  Uiso   1.00
C1090  C     0.34052   0.49163   0.76223   0.00000  Uiso   1.00
C1091  C     0.42061   0.53213   0.92196   0.00000  Uiso   1.00
C1092  C     0.51353   0.65562   0.73962   0.00000  Uiso   1.00
C1093  C     0.48307   0.34586   0.76273   0.00000  Uiso   1.00
C1094  C     0.48978   0.38956   0.75835   0.00000  Uiso   1.00
C1095  C     0.50989   0.61100   0.74146   0.00000  Uiso   1.00
C1096  C     0.52159   0.47867   0.64384   0.00000  Uiso   1.00
C1097  C     0.47792   0.52038   0.85644   0.00000  Uiso   1.00
C1098  C     0.46250   0.52225   0.90015   0.00000  Uiso   1.00
C1099  C     0.53235   0.46871   0.60070   0.00000  Uiso   1.00
C1100  C     0.40649   0.52882   0.96278   0.00000  Uiso   1.00
C1101  C     0.61908   0.42321   0.51437   0.00000  Uiso   1.00
C1102  C     0.48869   0.50868   0.91972   0.00000  Uiso   1.00
C1103  C     0.36982   0.57302   0.71475   0.00000  Uiso   1.00
C1104  C     0.41906   0.35527   0.82006   0.00000  Uiso   1.00
C1105  C     0.59779   0.43727   0.60123   0.00000  Uiso   1.00
C1106  C     0.36578   0.51020   0.88797   0.00000  Uiso   1.00
C1107  C     0.50781   0.40840   0.90758   0.00000  Uiso   1.00
C1108  C     0.47270   0.49995   0.95943   0.00000  Uiso   1.00
C1109  C     0.43201   0.51276   0.98149   0.00000  Uiso   1.00
C1110  C     0.49666   0.48035   0.97822   0.00000  Uiso   1.00
C1111  C     0.48383   0.48240   0.52038   0.00000  Uiso   1.00
C1112  C     0.44286   0.49544   0.54135   0.00000  Uiso   1.00
C1113  C     0.41708   0.50932   0.52201   0.00000  Uiso   1.00
H1114  H     0.38565   0.51842   0.53913   0.00000  Uiso   1.00
H1115  H     0.34943   0.52352   0.67870   0.00000  Uiso   1.00
H1116  H     0.39535   0.58544   0.68934   0.00000  Uiso   1.00
H1117  H     0.38275   0.57804   0.74090   0.00000  Uiso   1.00
H1118  H     0.34123   0.59042   0.72119   0.00000  Uiso   1.00
H1119  H     0.42344   0.64335   0.77130   0.00000  Uiso   1.00
H1120  H     0.39135   0.33641   0.83871   0.00000  Uiso   1.00
H1121  H     0.40634   0.37949   0.80905   0.00000  Uiso   1.00
H1122  H     0.44038   0.37028   0.83872   0.00000  Uiso   1.00
H1123  H     0.59844   0.45334   0.63005   0.00000  Uiso   1.00
H1124  H     0.37383   0.56737   0.92015   0.00000  Uiso   1.00
H1125  H     0.65099   0.47661   0.78664   0.00000  Uiso   1.00
H1126  H     0.34313   0.49400   0.91278   0.00000  Uiso   1.00
H1127  H     0.38638   0.48762   0.86718   0.00000  Uiso   1.00
H1128  H     0.34665   0.52221   0.87160   0.00000  Uiso   1.00
H1129  H     0.57020   0.43781   0.90061   0.00000  Uiso   1.00
H1130  H     0.51405   0.40061   0.87501   0.00000  Uiso   1.00
H1131  H     0.47422   0.41678   0.91985   0.00000  Uiso   1.00
H1132  H     0.51102   0.38058   0.92071   0.00000  Uiso   1.00
H1133  H     0.54239   0.33659   0.71943   0.00000  Uiso   1.00
H1134  H     0.47740   0.49481   0.59985   0.00000  Uiso   1.00
H1135  H     0.58621   0.43032   0.95846   0.00000  Uiso   1.00
H1136  H     0.37476   0.53742   0.97964   0.00000  Uiso   1.00
H1137  H     0.52191   0.50549   0.90332   0.00000  Uiso   1.00
H1138  H     0.42893   0.49376   0.57272   0.00000  Uiso   1.00
H1139  H     0.64991   0.43789   0.51841   0.00000  Uiso   1.00
N1140  N     0.35803   0.52914   0.70488   0.00000  Uiso   1.00
N1141  N     0.44266   0.66176   0.78712   0.00000  Uiso   1.00
N1142  N     0.39216   0.54455   0.90316   0.00000  Uiso   1.00
N1143  N     0.53870   0.44279   0.91571   0.00000  Uiso   1.00
O1144  O     0.50000   0.50000   0.75000   0.00000  Uiso   1.00
O1145  O     0.49027   0.45726   0.66625   0.00000  Uiso   1.00
O1146  O     0.46020   0.53979   0.83749   0.00000  Uiso   1.00
O1147  O     0.54421   0.50826   0.65877   0.00000  Uiso   1.00
O1148  O     0.50532   0.49468   0.83749   0.00000  Uiso   1.00
O1149  O     0.61800   0.39077   0.99250   0.00000  Uiso   1.00
O1150  O     0.61944   0.40820   0.58830   0.00000  Uiso   1.00
O1151  O     0.51182   0.41434   0.77821   0.00000  Uiso   1.00
O1152  O     0.47914   0.59469   0.76767   0.00000  Uiso   1.00
O1153  O     0.40785   0.46584   0.73607   0.00000  Uiso   1.00
O1154  O     0.60119   0.52512   0.71806   0.00000  Uiso   1.00
O1155  O     0.40323   0.52293   0.77820   0.00000  Uiso   1.00
O1156  O     0.58773   0.48610   0.76768   0.00000  Uiso   1.00
O1157  O     0.47133   0.40236   0.73607   0.00000  Uiso   1.00
O1158  O     0.53771   0.58860   0.71805   0.00000  Uiso   1.00
Zn1159 Zn    0.52577   0.47423   0.78278   0.00000  Uiso   1.00
Zn1160 Zn    0.46792   0.45711   0.72258   0.00000  Uiso   1.00
Zn1161 Zn    0.54500   0.52997   0.71188   0.00000  Uiso   1.00
Zn1162 Zn    0.46131   0.53868   0.78277   0.00000  Uiso   1.00
C1163  C     0.71906   0.49304   0.75919   0.00000  Uiso   1.00
C1164  C     0.86527   0.45763   0.95667   0.00000  Uiso   1.00
C1165  C     0.89198   0.44566   0.97643   0.00000  Uiso   1.00
C1166  C     0.94782   0.50673   0.74091   0.00000  Uiso   1.00
C1167  C     0.88328   0.45238   0.51786   0.00000  Uiso   1.00
C1168  C     0.84526   0.47066   0.54017   0.00000  Uiso   1.00
C1169  C     0.91192   0.44128   0.53736   0.00000  Uiso   1.00
C1170  C     0.90295   0.44950   0.57919   0.00000  Uiso   1.00
C1171  C     0.83757   0.47875   0.58153   0.00000  Uiso   1.00
C1172  C     0.99414   0.50926   0.73659   0.00000  Uiso   1.00
C1173  C     0.67385   0.49163   0.76223   0.00000  Uiso   1.00
C1174  C     0.75395   0.53213   0.92196   0.00000  Uiso   1.00
C1175  C     0.84686   0.65562   0.73962   0.00000  Uiso   1.00
C1176  C     0.81640   0.34586   0.76273   0.00000  Uiso   1.00
C1177  C     0.82311   0.38956   0.75835   0.00000  Uiso   1.00
C1178  C     0.84323   0.61100   0.74146   0.00000  Uiso   1.00
C1179  C     0.85492   0.47867   0.64384   0.00000  Uiso   1.00
C1180  C     0.81125   0.52038   0.85644   0.00000  Uiso   1.00
C1181  C     0.79583   0.52225   0.90015   0.00000  Uiso   1.00
C1182  C     0.86569   0.46871   0.60070   0.00000  Uiso   1.00
C1183  C     0.73982   0.52882   0.96278   0.00000  Uiso   1.00
C1184  C     0.95241   0.42321   0.51437   0.00000  Uiso   1.00
C1185  C     0.82203   0.50868   0.91972   0.00000  Uiso   1.00
C1186  C     0.70315   0.57302   0.71475   0.00000  Uiso   1.00
C1187  C     0.75240   0.35527   0.82006   0.00000  Uiso   1.00
C1188  C     0.93112   0.43727   0.60123   0.00000  Uiso   1.00
C1189  C     0.69912   0.51020   0.88797   0.00000  Uiso   1.00
C1190  C     0.84115   0.40840   0.90758   0.00000  Uiso   1.00
C1191  C     0.80604   0.49995   0.95943   0.00000  Uiso   1.00
C1192  C     0.76535   0.51276   0.98149   0.00000  Uiso   1.00
C1193  C     0.82999   0.48035   0.97822   0.00000  Uiso   1.00
C1194  C     0.81717   0.48240   0.52038   0.00000  Uiso   1.00
C1195  C     0.77619   0.49544   0.54135   0.00000  Uiso   1.00
C1196  C     0.75042   0.50932   0.52201   0.00000  Uiso   1.00
H1197  H     0.71898   0.51842   0.53913   0.00000  Uiso   1.00
H1198  H     0.68276   0.52352   0.67870   0.00000  Uiso   1.00
H1199  H     0.72868   0.58544   0.68934   0.00000  Uiso   1.00
H1200  H     0.71608   0.57804   0.74090   0.00000  Uiso   1.00
H1201  H     0.67457   0.59042   0.72119   0.00000  Uiso   1.00
H1202  H     0.75678   0.64335   0.77130   0.00000  Uiso   1.00
H1203  H     0.72468   0.33641   0.83871   0.00000  Uiso   1.00
H1204  H     0.73968   0.37949   0.80905   0.00000  Uiso   1.00
H1205  H     0.77371   0.37028   0.83872   0.00000  Uiso   1.00
H1206  H     0.93177   0.45334   0.63005   0.00000  Uiso   1.00
H1207  H     0.70716   0.56737   0.92015   0.00000  Uiso   1.00
H1208  H     0.98433   0.47661   0.78664   0.00000  Uiso   1.00
H1209  H     0.67646   0.49400   0.91278   0.00000  Uiso   1.00
H1210  H     0.71971   0.48762   0.86718   0.00000  Uiso   1.00
H1211  H     0.67998   0.52221   0.87160   0.00000  Uiso   1.00
H1212  H     0.90353   0.43781   0.90061   0.00000  Uiso   1.00
H1213  H     0.84739   0.40061   0.87501   0.00000  Uiso   1.00
H1214  H     0.80756   0.41678   0.91985   0.00000  Uiso   1.00
H1215  H     0.84435   0.38058   0.92071   0.00000  Uiso   1.00
H1216  H     0.87572   0.33659   0.71943   0.00000  Uiso   1.00
H1217  H     0.81073   0.49481   0.59985   0.00000  Uiso   1.00
H1218  H     0.91954   0.43032   0.95846   0.00000  Uiso   1.00
H1219  H     0.70809   0.53742   0.97964   0.00000  Uiso   1.00
H1220  H     0.85524   0.50549   0.90332   0.00000  Uiso   1.00
H1221  H     0.76226   0.49376   0.57272   0.00000  Uiso   1.00
H1222  H     0.98324   0.43789   0.51841   0.00000  Uiso   1.00
N1223  N     0.69136   0.52914   0.70488   0.00000  Uiso   1.00
N1224  N     0.77600   0.66176   0.78712   0.00000  Uiso   1.00
N1225  N     0.72550   0.54455   0.90316   0.00000  Uiso   1.00
N1226  N     0.87203   0.44279   0.91571   0.00000  Uiso   1.00
O1227  O     0.83333   0.50000   0.75000   0.00000  Uiso   1.00
O1228  O     0.82360   0.45726   0.66625   0.00000  Uiso   1.00
O1229  O     0.79354   0.53979   0.83749   0.00000  Uiso   1.00
O1230  O     0.87755   0.50826   0.65877   0.00000  Uiso   1.00
O1231  O     0.83865   0.49468   0.83749   0.00000  Uiso   1.00
O1232  O     0.95133   0.39077   0.99250   0.00000  Uiso   1.00
O1233  O     0.95277   0.40820   0.58830   0.00000  Uiso   1.00
O1234  O     0.84515   0.41434   0.77821   0.00000  Uiso   1.00
O1235  O     0.81247   0.59469   0.76767   0.00000  Uiso   1.00
O1236  O     0.74119   0.46584   0.73607   0.00000  Uiso   1.00
O1237  O     0.93452   0.52512   0.71806   0.00000  Uiso   1.00
O1238  O     0.73656   0.52293   0.77820   0.00000  Uiso   1.00
O1239  O     0.92106   0.48610   0.76768   0.00000  Uiso   1.00
O1240  O     0.80467   0.40236   0.73607   0.00000  Uiso   1.00
O1241  O     0.87104   0.58860   0.71805   0.00000  Uiso   1.00
Zn1242 Zn    0.85910   0.47423   0.78278   0.00000  Uiso   1.00
Zn1243 Zn    0.80125   0.45711   0.72258   0.00000  Uiso   1.00
Zn1244 Zn    0.87833   0.52997   0.71188   0.00000  Uiso   1.00
Zn1245 Zn    0.79465   0.53868   0.78277   0.00000  Uiso   1.00
C1246  C     0.05239   0.82637   0.75919   0.00000  Uiso   1.00
C1247  C     0.19860   0.79096   0.95667   0.00000  Uiso   1.00
C1248  C     0.22532   0.77899   0.97643   0.00000  Uiso   1.00
C1249  C     0.28115   0.84006   0.74091   0.00000  Uiso   1.00
C1250  C     0.21661   0.78572   0.51786   0.00000  Uiso   1.00
C1251  C     0.17859   0.80400   0.54017   0.00000  Uiso   1.00
C1252  C     0.24525   0.77462   0.53736   0.00000  Uiso   1.00
C1253  C     0.23628   0.78284   0.57919   0.00000  Uiso   1.00
C1254  C     0.17090   0.81209   0.58153   0.00000  Uiso   1.00
C1255  C     0.32747   0.84259   0.73659   0.00000  Uiso   1.00
C1256  C     0.00718   0.82497   0.76223   0.00000  Uiso   1.00
C1257  C     0.08728   0.86547   0.92196   0.00000  Uiso   1.00
C1258  C     0.18019   0.98895   0.73962   0.00000  Uiso   1.00
C1259  C     0.14974   0.67920   0.76273   0.00000  Uiso   1.00
C1260  C     0.15644   0.72289   0.75835   0.00000  Uiso   1.00
C1261  C     0.17656   0.94433   0.74146   0.00000  Uiso   1.00
C1262  C     0.18825   0.81200   0.64384   0.00000  Uiso   1.00
C1263  C     0.14459   0.85371   0.85644   0.00000  Uiso   1.00
C1264  C     0.12917   0.85558   0.90015   0.00000  Uiso   1.00
C1265  C     0.19902   0.80204   0.60070   0.00000  Uiso   1.00
C1266  C     0.07315   0.86216   0.96278   0.00000  Uiso   1.00
C1267  C     0.28575   0.75655   0.51437   0.00000  Uiso   1.00
C1268  C     0.15536   0.84201   0.91972   0.00000  Uiso   1.00
C1269  C     0.03649   0.90635   0.71475   0.00000  Uiso   1.00
C1270  C     0.08573   0.68860   0.82006   0.00000  Uiso   1.00
C1271  C     0.26445   0.77060   0.60123   0.00000  Uiso   1.00
C1272  C     0.03245   0.84353   0.88797   0.00000  Uiso   1.00
C1273  C     0.17448   0.74173   0.90758   0.00000  Uiso   1.00
C1274  C     0.13937   0.83329   0.95943   0.00000  Uiso   1.00
C1275  C     0.09868   0.84609   0.98149   0.00000  Uiso   1.00
C1276  C     0.16332   0.81369   0.97822   0.00000  Uiso   1.00
C1277  C     0.15050   0.81573   0.52038   0.00000  Uiso   1.00
C1278  C     0.10952   0.82877   0.54135   0.00000  Uiso   1.00
C1279  C     0.08375   0.84265   0.52201   0.00000  Uiso   1.00
H1280  H     0.05231   0.85175   0.53913   0.00000  Uiso   1.00
H1281  H     0.01610   0.85685   0.67870   0.00000  Uiso   1.00
H1282  H     0.06202   0.91877   0.68934   0.00000  Uiso   1.00
H1283  H     0.04942   0.91138   0.74090   0.00000  Uiso   1.00
H1284  H     0.00790   0.92375   0.72119   0.00000  Uiso   1.00
H1285  H     0.09011   0.97669   0.77130   0.00000  Uiso   1.00
H1286  H     0.05802   0.66974   0.83871   0.00000  Uiso   1.00
H1287  H     0.07301   0.71282   0.80905   0.00000  Uiso   1.00
H1288  H     0.10705   0.70361   0.83872   0.00000  Uiso   1.00
H1289  H     0.26511   0.78667   0.63005   0.00000  Uiso   1.00
H1290  H     0.04049   0.90070   0.92015   0.00000  Uiso   1.00
H1291  H     0.31766   0.80995   0.78664   0.00000  Uiso   1.00
H1292  H     0.00980   0.82733   0.91278   0.00000  Uiso   1.00
H1293  H     0.05305   0.82095   0.86718   0.00000  Uiso   1.00
H1294  H     0.01332   0.85554   0.87160   0.00000  Uiso   1.00
H1295  H     0.23687   0.77114   0.90061   0.00000  Uiso   1.00
H1296  H     0.18072   0.73394   0.87501   0.00000  Uiso   1.00
H1297  H     0.14089   0.75011   0.91985   0.00000  Uiso   1.00
H1298  H     0.17768   0.71392   0.92071   0.00000  Uiso   1.00
H1299  H     0.20905   0.66992   0.71943   0.00000  Uiso   1.00
H1300  H     0.14407   0.82815   0.59985   0.00000  Uiso   1.00
H1301  H     0.25287   0.76365   0.95846   0.00000  Uiso   1.00
H1302  H     0.04142   0.87075   0.97964   0.00000  Uiso   1.00
H1303  H     0.18857   0.83882   0.90332   0.00000  Uiso   1.00
H1304  H     0.09559   0.82710   0.57272   0.00000  Uiso   1.00
H1305  H     0.31658   0.77122   0.51841   0.00000  Uiso   1.00
N1306  N     0.02470   0.86247   0.70488   0.00000  Uiso   1.00
N1307  N     0.10933   0.99509   0.78712   0.00000  Uiso   1.00
N1308  N     0.05883   0.87788   0.90316   0.00000  Uiso   1.00
N1309  N     0.20537   0.77613   0.91571   0.00000  Uiso   1.00
O1310  O     0.16667   0.83333   0.75000   0.00000  Uiso   1.00
O1311  O     0.15693   0.79060   0.66625   0.00000  Uiso   1.00
O1312  O     0.12687   0.87313   0.83749   0.00000  Uiso   1.00
O1313  O     0.21088   0.84159   0.65877   0.00000  Uiso   1.00
O1314  O     0.17198   0.82802   0.83749   0.00000  Uiso   1.00
O1315  O     0.28467   0.72411   0.99250   0.00000  Uiso   1.00
O1316  O     0.28610   0.74153   0.58830   0.00000  Uiso   1.00
O1317  O     0.17849   0.74768   0.77821   0.00000  Uiso   1.00
O1318  O     0.14581   0.92803   0.76767   0.00000  Uiso   1.00
O1319  O     0.07452   0.79917   0.73607   0.00000  Uiso   1.00
O1320  O     0.26785   0.85845   0.71806   0.00000  Uiso   1.00
O1321  O     0.06990   0.85627   0.77820   0.00000  Uiso   1.00
O1322  O     0.25440   0.81944   0.76768   0.00000  Uiso   1.00
O1323  O     0.13800   0.73570   0.73607   0.00000  Uiso   1.00
O1324  O     0.20437   0.92193   0.71805   0.00000  Uiso   1.00
Zn1325 Zn    0.19244   0.80756   0.78278   0.00000  Uiso   1.00
Zn1326 Zn    0.13459   0.79044   0.72258   0.00000  Uiso   1.00
Zn1327 Zn    0.21166   0.86331   0.71188   0.00000  Uiso   1.00
Zn1328 Zn    0.12798   0.87202   0.78277   0.00000  Uiso   1.00
C1329  C     0.38572   0.82637   0.75919   0.00000  Uiso   1.00
C1330  C     0.53193   0.79096   0.95667   0.00000  Uiso   1.00
C1331  C     0.55865   0.77899   0.97643   0.00000  Uiso   1.00
C1332  C     0.61448   0.84006   0.74091   0.00000  Uiso   1.00
C1333  C     0.54995   0.78572   0.51786   0.00000  Uiso   1.00
C1334  C     0.51192   0.80400   0.54017   0.00000  Uiso   1.00
C1335  C     0.57859   0.77462   0.53736   0.00000  Uiso   1.00
C1336  C     0.56961   0.78284   0.57919   0.00000  Uiso   1.00
C1337  C     0.50424   0.81209   0.58153   0.00000  Uiso   1.00
C1338  C     0.66081   0.84259   0.73659   0.00000  Uiso   1.00
C1339  C     0.34052   0.82497   0.76223   0.00000  Uiso   1.00
C1340  C     0.42061   0.86547   0.92196   0.00000  Uiso   1.00
C1341  C     0.51353   0.98895   0.73962   0.00000  Uiso   1.00
C1342  C     0.48307   0.67920   0.76273   0.00000  Uiso   1.00
C1343  C     0.48978   0.72289   0.75835   0.00000  Uiso   1.00
C1344  C     0.50989   0.94433   0.74146   0.00000  Uiso   1.00
C1345  C     0.52159   0.81200   0.64384   0.00000  Uiso   1.00
C1346  C     0.47792   0.85371   0.85644   0.00000  Uiso   1.00
C1347  C     0.46250   0.85558   0.90015   0.00000  Uiso   1.00
C1348  C     0.53235   0.80204   0.60070   0.00000  Uiso   1.00
C1349  C     0.40649   0.86216   0.96278   0.00000  Uiso   1.00
C1350  C     0.61908   0.75655   0.51437   0.00000  Uiso   1.00
C1351  C     0.48869   0.84201   0.91972   0.00000  Uiso   1.00
C1352  C     0.36982   0.90635   0.71475   0.00000  Uiso   1.00
C1353  C     0.41906   0.68860   0.82006   0.00000  Uiso   1.00
C1354  C     0.59779   0.77060   0.60123   0.00000  Uiso   1.00
C1355  C     0.36578   0.84353   0.88797   0.00000  Uiso   1.00
C1356  C     0.50781   0.74173   0.90758   0.00000  Uiso   1.00
C1357  C     0.47270   0.83329   0.95943   0.00000  Uiso   1.00
C1358  C     0.43201   0.84609   0.98149   0.00000  Uiso   1.00
C1359  C     0.49666   0.81369   0.97822   0.00000  Uiso   1.00
C1360  C     0.48383   0.81573   0.52038   0.00000  Uiso   1.00
C1361  C     0.44286   0.82877   0.54135   0.00000  Uiso   1.00
C1362  C     0.41708   0.84265   0.52201   0.00000  Uiso   1.00
H1363  H     0.38565   0.85175   0.53913   0.00000  Uiso   1.00
H1364  H     0.34943   0.85685   0.67870   0.00000  Uiso   1.00
H1365  H     0.39535   0.91877   0.68934   0.00000  Uiso   1.00
H1366  H     0.38275   0.91138   0.74090   0.00000  Uiso   1.00
H1367  H     0.34123   0.92375   0.72119   0.00000  Uiso   1.00
H1368  H     0.42344   0.97669   0.77130   0.00000  Uiso   1.00
H1369  H     0.39135   0.66974   0.83871   0.00000  Uiso   1.00
H1370  H     0.40634   0.71282   0.80905   0.00000  Uiso   1.00
H1371  H     0.44038   0.70361   0.83872   0.00000  Uiso   1.00
H1372  H     0.59844   0.78667   0.63005   0.00000  Uiso   1.00
H1373  H     0.37383   0.90070   0.92015   0.00000  Uiso   1.00
H1374  H     0.65099   0.80995   0.78664   0.00000  Uiso   1.00
H1375  H     0.34313   0.82733   0.91278   0.00000  Uiso   1.00
H1376  H     0.38638   0.82095   0.86718   0.00000  Uiso   1.00
H1377  H     0.34665   0.85554   0.87160   0.00000  Uiso   1.00
H1378  H     0.57020   0.77114   0.90061   0.00000  Uiso   1.00
H1379  H     0.51405   0.73394   0.87501   0.00000  Uiso   1.00
H1380  H     0.47422   0.75011   0.91985   0.00000  Uiso   1.00
H1381  H     0.51102   0.71392   0.92071   0.00000  Uiso   1.00
H1382  H     0.54239   0.66992   0.71943   0.00000  Uiso   1.00
H1383  H     0.47740   0.82815   0.59985   0.00000  Uiso   1.00
H1384  H     0.58621   0.76365   0.95846   0.00000  Uiso   1.00
H1385  H     0.37476   0.87075   0.97964   0.00000  Uiso   1.00
H1386  H     0.52191   0.83882   0.90332   0.00000  Uiso   1.00
H1387  H     0.42893   0.82710   0.57272   0.00000  Uiso   1.00
H1388  H     0.64991   0.77122   0.51841   0.00000  Uiso   1.00
N1389  N     0.35803   0.86247   0.70488   0.00000  Uiso   1.00
N1390  N     0.44266   0.99509   0.78712   0.00000  Uiso   1.00
N1391  N     0.39216   0.87788   0.90316   0.00000  Uiso   1.00
N1392  N     0.53870   0.77613   0.91571   0.00000  Uiso   1.00
O1393  O     0.50000   0.83333   0.75000   0.00000  Uiso   1.00
O1394  O     0.49027   0.79060   0.66625   0.00000  Uiso   1.00
O1395  O     0.46020   0.87313   0.83749   0.00000  Uiso   1.00
O1396  O     0.54421   0.84159   0.65877   0.00000  Uiso   1.00
O1397  O     0.50532   0.82802   0.83749   0.00000  Uiso   1.00
O1398  O     0.61800   0.72411   0.99250   0.00000  Uiso   1.00
O1399  O     0.61944   0.74153   0.58830   0.00000  Uiso   1.00
O1400  O     0.51182   0.74768   0.77821   0.00000  Uiso   1.00
O1401  O     0.47914   0.92803   0.76767   0.00000  Uiso   1.00
O1402  O     0.40785   0.79917   0.73607   0.00000  Uiso   1.00
O1403  O     0.60119   0.85845   0.71806   0.00000  Uiso   1.00
O1404  O     0.40323   0.85627   0.77820   0.00000  Uiso   1.00
O1405  O     0.58773   0.81944   0.76768   0.00000  Uiso   1.00
O1406  O     0.47133   0.73570   0.73607   0.00000  Uiso   1.00
O1407  O     0.53771   0.92193   0.71805   0.00000  Uiso   1.00
Zn1408 Zn    0.52577   0.80756   0.78278   0.00000  Uiso   1.00
Zn1409 Zn    0.46792   0.79044   0.72258   0.00000  Uiso   1.00
Zn1410 Zn    0.54500   0.86331   0.71188   0.00000  Uiso   1.00
Zn1411 Zn    0.46131   0.87202   0.78277   0.00000  Uiso   1.00
C1412  C     0.71906   0.82637   0.75919   0.00000  Uiso   1.00
C1413  C     0.86527   0.79096   0.95667   0.00000  Uiso   1.00
C1414  C     0.89198   0.77899   0.97643   0.00000  Uiso   1.00
C1415  C     0.94782   0.84006   0.74091   0.00000  Uiso   1.00
C1416  C     0.88328   0.78572   0.51786   0.00000  Uiso   1.00
C1417  C     0.84526   0.80400   0.54017   0.00000  Uiso   1.00
C1418  C     0.91192   0.77462   0.53736   0.00000  Uiso   1.00
C1419  C     0.90295   0.78284   0.57919   0.00000  Uiso   1.00
C1420  C     0.83757   0.81209   0.58153   0.00000  Uiso   1.00
C1421  C     0.99414   0.84259   0.73659   0.00000  Uiso   1.00
C1422  C     0.67385   0.82497   0.76223   0.00000  Uiso   1.00
C1423  C     0.75395   0.86547   0.92196   0.00000  Uiso   1.00
C1424  C     0.84686   0.98895   0.73962   0.00000  Uiso   1.00
C1425  C     0.81640   0.67920   0.76273   0.00000  Uiso   1.00
C1426  C     0.82311   0.72289   0.75835   0.00000  Uiso   1.00
C1427  C     0.84323   0.94433   0.74146   0.00000  Uiso   1.00
C1428  C     0.85492   0.81200   0.64384   0.00000  Uiso   1.00
C1429  C     0.81125   0.85371   0.85644   0.00000  Uiso   1.00
C1430  C     0.79583   0.85558   0.90015   0.00000  Uiso   1.00
C1431  C     0.86569   0.80204   0.60070   0.00000  Uiso   1.00
C1432  C     0.73982   0.86216   0.96278   0.00000  Uiso   1.00
C1433  C     0.95241   0.75655   0.51437   0.00000  Uiso   1.00
C1434  C     0.82203   0.84201   0.91972   0.00000  Uiso   1.00
C1435  C     0.70315   0.90635   0.71475   0.00000  Uiso   1.00
C1436  C     0.75240   0.68860   0.82006   0.00000  Uiso   1.00
C1437  C     0.93112   0.77060   0.60123   0.00000  Uiso   1.00
C1438  C     0.69912   0.84353   0.88797   0.00000  Uiso   1.00
C1439  C     0.84115   0.74173   0.90758   0.00000  Uiso   1.00
C1440  C     0.80604   0.83329   0.95943   0.00000  Uiso   1.00
C1441  C     0.76535   0.84609   0.98149   0.00000  Uiso   1.00
C1442  C     0.82999   0.81369   0.97822   0.00000  Uiso   1.00
C1443  C     0.81717   0.81573   0.52038   0.00000  Uiso   1.00
C1444  C     0.77619   0.82877   0.54135   0.00000  Uiso   1.00
C1445  C     0.75042   0.84265   0.52201   0.00000  Uiso   1.00
H1446  H     0.71898   0.85175   0.53913   0.00000  Uiso   1.00
H1447  H     0.68276   0.85685   0.67870   0.00000  Uiso   1.00
H1448  H     0.72868   0.91877   0.68934   0.00000  Uiso   1.00
H1449  H     0.71608   0.91138   0.74090   0.00000  Uiso   1.00
H1450  H     0.67457   0.92375   0.72119   0.00000  Uiso   1.00
H1451  H     0.75678   0.97669   0.77130   0.00000  Uiso   1.00
H1452  H     0.72468   0.66974   0.83871   0.00000  Uiso   1.00
H1453  H     0.73968   0.71282   0.80905   0.00000  Uiso   1.00
H1454  H     0.77371   0.70361   0.83872   0.00000  Uiso   1.00
H1455  H     0.93177   0.78667   0.63005   0.00000  Uiso   1.00
H1456  H     0.70716   0.90070   0.92015   0.00000  Uiso   1.00
H1457  H     0.98433   0.80995   0.78664   0.00000  Uiso   1.00
H1458  H     0.67646   0.82733   0.91278   0.00000  Uiso   1.00
H1459  H     0.71971   0.82095   0.86718   0.00000  Uiso   1.00
H1460  H     0.67998   0.85554   0.87160   0.00000  Uiso   1.00
H1461  H     0.90353   0.77114   0.90061   0.00000  Uiso   1.00
H1462  H     0.84739   0.73394   0.87501   0.00000  Uiso   1.00
H1463  H     0.80756   0.75011   0.91985   0.00000  Uiso   1.00
H1464  H     0.84435   0.71392   0.92071   0.00000  Uiso   1.00
H1465  H     0.87572   0.66992   0.71943   0.00000  Uiso   1.00
H1466  H     0.81073   0.82815   0.59985   0.00000  Uiso   1.00
H1467  H     0.91954   0.76365   0.95846   0.00000  Uiso   1.00
H1468  H     0.70809   0.87075   0.97964   0.00000  Uiso   1.00
H1469  H     0.85524   0.83882   0.90332   0.00000  Uiso   1.00
H1470  H     0.76226   0.82710   0.57272   0.00000  Uiso   1.00
H1471  H     0.98324   0.77122   0.51841   0.00000  Uiso   1.00
N1472  N     0.69136   0.86247   0.70488   0.00000  Uiso   1.00
N1473  N     0.77600   0.99509   0.78712   0.00000  Uiso   1.00
N1474  N     0.72550   0.87788   0.90316   0.00000  Uiso   1.00
N1475  N     0.87203   0.77613   0.91571   0.00000  Uiso   1.00
O1476  O     0.83333   0.83333   0.75000   0.00000  Uiso   1.00
O1477  O     0.82360   0.79060   0.66625   0.00000  Uiso   1.00
O1478  O     0.79354   0.87313   0.83749   0.00000  Uiso   1.00
O1479  O     0.87755   0.84159   0.65877   0.00000  Uiso   1.00
O1480  O     0.83865   0.82802   0.83749   0.00000  Uiso   1.00
O1481  O     0.95133   0.72411   0.99250   0.00000  Uiso   1.00
O1482  O     0.95277   0.74153   0.58830   0.00000  Uiso   1.00
O1483  O     0.84515   0.74768   0.77821   0.00000  Uiso   1.00
O1484  O     0.81247   0.92803   0.76767   0.00000  Uiso   1.00
O1485  O     0.74119   0.79917   0.73607   0.00000  Uiso   1.00
O1486  O     0.93452   0.85845   0.71806   0.00000  Uiso   1.00
O1487  O     0.73656   0.85627   0.77820   0.00000  Uiso   1.00
O1488  O     0.92106   0.81944   0.76768   0.00000  Uiso   1.00
O1489  O     0.80467   0.73570   0.73607   0.00000  Uiso   1.00
O1490  O     0.87104   0.92193   0.71805   0.00000  Uiso   1.00
Zn1491 Zn    0.85910   0.80756   0.78278   0.00000  Uiso   1.00
Zn1492 Zn    0.80125   0.79044   0.72258   0.00000  Uiso   1.00
Zn1493 Zn    0.87833   0.86331   0.71188   0.00000  Uiso   1.00
Zn1494 Zn    0.79465   0.87202   0.78277   0.00000  Uiso   1.00
loop_
_geom_bond_atom_site_label_1
_geom_bond_atom_site_label_2
_geom_bond_distance
_geom_bond_site_symmetry_2
_ccdc_geom_bond_type
C1     C11     1.438   .     S
C1     O74     1.269   .     A
C1     O76     1.265   .     A
C2     N64     1.426   .     S
C2     C31     1.423   .     A
C2     C3      1.394   .     A
C3     H56     1.080   .     S
C3     C752    1.404   .     S
C4     O75     1.279   .     A
C4     C10     1.461   .     S
C4     O77     1.280   .     A
C5     C6      1.421   .     A
C5     C7      1.427   .     A
C5     C750    1.404   1_554 S
C6     C32     1.428   .     A
C6     C9      1.406   .     A
C7     C8      1.419   .     A
C7     C22     1.486   .     S
C8     C26     1.496   .     S
C8     C20     1.410   .     A
C9     H55     1.078   .     S
C9     C20     1.390   .     A
C10    C94     1.340   .     S
C10    N144    1.428   .     S
C11    C176    1.340   1_455 S
C11    H212    1.086   1_455 S
C12    N63     1.423   .     S
C12    C21     1.401   .     A
C12    C19     1.413   .     A
C13    C16     1.454   .     S
C13    C263    1.346   .     S
C13    H303    1.088   .     S
C14    C15     1.436   .     S
C14    C511    1.346   1_545 S
C14    N560    1.433   1_545 S
C15    O72     1.275   .     A
C15    O78     1.270   .     A
C16    O73     1.260   .     A
C16    O79     1.273   .     A
C17    O66     1.278   .     A
C17    C20     1.465   .     S
C17    O68     1.275   .     A
C18    C19     1.478   .     S
C18    O69     1.287   .     A
C18    O67     1.285   .     A
C19    C23     1.400   .     A
C21    H57     1.085   .     S
C21    C30     1.402   .     A
C22    H60     1.086   .     S
C22    O817    1.221   1_554 S
C23    H58     1.078   .     S
C23    C29     1.407   .     A
C24    N61     1.447   .     S
C24    H38     1.110   .     S
C24    H37     1.110   .     S
C24    H39     1.112   .     S
C25    H43     1.111   .     S
C25    H41     1.110   .     S
C25    H42     1.111   .     S
C25    N560    1.448   1_545 S
C26    H44     1.084   .     S
C26    O71     1.221   .     D
C27    H48     1.111   .     S
C27    N63     1.447   .     S
C27    H47     1.112   .     S
C27    H49     1.110   .     S
C28    H51     1.111   .     S
C28    N64     1.447   .     S
C28    H53     1.111   .     S
C28    H52     1.111   .     S
C29    C30     1.414   .     A
C29    C31     1.430   .     A
C30    C781    1.392   .     S
C31    C779    1.424   .     S
C32    C33     1.416   .     A
C32    C778    1.424   1_554 S
C33    H59     1.078   .     S
C33    C34     1.388   .     A
C34    H35     1.084   .     S
C34    C777    1.392   1_554 S
H36    N61     1.032   .     S
H40    N62     1.032   .     S
H45    N63     1.032   .     S
H46    C94     1.086   .     S
H50    N64     1.032   .     S
H54    C511    1.088   1_545 S
N61    C176    1.428   1_455 S
N62    C263    1.433   .     S
N62    C274    1.448   .     S
O65    Zn83    1.928   .     S
O65    Zn80    1.960   .     S
O65    Zn81    1.940   .     S
O65    Zn82    1.930   .     S
O66    Zn81    1.916   .     S
O67    Zn83    1.928   .     S
O68    Zn82    1.921   .     S
O69    Zn80    1.911   .     S
O70    C769    1.221   .     S
O72    Zn80    1.935   .     S
O73    Zn83    1.939   .     S
O74    Zn81    1.926   .     S
O75    Zn82    1.937   .     S
O76    Zn83    1.932   .     S
O77    Zn80    1.922   .     S
O78    Zn81    1.945   .     S
O79    Zn82    1.938   .     S
C84    C94     1.438   .     S
C84    O157    1.269   .     A
C84    O159    1.265   .     A
C85    N147    1.426   .     S
C85    C114    1.423   .     A
C85    C86     1.394   .     A
C86    H139    1.080   .     S
C86    C835    1.404   .     S
C87    O158    1.279   .     A
C87    C93     1.461   .     S
C87    O160    1.280   .     A
C88    C89     1.421   .     A
C88    C90     1.427   .     A
C88    C833    1.404   1_554 S
C89    C115    1.428   .     A
C89    C92     1.406   .     A
C90    C91     1.419   .     A
C90    C105    1.486   .     S
C91    C109    1.496   .     S
C91    C103    1.410   .     A
C92    H138    1.078   .     S
C92    C103    1.390   .     A
C93    C177    1.340   .     S
C93    N227    1.428   .     S
C95    N146    1.423   .     S
C95    C104    1.401   .     A
C95    C102    1.413   .     A
C96    C99     1.454   .     S
C96    C346    1.346   .     S
C96    H386    1.088   .     S
C97    C98     1.436   .     S
C97    C594    1.346   1_545 S
C97    N643    1.433   1_545 S
C98    O155    1.275   .     A
C98    O161    1.270   .     A
C99    O156    1.260   .     A
C99    O162    1.273   .     A
C100   O149    1.278   .     A
C100   C103    1.465   .     S
C100   O151    1.275   .     A
C101   C102    1.478   .     S
C101   O152    1.287   .     A
C101   O150    1.285   .     A
C102   C106    1.400   .     A
C104   H140    1.085   .     S
C104   C113    1.402   .     A
C105   H143    1.086   .     S
C105   O900    1.221   1_554 S
C106   H141    1.078   .     S
C106   C112    1.407   .     A
C107   N144    1.447   .     S
C107   H121    1.110   .     S
C107   H120    1.110   .     S
C107   H122    1.112   .     S
C108   H126    1.111   .     S
C108   H124    1.110   .     S
C108   H125    1.111   .     S
C108   N643    1.448   1_545 S
C109   H127    1.084   .     S
C109   O154    1.221   .     D
C110   H131    1.111   .     S
C110   N146    1.447   .     S
C110   H130    1.112   .     S
C110   H132    1.110   .     S
C111   H134    1.111   .     S
C111   N147    1.447   .     S
C111   H136    1.111   .     S
C111   H135    1.111   .     S
C112   C113    1.414   .     A
C112   C114    1.430   .     A
C113   C864    1.392   .     S
C114   C862    1.424   .     S
C115   C116    1.416   .     A
C115   C861    1.424   1_554 S
C116   H142    1.078   .     S
C116   C117    1.388   .     A
C117   H118    1.084   .     S
C117   C860    1.392   1_554 S
H119   N144    1.032   .     S
H123   N145    1.032   .     S
H128   N146    1.032   .     S
H129   C177    1.086   .     S
H133   N147    1.032   .     S
H137   C594    1.088   1_545 S
N145   C346    1.433   .     S
N145   C357    1.448   .     S
O148   Zn166   1.928   .     S
O148   Zn163   1.960   .     S
O148   Zn164   1.940   .     S
O148   Zn165   1.930   .     S
O149   Zn164   1.916   .     S
O150   Zn166   1.928   .     S
O151   Zn165   1.921   .     S
O152   Zn163   1.911   .     S
O153   C852    1.221   .     S
O155   Zn163   1.935   .     S
O156   Zn166   1.939   .     S
O157   Zn164   1.926   .     S
O158   Zn165   1.937   .     S
O159   Zn166   1.932   .     S
O160   Zn163   1.922   .     S
O161   Zn164   1.945   .     S
O162   Zn165   1.938   .     S
C167   C177    1.438   .     S
C167   O240    1.269   .     A
C167   O242    1.265   .     A
C168   N230    1.426   .     S
C168   C197    1.423   .     A
C168   C169    1.394   .     A
C169   H222    1.080   .     S
C169   C918    1.404   .     S
C170   O241    1.279   .     A
C170   C176    1.461   .     S
C170   O243    1.280   .     A
C171   C172    1.421   .     A
C171   C173    1.427   .     A
C171   C916    1.404   1_554 S
C172   C198    1.428   .     A
C172   C175    1.406   .     A
C173   C174    1.419   .     A
C173   C188    1.486   .     S
C174   C192    1.496   .     S
C174   C186    1.410   .     A
C175   H221    1.078   .     S
C175   C186    1.390   .     A
C176   C11     1.340   1_655 S
C176   N61     1.428   1_655 S
C178   N229    1.423   .     S
C178   C187    1.401   .     A
C178   C185    1.413   .     A
C179   C182    1.454   .     S
C179   C429    1.346   .     S
C179   H469    1.088   .     S
C180   C181    1.436   .     S
C180   C677    1.346   1_545 S
C180   N726    1.433   1_545 S
C181   O238    1.275   .     A
C181   O244    1.270   .     A
C182   O239    1.260   .     A
C182   O245    1.273   .     A
C183   O232    1.278   .     A
C183   C186    1.465   .     S
C183   O234    1.275   .     A
C184   C185    1.478   .     S
C184   O235    1.287   .     A
C184   O233    1.285   .     A
C185   C189    1.400   .     A
C187   H223    1.085   .     S
C187   C196    1.402   .     A
C188   H226    1.086   .     S
C188   O983    1.221   1_554 S
C189   H224    1.078   .     S
C189   C195    1.407   .     A
C190   N227    1.447   .     S
C190   H204    1.110   .     S
C190   H203    1.110   .     S
C190   H205    1.112   .     S
C191   H209    1.111   .     S
C191   H207    1.110   .     S
C191   H208    1.111   .     S
C191   N726    1.448   1_545 S
C192   H210    1.084   .     S
C192   O237    1.221   .     D
C193   H214    1.111   .     S
C193   N229    1.447   .     S
C193   H213    1.112   .     S
C193   H215    1.110   .     S
C194   H217    1.111   .     S
C194   N230    1.447   .     S
C194   H219    1.111   .     S
C194   H218    1.111   .     S
C195   C196    1.414   .     A
C195   C197    1.430   .     A
C196   C947    1.392   .     S
C197   C945    1.424   .     S
C198   C199    1.416   .     A
C198   C944    1.424   1_554 S
C199   H225    1.078   .     S
C199   C200    1.388   .     A
C200   H201    1.084   .     S
C200   C943    1.392   1_554 S
H202   N227    1.032   .     S
H206   N228    1.032   .     S
H211   N229    1.032   .     S
H212   C11     1.086   1_655 S
H216   N230    1.032   .     S
H220   C677    1.088   1_545 S
N228   C429    1.433   .     S
N228   C440    1.448   .     S
O231   Zn249   1.928   .     S
O231   Zn246   1.960   .     S
O231   Zn247   1.940   .     S
O231   Zn248   1.930   .     S
O232   Zn247   1.916   .     S
O233   Zn249   1.928   .     S
O234   Zn248   1.921   .     S
O235   Zn246   1.911   .     S
O236   C935    1.221   .     S
O238   Zn246   1.935   .     S
O239   Zn249   1.939   .     S
O240   Zn247   1.926   .     S
O241   Zn248   1.937   .     S
O242   Zn249   1.932   .     S
O243   Zn246   1.922   .     S
O244   Zn247   1.945   .     S
O245   Zn248   1.938   .     S
C250   C260    1.438   .     S
C250   O323    1.269   .     A
C250   O325    1.265   .     A
C251   N313    1.426   .     S
C251   C280    1.423   .     A
C251   C252    1.394   .     A
C252   H305    1.080   .     S
C252   C1001   1.404   .     S
C253   O324    1.279   .     A
C253   C259    1.461   .     S
C253   O326    1.280   .     A
C254   C255    1.421   .     A
C254   C256    1.427   .     A
C254   C999    1.404   1_554 S
C255   C281    1.428   .     A
C255   C258    1.406   .     A
C256   C257    1.419   .     A
C256   C271    1.486   .     S
C257   C275    1.496   .     S
C257   C269    1.410   .     A
C258   H304    1.078   .     S
C258   C269    1.390   .     A
C259   C343    1.340   .     S
C259   N393    1.428   .     S
C260   C425    1.340   1_455 S
C260   H461    1.086   1_455 S
C261   N312    1.423   .     S
C261   C270    1.401   .     A
C261   C268    1.413   .     A
C262   C265    1.454   .     S
C262   C512    1.346   .     S
C262   H552    1.088   .     S
C263   C264    1.436   .     S
C264   O321    1.275   .     A
C264   O327    1.270   .     A
C265   O322    1.260   .     A
C265   O328    1.273   .     A
C266   O315    1.278   .     A
C266   C269    1.465   .     S
C266   O317    1.275   .     A
C267   C268    1.478   .     S
C267   O318    1.287   .     A
C267   O316    1.285   .     A
C268   C272    1.400   .     A
C270   H306    1.085   .     S
C270   C279    1.402   .     A
C271   H309    1.086   .     S
C271   O1066   1.221   1_554 S
C272   H307    1.078   .     S
C272   C278    1.407   .     A
C273   N310    1.447   .     S
C273   H287    1.110   .     S
C273   H286    1.110   .     S
C273   H288    1.112   .     S
C274   H292    1.111   .     S
C274   H290    1.110   .     S
C274   H291    1.111   .     S
C275   H293    1.084   .     S
C275   O320    1.221   .     D
C276   H297    1.111   .     S
C276   N312    1.447   .     S
C276   H296    1.112   .     S
C276   H298    1.110   .     S
C277   H300    1.111   .     S
C277   N313    1.447   .     S
C277   H302    1.111   .     S
C277   H301    1.111   .     S
C278   C279    1.414   .     A
C278   C280    1.430   .     A
C279   C1030   1.392   .     S
C280   C1028   1.424   .     S
C281   C282    1.416   .     A
C281   C1027   1.424   1_554 S
C282   H308    1.078   .     S
C282   C283    1.388   .     A
C283   H284    1.084   .     S
C283   C1026   1.392   1_554 S
H285   N310    1.032   .     S
H289   N311    1.032   .     S
H294   N312    1.032   .     S
H295   C343    1.086   .     S
H299   N313    1.032   .     S
N310   C425    1.428   1_455 S
N311   C512    1.433   .     S
N311   C523    1.448   .     S
O314   Zn332   1.928   .     S
O314   Zn329   1.960   .     S
O314   Zn330   1.940   .     S
O314   Zn331   1.930   .     S
O315   Zn330   1.916   .     S
O316   Zn332   1.928   .     S
O317   Zn331   1.921   .     S
O318   Zn329   1.911   .     S
O319   C1018   1.221   .     S
O321   Zn329   1.935   .     S
O322   Zn332   1.939   .     S
O323   Zn330   1.926   .     S
O324   Zn331   1.937   .     S
O325   Zn332   1.932   .     S
O326   Zn329   1.922   .     S
O327   Zn330   1.945   .     S
O328   Zn331   1.938   .     S
C333   C343    1.438   .     S
C333   O406    1.269   .     A
C333   O408    1.265   .     A
C334   N396    1.426   .     S
C334   C363    1.423   .     A
C334   C335    1.394   .     A
C335   H388    1.080   .     S
C335   C1084   1.404   .     S
C336   O407    1.279   .     A
C336   C342    1.461   .     S
C336   O409    1.280   .     A
C337   C338    1.421   .     A
C337   C339    1.427   .     A
C337   C1082   1.404   1_554 S
C338   C364    1.428   .     A
C338   C341    1.406   .     A
C339   C340    1.419   .     A
C339   C354    1.486   .     S
C340   C358    1.496   .     S
C340   C352    1.410   .     A
C341   H387    1.078   .     S
C341   C352    1.390   .     A
C342   C426    1.340   .     S
C342   N476    1.428   .     S
C344   N395    1.423   .     S
C344   C353    1.401   .     A
C344   C351    1.413   .     A
C345   C348    1.454   .     S
C345   C595    1.346   .     S
C345   H635    1.088   .     S
C346   C347    1.436   .     S
C347   O404    1.275   .     A
C347   O410    1.270   .     A
C348   O405    1.260   .     A
C348   O411    1.273   .     A
C349   O398    1.278   .     A
C349   C352    1.465   .     S
C349   O400    1.275   .     A
C350   C351    1.478   .     S
C350   O401    1.287   .     A
C350   O399    1.285   .     A
C351   C355    1.400   .     A
C353   H389    1.085   .     S
C353   C362    1.402   .     A
C354   H392    1.086   .     S
C354   O1149   1.221   1_554 S
C355   H390    1.078   .     S
C355   C361    1.407   .     A
C356   N393    1.447   .     S
C356   H370    1.110   .     S
C356   H369    1.110   .     S
C356   H371    1.112   .     S
C357   H375    1.111   .     S
C357   H373    1.110   .     S
C357   H374    1.111   .     S
C358   H376    1.084   .     S
C358   O403    1.221   .     D
C359   H380    1.111   .     S
C359   N395    1.447   .     S
C359   H379    1.112   .     S
C359   H381    1.110   .     S
C360   H383    1.111   .     S
C360   N396    1.447   .     S
C360   H385    1.111   .     S
C360   H384    1.111   .     S
C361   C362    1.414   .     A
C361   C363    1.430   .     A
C362   C1113   1.392   .     S
C363   C1111   1.424   .     S
C364   C365    1.416   .     A
C364   C1110   1.424   1_554 S
C365   H391    1.078   .     S
C365   C366    1.388   .     A
C366   H367    1.084   .     S
C366   C1109   1.392   1_554 S
H368   N393    1.032   .     S
H372   N394    1.032   .     S
H377   N395    1.032   .     S
H378   C426    1.086   .     S
H382   N396    1.032   .     S
N394   C595    1.433   .     S
N394   C606    1.448   .     S
O397   Zn415   1.928   .     S
O397   Zn412   1.960   .     S
O397   Zn413   1.940   .     S
O397   Zn414   1.930   .     S
O398   Zn413   1.916   .     S
O399   Zn415   1.928   .     S
O400   Zn414   1.921   .     S
O401   Zn412   1.911   .     S
O402   C1101   1.221   .     S
O404   Zn412   1.935   .     S
O405   Zn415   1.939   .     S
O406   Zn413   1.926   .     S
O407   Zn414   1.937   .     S
O408   Zn415   1.932   .     S
O409   Zn412   1.922   .     S
O410   Zn413   1.945   .     S
O411   Zn414   1.938   .     S
C416   C426    1.438   .     S
C416   O489    1.269   .     A
C416   O491    1.265   .     A
C417   N479    1.426   .     S
C417   C446    1.423   .     A
C417   C418    1.394   .     A
C418   H471    1.080   .     S
C418   C1167   1.404   .     S
C419   O490    1.279   .     A
C419   C425    1.461   .     S
C419   O492    1.280   .     A
C420   C421    1.421   .     A
C420   C422    1.427   .     A
C420   C1165   1.404   1_554 S
C421   C447    1.428   .     A
C421   C424    1.406   .     A
C422   C423    1.419   .     A
C422   C437    1.486   .     S
C423   C441    1.496   .     S
C423   C435    1.410   .     A
C424   H470    1.078   .     S
C424   C435    1.390   .     A
C425   C260    1.340   1_655 S
C425   N310    1.428   1_655 S
C427   N478    1.423   .     S
C427   C436    1.401   .     A
C427   C434    1.413   .     A
C428   C431    1.454   .     S
C428   C678    1.346   .     S
C428   H718    1.088   .     S
C429   C430    1.436   .     S
C430   O487    1.275   .     A
C430   O493    1.270   .     A
C431   O488    1.260   .     A
C431   O494    1.273   .     A
C432   O481    1.278   .     A
C432   C435    1.465   .     S
C432   O483    1.275   .     A
C433   C434    1.478   .     S
C433   O484    1.287   .     A
C433   O482    1.285   .     A
C434   C438    1.400   .     A
C436   H472    1.085   .     S
C436   C445    1.402   .     A
C437   H475    1.086   .     S
C437   O1232   1.221   1_554 S
C438   H473    1.078   .     S
C438   C444    1.407   .     A
C439   N476    1.447   .     S
C439   H453    1.110   .     S
C439   H452    1.110   .     S
C439   H454    1.112   .     S
C440   H458    1.111   .     S
C440   H456    1.110   .     S
C440   H457    1.111   .     S
C441   H459    1.084   .     S
C441   O486    1.221   .     D
C442   H463    1.111   .     S
C442   N478    1.447   .     S
C442   H462    1.112   .     S
C442   H464    1.110   .     S
C443   H466    1.111   .     S
C443   N479    1.447   .     S
C443   H468    1.111   .     S
C443   H467    1.111   .     S
C444   C445    1.414   .     A
C444   C446    1.430   .     A
C445   C1196   1.392   .     S
C446   C1194   1.424   .     S
C447   C448    1.416   .     A
C447   C1193   1.424   1_554 S
C448   H474    1.078   .     S
C448   C449    1.388   .     A
C449   H450    1.084   .     S
C449   C1192   1.392   1_554 S
H451   N476    1.032   .     S
H455   N477    1.032   .     S
H460   N478    1.032   .     S
H461   C260    1.086   1_655 S
H465   N479    1.032   .     S
N477   C678    1.433   .     S
N477   C689    1.448   .     S
O480   Zn498   1.928   .     S
O480   Zn495   1.960   .     S
O480   Zn496   1.940   .     S
O480   Zn497   1.930   .     S
O481   Zn496   1.916   .     S
O482   Zn498   1.928   .     S
O483   Zn497   1.921   .     S
O484   Zn495   1.911   .     S
O485   C1184   1.221   .     S
O487   Zn495   1.935   .     S
O488   Zn498   1.939   .     S
O489   Zn496   1.926   .     S
O490   Zn497   1.937   .     S
O491   Zn498   1.932   .     S
O492   Zn495   1.922   .     S
O493   Zn496   1.945   .     S
O494   Zn497   1.938   .     S
C499   C509    1.438   .     S
C499   O572    1.269   .     A
C499   O574    1.265   .     A
C500   N562    1.426   .     S
C500   C529    1.423   .     A
C500   C501    1.394   .     A
C501   H554    1.080   .     S
C501   C1250   1.404   .     S
C502   O573    1.279   .     A
C502   C508    1.461   .     S
C502   O575    1.280   .     A
C503   C504    1.421   .     A
C503   C505    1.427   .     A
C503   C1248   1.404   1_554 S
C504   C530    1.428   .     A
C504   C507    1.406   .     A
C505   C506    1.419   .     A
C505   C520    1.486   .     S
C506   C524    1.496   .     S
C506   C518    1.410   .     A
C507   H553    1.078   .     S
C507   C518    1.390   .     A
C508   C592    1.340   .     S
C508   N642    1.428   .     S
C509   C674    1.340   1_455 S
C509   H710    1.086   1_455 S
C510   N561    1.423   .     S
C510   C519    1.401   .     A
C510   C517    1.413   .     A
C511   C514    1.454   .     S
C511   C14     1.346   1_565 S
C511   H54     1.088   1_565 S
C512   C513    1.436   .     S
C513   O570    1.275   .     A
C513   O576    1.270   .     A
C514   O571    1.260   .     A
C514   O577    1.273   .     A
C515   O564    1.278   .     A
C515   C518    1.465   .     S
C515   O566    1.275   .     A
C516   C517    1.478   .     S
C516   O567    1.287   .     A
C516   O565    1.285   .     A
C517   C521    1.400   .     A
C519   H555    1.085   .     S
C519   C528    1.402   .     A
C520   H558    1.086   .     S
C520   O1315   1.221   1_554 S
C521   H556    1.078   .     S
C521   C527    1.407   .     A
C522   N559    1.447   .     S
C522   H536    1.110   .     S
C522   H535    1.110   .     S
C522   H537    1.112   .     S
C523   H541    1.111   .     S
C523   H539    1.110   .     S
C523   H540    1.111   .     S
C524   H542    1.084   .     S
C524   O569    1.221   .     D
C525   H546    1.111   .     S
C525   N561    1.447   .     S
C525   H545    1.112   .     S
C525   H547    1.110   .     S
C526   H549    1.111   .     S
C526   N562    1.447   .     S
C526   H551    1.111   .     S
C526   H550    1.111   .     S
C527   C528    1.414   .     A
C527   C529    1.430   .     A
C528   C1279   1.392   .     S
C529   C1277   1.424   .     S
C530   C531    1.416   .     A
C530   C1276   1.424   1_554 S
C531   H557    1.078   .     S
C531   C532    1.388   .     A
C532   H533    1.084   .     S
C532   C1275   1.392   1_554 S
H534   N559    1.032   .     S
H538   N560    1.032   .     S
H543   N561    1.032   .     S
H544   C592    1.086   .     S
H548   N562    1.032   .     S
N559   C674    1.428   1_455 S
N560   C14     1.433   1_565 S
N560   C25     1.448   1_565 S
O563   Zn581   1.928   .     S
O563   Zn578   1.960   .     S
O563   Zn579   1.940   .     S
O563   Zn580   1.930   .     S
O564   Zn579   1.916   .     S
O565   Zn581   1.928   .     S
O566   Zn580   1.921   .     S
O567   Zn578   1.911   .     S
O568   C1267   1.221   .     S
O570   Zn578   1.935   .     S
O571   Zn581   1.939   .     S
O572   Zn579   1.926   .     S
O573   Zn580   1.937   .     S
O574   Zn581   1.932   .     S
O575   Zn578   1.922   .     S
O576   Zn579   1.945   .     S
O577   Zn580   1.938   .     S
C582   C592    1.438   .     S
C582   O655    1.269   .     A
C582   O657    1.265   .     A
C583   N645    1.426   .     S
C583   C612    1.423   .     A
C583   C584    1.394   .     A
C584   H637    1.080   .     S
C584   C1333   1.404   .     S
C585   O656    1.279   .     A
C585   C591    1.461   .     S
C585   O658    1.280   .     A
C586   C587    1.421   .     A
C586   C588    1.427   .     A
C586   C1331   1.404   1_554 S
C587   C613    1.428   .     A
C587   C590    1.406   .     A
C588   C589    1.419   .     A
C588   C603    1.486   .     S
C589   C607    1.496   .     S
C589   C601    1.410   .     A
C590   H636    1.078   .     S
C590   C601    1.390   .     A
C591   C675    1.340   .     S
C591   N725    1.428   .     S
C593   N644    1.423   .     S
C593   C602    1.401   .     A
C593   C600    1.413   .     A
C594   C597    1.454   .     S
C594   C97     1.346   1_565 S
C594   H137    1.088   1_565 S
C595   C596    1.436   .     S
C596   O653    1.275   .     A
C596   O659    1.270   .     A
C597   O654    1.260   .     A
C597   O660    1.273   .     A
C598   O647    1.278   .     A
C598   C601    1.465   .     S
C598   O649    1.275   .     A
C599   C600    1.478   .     S
C599   O650    1.287   .     A
C599   O648    1.285   .     A
C600   C604    1.400   .     A
C602   H638    1.085   .     S
C602   C611    1.402   .     A
C603   H641    1.086   .     S
C603   O1398   1.221   1_554 S
C604   H639    1.078   .     S
C604   C610    1.407   .     A
C605   N642    1.447   .     S
C605   H619    1.110   .     S
C605   H618    1.110   .     S
C605   H620    1.112   .     S
C606   H624    1.111   .     S
C606   H622    1.110   .     S
C606   H623    1.111   .     S
C607   H625    1.084   .     S
C607   O652    1.221   .     D
C608   H629    1.111   .     S
C608   N644    1.447   .     S
C608   H628    1.112   .     S
C608   H630    1.110   .     S
C609   H632    1.111   .     S
C609   N645    1.447   .     S
C609   H634    1.111   .     S
C609   H633    1.111   .     S
C610   C611    1.414   .     A
C610   C612    1.430   .     A
C611   C1362   1.392   .     S
C612   C1360   1.424   .     S
C613   C614    1.416   .     A
C613   C1359   1.424   1_554 S
C614   H640    1.078   .     S
C614   C615    1.388   .     A
C615   H616    1.084   .     S
C615   C1358   1.392   1_554 S
H617   N642    1.032   .     S
H621   N643    1.032   .     S
H626   N644    1.032   .     S
H627   C675    1.086   .     S
H631   N645    1.032   .     S
N643   C97     1.433   1_565 S
N643   C108    1.448   1_565 S
O646   Zn664   1.928   .     S
O646   Zn661   1.960   .     S
O646   Zn662   1.940   .     S
O646   Zn663   1.930   .     S
O647   Zn662   1.916   .     S
O648   Zn664   1.928   .     S
O649   Zn663   1.921   .     S
O650   Zn661   1.911   .     S
O651   C1350   1.221   .     S
O653   Zn661   1.935   .     S
O654   Zn664   1.939   .     S
O655   Zn662   1.926   .     S
O656   Zn663   1.937   .     S
O657   Zn664   1.932   .     S
O658   Zn661   1.922   .     S
O659   Zn662   1.945   .     S
O660   Zn663   1.938   .     S
C665   C675    1.438   .     S
C665   O738    1.269   .     A
C665   O740    1.265   .     A
C666   N728    1.426   .     S
C666   C695    1.423   .     A
C666   C667    1.394   .     A
C667   H720    1.080   .     S
C667   C1416   1.404   .     S
C668   O739    1.279   .     A
C668   C674    1.461   .     S
C668   O741    1.280   .     A
C669   C670    1.421   .     A
C669   C671    1.427   .     A
C669   C1414   1.404   1_554 S
C670   C696    1.428   .     A
C670   C673    1.406   .     A
C671   C672    1.419   .     A
C671   C686    1.486   .     S
C672   C690    1.496   .     S
C672   C684    1.410   .     A
C673   H719    1.078   .     S
C673   C684    1.390   .     A
C674   C509    1.340   1_655 S
C674   N559    1.428   1_655 S
C676   N727    1.423   .     S
C676   C685    1.401   .     A
C676   C683    1.413   .     A
C677   C680    1.454   .     S
C677   C180    1.346   1_565 S
C677   H220    1.088   1_565 S
C678   C679    1.436   .     S
C679   O736    1.275   .     A
C679   O742    1.270   .     A
C680   O737    1.260   .     A
C680   O743    1.273   .     A
C681   O730    1.278   .     A
C681   C684    1.465   .     S
C681   O732    1.275   .     A
C682   C683    1.478   .     S
C682   O733    1.287   .     A
C682   O731    1.285   .     A
C683   C687    1.400   .     A
C685   H721    1.085   .     S
C685   C694    1.402   .     A
C686   H724    1.086   .     S
C686   O1481   1.221   1_554 S
C687   H722    1.078   .     S
C687   C693    1.407   .     A
C688   N725    1.447   .     S
C688   H702    1.110   .     S
C688   H701    1.110   .     S
C688   H703    1.112   .     S
C689   H707    1.111   .     S
C689   H705    1.110   .     S
C689   H706    1.111   .     S
C690   H708    1.084   .     S
C690   O735    1.221   .     D
C691   H712    1.111   .     S
C691   N727    1.447   .     S
C691   H711    1.112   .     S
C691   H713    1.110   .     S
C692   H715    1.111   .     S
C692   N728    1.447   .     S
C692   H717    1.111   .     S
C692   H716    1.111   .     S
C693   C694    1.414   .     A
C693   C695    1.430   .     A
C694   C1445   1.392   .     S
C695   C1443   1.424   .     S
C696   C697    1.416   .     A
C696   C1442   1.424   1_554 S
C697   H723    1.078   .     S
C697   C698    1.388   .     A
C698   H699    1.084   .     S
C698   C1441   1.392   1_554 S
H700   N725    1.032   .     S
H704   N726    1.032   .     S
H709   N727    1.032   .     S
H710   C509    1.086   1_655 S
H714   N728    1.032   .     S
N726   C180    1.433   1_565 S
N726   C191    1.448   1_565 S
O729   Zn747   1.928   .     S
O729   Zn744   1.960   .     S
O729   Zn745   1.940   .     S
O729   Zn746   1.930   .     S
O730   Zn745   1.916   .     S
O731   Zn747   1.928   .     S
O732   Zn746   1.921   .     S
O733   Zn744   1.911   .     S
O734   C1433   1.221   .     S
O736   Zn744   1.935   .     S
O737   Zn747   1.939   .     S
O738   Zn745   1.926   .     S
O739   Zn746   1.937   .     S
O740   Zn747   1.932   .     S
O741   Zn744   1.922   .     S
O742   Zn745   1.945   .     S
O743   Zn746   1.938   .     S
C748   C758    1.438   .     S
C748   O821    1.269   .     A
C748   O823    1.265   .     A
C749   N811    1.426   .     S
C749   C778    1.423   .     A
C749   C750    1.394   .     A
C750   H803    1.080   .     S
C750   C5      1.404   1_556 S
C751   O822    1.279   .     A
C751   C757    1.461   .     S
C751   O824    1.280   .     A
C752   C753    1.421   .     A
C752   C754    1.427   .     A
C753   C779    1.428   .     A
C753   C756    1.406   .     A
C754   C755    1.419   .     A
C754   C769    1.486   .     S
C755   C773    1.496   .     S
C755   C767    1.410   .     A
C756   H802    1.078   .     S
C756   C767    1.390   .     A
C757   C841    1.340   .     S
C757   N891    1.428   .     S
C758   C923    1.340   1_455 S
C758   H959    1.086   1_455 S
C759   N810    1.423   .     S
C759   C768    1.401   .     A
C759   C766    1.413   .     A
C760   C763    1.454   .     S
C760   C1010   1.346   .     S
C760   H1050   1.088   .     S
C761   C762    1.436   .     S
C761   C1258   1.346   1_545 S
C761   N1307   1.433   1_545 S
C762   O819    1.275   .     A
C762   O825    1.270   .     A
C763   O820    1.260   .     A
C763   O826    1.273   .     A
C764   O813    1.278   .     A
C764   C767    1.465   .     S
C764   O815    1.275   .     A
C765   C766    1.478   .     S
C765   O816    1.287   .     A
C765   O814    1.285   .     A
C766   C770    1.400   .     A
C768   H804    1.085   .     S
C768   C777    1.402   .     A
C769   H807    1.086   .     S
C770   H805    1.078   .     S
C770   C776    1.407   .     A
C771   N808    1.447   .     S
C771   H785    1.110   .     S
C771   H784    1.110   .     S
C771   H786    1.112   .     S
C772   H790    1.111   .     S
C772   H788    1.110   .     S
C772   H789    1.111   .     S
C772   N1307   1.448   1_545 S
C773   H791    1.084   .     S
C773   O818    1.221   .     D
C774   H795    1.111   .     S
C774   N810    1.447   .     S
C774   H794    1.112   .     S
C774   H796    1.110   .     S
C775   H798    1.111   .     S
C775   N811    1.447   .     S
C775   H800    1.111   .     S
C775   H799    1.111   .     S
C776   C777    1.414   .     A
C776   C778    1.430   .     A
C777   C34     1.392   1_556 S
C778   C32     1.424   1_556 S
C779   C780    1.416   .     A
C780   H806    1.078   .     S
C780   C781    1.388   .     A
C781   H782    1.084   .     S
H783   N808    1.032   .     S
H787   N809    1.032   .     S
H792   N810    1.032   .     S
H793   C841    1.086   .     S
H797   N811    1.032   .     S
H801   C1258   1.088   1_545 S
N808   C923    1.428   1_455 S
N809   C1010   1.433   .     S
N809   C1021   1.448   .     S
O812   Zn830   1.928   .     S
O812   Zn827   1.960   .     S
O812   Zn828   1.940   .     S
O812   Zn829   1.930   .     S
O813   Zn828   1.916   .     S
O814   Zn830   1.928   .     S
O815   Zn829   1.921   .     S
O816   Zn827   1.911   .     S
O817   C22     1.221   1_556 S
O819   Zn827   1.935   .     S
O820   Zn830   1.939   .     S
O821   Zn828   1.926   .     S
O822   Zn829   1.937   .     S
O823   Zn830   1.932   .     S
O824   Zn827   1.922   .     S
O825   Zn828   1.945   .     S
O826   Zn829   1.938   .     S
C831   C841    1.438   .     S
C831   O904    1.269   .     A
C831   O906    1.265   .     A
C832   N894    1.426   .     S
C832   C861    1.423   .     A
C832   C833    1.394   .     A
C833   H886    1.080   .     S
C833   C88     1.404   1_556 S
C834   O905    1.279   .     A
C834   C840    1.461   .     S
C834   O907    1.280   .     A
C835   C836    1.421   .     A
C835   C837    1.427   .     A
C836   C862    1.428   .     A
C836   C839    1.406   .     A
C837   C838    1.419   .     A
C837   C852    1.486   .     S
C838   C856    1.496   .     S
C838   C850    1.410   .     A
C839   H885    1.078   .     S
C839   C850    1.390   .     A
C840   C924    1.340   .     S
C840   N974    1.428   .     S
C842   N893    1.423   .     S
C842   C851    1.401   .     A
C842   C849    1.413   .     A
C843   C846    1.454   .     S
C843   C1093   1.346   .     S
C843   H1133   1.088   .     S
C844   C845    1.436   .     S
C844   C1341   1.346   1_545 S
C844   N1390   1.433   1_545 S
C845   O902    1.275   .     A
C845   O908    1.270   .     A
C846   O903    1.260   .     A
C846   O909    1.273   .     A
C847   O896    1.278   .     A
C847   C850    1.465   .     S
C847   O898    1.275   .     A
C848   C849    1.478   .     S
C848   O899    1.287   .     A
C848   O897    1.285   .     A
C849   C853    1.400   .     A
C851   H887    1.085   .     S
C851   C860    1.402   .     A
C852   H890    1.086   .     S
C853   H888    1.078   .     S
C853   C859    1.407   .     A
C854   N891    1.447   .     S
C854   H868    1.110   .     S
C854   H867    1.110   .     S
C854   H869    1.112   .     S
C855   H873    1.111   .     S
C855   H871    1.110   .     S
C855   H872    1.111   .     S
C855   N1390   1.448   1_545 S
C856   H874    1.084   .     S
C856   O901    1.221   .     D
C857   H878    1.111   .     S
C857   N893    1.447   .     S
C857   H877    1.112   .     S
C857   H879    1.110   .     S
C858   H881    1.111   .     S
C858   N894    1.447   .     S
C858   H883    1.111   .     S
C858   H882    1.111   .     S
C859   C860    1.414   .     A
C859   C861    1.430   .     A
C860   C117    1.392   1_556 S
C861   C115    1.424   1_556 S
C862   C863    1.416   .     A
C863   H889    1.078   .     S
C863   C864    1.388   .     A
C864   H865    1.084   .     S
H866   N891    1.032   .     S
H870   N892    1.032   .     S
H875   N893    1.032   .     S
H876   C924    1.086   .     S
H880   N894    1.032   .     S
H884   C1341   1.088   1_545 S
N892   C1093   1.433   .     S
N892   C1104   1.448   .     S
O895   Zn913   1.928   .     S
O895   Zn910   1.960   .     S
O895   Zn911   1.940   .     S
O895   Zn912   1.930   .     S
O896   Zn911   1.916   .     S
O897   Zn913   1.928   .     S
O898   Zn912   1.921   .     S
O899   Zn910   1.911   .     S
O900   C105    1.221   1_556 S
O902   Zn910   1.935   .     S
O903   Zn913   1.939   .     S
O904   Zn911   1.926   .     S
O905   Zn912   1.937   .     S
O906   Zn913   1.932   .     S
O907   Zn910   1.922   .     S
O908   Zn911   1.945   .     S
O909   Zn912   1.938   .     S
C914   C924    1.438   .     S
C914   O987    1.269   .     A
C914   O989    1.265   .     A
C915   N977    1.426   .     S
C915   C944    1.423   .     A
C915   C916    1.394   .     A
C916   H969    1.080   .     S
C916   C171    1.404   1_556 S
C917   O988    1.279   .     A
C917   C923    1.461   .     S
C917   O990    1.280   .     A
C918   C919    1.421   .     A
C918   C920    1.427   .     A
C919   C945    1.428   .     A
C919   C922    1.406   .     A
C920   C921    1.419   .     A
C920   C935    1.486   .     S
C921   C939    1.496   .     S
C921   C933    1.410   .     A
C922   H968    1.078   .     S
C922   C933    1.390   .     A
C923   C758    1.340   1_655 S
C923   N808    1.428   1_655 S
C925   N976    1.423   .     S
C925   C934    1.401   .     A
C925   C932    1.413   .     A
C926   C929    1.454   .     S
C926   C1176   1.346   .     S
C926   H1216   1.088   .     S
C927   C928    1.436   .     S
C927   C1424   1.346   1_545 S
C927   N1473   1.433   1_545 S
C928   O985    1.275   .     A
C928   O991    1.270   .     A
C929   O986    1.260   .     A
C929   O992    1.273   .     A
C930   O979    1.278   .     A
C930   C933    1.465   .     S
C930   O981    1.275   .     A
C931   C932    1.478   .     S
C931   O982    1.287   .     A
C931   O980    1.285   .     A
C932   C936    1.400   .     A
C934   H970    1.085   .     S
C934   C943    1.402   .     A
C935   H973    1.086   .     S
C936   H971    1.078   .     S
C936   C942    1.407   .     A
C937   N974    1.447   .     S
C937   H951    1.110   .     S
C937   H950    1.110   .     S
C937   H952    1.112   .     S
C938   H956    1.111   .     S
C938   H954    1.110   .     S
C938   H955    1.111   .     S
C938   N1473   1.448   1_545 S
C939   H957    1.084   .     S
C939   O984    1.221   .     D
C940   H961    1.111   .     S
C940   N976    1.447   .     S
C940   H960    1.112   .     S
C940   H962    1.110   .     S
C941   H964    1.111   .     S
C941   N977    1.447   .     S
C941   H966    1.111   .     S
C941   H965    1.111   .     S
C942   C943    1.414   .     A
C942   C944    1.430   .     A
C943   C200    1.392   1_556 S
C944   C198    1.424   1_556 S
C945   C946    1.416   .     A
C946   H972    1.078   .     S
C946   C947    1.388   .     A
C947   H948    1.084   .     S
H949   N974    1.032   .     S
H953   N975    1.032   .     S
H958   N976    1.032   .     S
H959   C758    1.086   1_655 S
H963   N977    1.032   .     S
H967   C1424   1.088   1_545 S
N975   C1176   1.433   .     S
N975   C1187   1.448   .     S
O978   Zn996   1.928   .     S
O978   Zn993   1.960   .     S
O978   Zn994   1.940   .     S
O978   Zn995   1.930   .     S
O979   Zn994   1.916   .     S
O980   Zn996   1.928   .     S
O981   Zn995   1.921   .     S
O982   Zn993   1.911   .     S
O983   C188    1.221   1_556 S
O985   Zn993   1.935   .     S
O986   Zn996   1.939   .     S
O987   Zn994   1.926   .     S
O988   Zn995   1.937   .     S
O989   Zn996   1.932   .     S
O990   Zn993   1.922   .     S
O991   Zn994   1.945   .     S
O992   Zn995   1.938   .     S
C997   C1007   1.438   .     S
C997   O1070   1.269   .     A
C997   O1072   1.265   .     A
C998   N1060   1.426   .     S
C998   C1027   1.423   .     A
C998   C999    1.394   .     A
C999   H1052   1.080   .     S
C999   C254    1.404   1_556 S
C1000  O1071   1.279   .     A
C1000  C1006   1.461   .     S
C1000  O1073   1.280   .     A
C1001  C1002   1.421   .     A
C1001  C1003   1.427   .     A
C1002  C1028   1.428   .     A
C1002  C1005   1.406   .     A
C1003  C1004   1.419   .     A
C1003  C1018   1.486   .     S
C1004  C1022   1.496   .     S
C1004  C1016   1.410   .     A
C1005  H1051   1.078   .     S
C1005  C1016   1.390   .     A
C1006  C1090   1.340   .     S
C1006  N1140   1.428   .     S
C1007  C1172   1.340   1_455 S
C1007  H1208   1.086   1_455 S
C1008  N1059   1.423   .     S
C1008  C1017   1.401   .     A
C1008  C1015   1.413   .     A
C1009  C1012   1.454   .     S
C1009  C1259   1.346   .     S
C1009  H1299   1.088   .     S
C1010  C1011   1.436   .     S
C1011  O1068   1.275   .     A
C1011  O1074   1.270   .     A
C1012  O1069   1.260   .     A
C1012  O1075   1.273   .     A
C1013  O1062   1.278   .     A
C1013  C1016   1.465   .     S
C1013  O1064   1.275   .     A
C1014  C1015   1.478   .     S
C1014  O1065   1.287   .     A
C1014  O1063   1.285   .     A
C1015  C1019   1.400   .     A
C1017  H1053   1.085   .     S
C1017  C1026   1.402   .     A
C1018  H1056   1.086   .     S
C1019  H1054   1.078   .     S
C1019  C1025   1.407   .     A
C1020  N1057   1.447   .     S
C1020  H1034   1.110   .     S
C1020  H1033   1.110   .     S
C1020  H1035   1.112   .     S
C1021  H1039   1.111   .     S
C1021  H1037   1.110   .     S
C1021  H1038   1.111   .     S
C1022  H1040   1.084   .     S
C1022  O1067   1.221   .     D
C1023  H1044   1.111   .     S
C1023  N1059   1.447   .     S
C1023  H1043   1.112   .     S
C1023  H1045   1.110   .     S
C1024  H1047   1.111   .     S
C1024  N1060   1.447   .     S
C1024  H1049   1.111   .     S
C1024  H1048   1.111   .     S
C1025  C1026   1.414   .     A
C1025  C1027   1.430   .     A
C1026  C283    1.392   1_556 S
C1027  C281    1.424   1_556 S
C1028  C1029   1.416   .     A
C1029  H1055   1.078   .     S
C1029  C1030   1.388   .     A
C1030  H1031   1.084   .     S
H1032  N1057   1.032   .     S
H1036  N1058   1.032   .     S
H1041  N1059   1.032   .     S
H1042  C1090   1.086   .     S
H1046  N1060   1.032   .     S
N1057  C1172   1.428   1_455 S
N1058  C1259   1.433   .     S
N1058  C1270   1.448   .     S
O1061  Zn1079  1.928   .     S
O1061  Zn1076  1.960   .     S
O1061  Zn1077  1.940   .     S
O1061  Zn1078  1.930   .     S
O1062  Zn1077  1.916   .     S
O1063  Zn1079  1.928   .     S
O1064  Zn1078  1.921   .     S
O1065  Zn1076  1.911   .     S
O1066  C271    1.221   1_556 S
O1068  Zn1076  1.935   .     S
O1069  Zn1079  1.939   .     S
O1070  Zn1077  1.926   .     S
O1071  Zn1078  1.937   .     S
O1072  Zn1079  1.932   .     S
O1073  Zn1076  1.922   .     S
O1074  Zn1077  1.945   .     S
O1075  Zn1078  1.938   .     S
C1080  C1090   1.438   .     S
C1080  O1153   1.269   .     A
C1080  O1155   1.265   .     A
C1081  N1143   1.426   .     S
C1081  C1110   1.423   .     A
C1081  C1082   1.394   .     A
C1082  H1135   1.080   .     S
C1082  C337    1.404   1_556 S
C1083  O1154   1.279   .     A
C1083  C1089   1.461   .     S
C1083  O1156   1.280   .     A
C1084  C1085   1.421   .     A
C1084  C1086   1.427   .     A
C1085  C1111   1.428   .     A
C1085  C1088   1.406   .     A
C1086  C1087   1.419   .     A
C1086  C1101   1.486   .     S
C1087  C1105   1.496   .     S
C1087  C1099   1.410   .     A
C1088  H1134   1.078   .     S
C1088  C1099   1.390   .     A
C1089  C1173   1.340   .     S
C1089  N1223   1.428   .     S
C1091  N1142   1.423   .     S
C1091  C1100   1.401   .     A
C1091  C1098   1.413   .     A
C1092  C1095   1.454   .     S
C1092  C1342   1.346   .     S
C1092  H1382   1.088   .     S
C1093  C1094   1.436   .     S
C1094  O1151   1.275   .     A
C1094  O1157   1.270   .     A
C1095  O1152   1.260   .     A
C1095  O1158   1.273   .     A
C1096  O1145   1.278   .     A
C1096  C1099   1.465   .     S
C1096  O1147   1.275   .     A
C1097  C1098   1.478   .     S
C1097  O1148   1.287   .     A
C1097  O1146   1.285   .     A
C1098  C1102   1.400   .     A
C1100  H1136   1.085   .     S
C1100  C1109   1.402   .     A
C1101  H1139   1.086   .     S
C1102  H1137   1.078   .     S
C1102  C1108   1.407   .     A
C1103  N1140   1.447   .     S
C1103  H1117   1.110   .     S
C1103  H1116   1.110   .     S
C1103  H1118   1.112   .     S
C1104  H1122   1.111   .     S
C1104  H1120   1.110   .     S
C1104  H1121   1.111   .     S
C1105  H1123   1.084   .     S
C1105  O1150   1.221   .     D
C1106  H1127   1.111   .     S
C1106  N1142   1.447   .     S
C1106  H1126   1.112   .     S
C1106  H1128   1.110   .     S
C1107  H1130   1.111   .     S
C1107  N1143   1.447   .     S
C1107  H1132   1.111   .     S
C1107  H1131   1.111   .     S
C1108  C1109   1.414   .     A
C1108  C1110   1.430   .     A
C1109  C366    1.392   1_556 S
C1110  C364    1.424   1_556 S
C1111  C1112   1.416   .     A
C1112  H1138   1.078   .     S
C1112  C1113   1.388   .     A
C1113  H1114   1.084   .     S
H1115  N1140   1.032   .     S
H1119  N1141   1.032   .     S
H1124  N1142   1.032   .     S
H1125  C1173   1.086   .     S
H1129  N1143   1.032   .     S
N1141  C1342   1.433   .     S
N1141  C1353   1.448   .     S
O1144  Zn1162  1.928   .     S
O1144  Zn1159  1.960   .     S
O1144  Zn1160  1.940   .     S
O1144  Zn1161  1.930   .     S
O1145  Zn1160  1.916   .     S
O1146  Zn1162  1.928   .     S
O1147  Zn1161  1.921   .     S
O1148  Zn1159  1.911   .     S
O1149  C354    1.221   1_556 S
O1151  Zn1159  1.935   .     S
O1152  Zn1162  1.939   .     S
O1153  Zn1160  1.926   .     S
O1154  Zn1161  1.937   .     S
O1155  Zn1162  1.932   .     S
O1156  Zn1159  1.922   .     S
O1157  Zn1160  1.945   .     S
O1158  Zn1161  1.938   .     S
C1163  C1173   1.438   .     S
C1163  O1236   1.269   .     A
C1163  O1238   1.265   .     A
C1164  N1226   1.426   .     S
C1164  C1193   1.423   .     A
C1164  C1165   1.394   .     A
C1165  H1218   1.080   .     S
C1165  C420    1.404   1_556 S
C1166  O1237   1.279   .     A
C1166  C1172   1.461   .     S
C1166  O1239   1.280   .     A
C1167  C1168   1.421   .     A
C1167  C1169   1.427   .     A
C1168  C1194   1.428   .     A
C1168  C1171   1.406   .     A
C1169  C1170   1.419   .     A
C1169  C1184   1.486   .     S
C1170  C1188   1.496   .     S
C1170  C1182   1.410   .     A
C1171  H1217   1.078   .     S
C1171  C1182   1.390   .     A
C1172  C1007   1.340   1_655 S
C1172  N1057   1.428   1_655 S
C1174  N1225   1.423   .     S
C1174  C1183   1.401   .     A
C1174  C1181   1.413   .     A
C1175  C1178   1.454   .     S
C1175  C1425   1.346   .     S
C1175  H1465   1.088   .     S
C1176  C1177   1.436   .     S
C1177  O1234   1.275   .     A
C1177  O1240   1.270   .     A
C1178  O1235   1.260   .     A
C1178  O1241   1.273   .     A
C1179  O1228   1.278   .     A
C1179  C1182   1.465   .     S
C1179  O1230   1.275   .     A
C1180  C1181   1.478   .     S
C1180  O1231   1.287   .     A
C1180  O1229   1.285   .     A
C1181  C1185   1.400   .     A
C1183  H1219   1.085   .     S
C1183  C1192   1.402   .     A
C1184  H1222   1.086   .     S
C1185  H1220   1.078   .     S
C1185  C1191   1.407   .     A
C1186  N1223   1.447   .     S
C1186  H1200   1.110   .     S
C1186  H1199   1.110   .     S
C1186  H1201   1.112   .     S
C1187  H1205   1.111   .     S
C1187  H1203   1.110   .     S
C1187  H1204   1.111   .     S
C1188  H1206   1.084   .     S
C1188  O1233   1.221   .     D
C1189  H1210   1.111   .     S
C1189  N1225   1.447   .     S
C1189  H1209   1.112   .     S
C1189  H1211   1.110   .     S
C1190  H1213   1.111   .     S
C1190  N1226   1.447   .     S
C1190  H1215   1.111   .     S
C1190  H1214   1.111   .     S
C1191  C1192   1.414   .     A
C1191  C1193   1.430   .     A
C1192  C449    1.392   1_556 S
C1193  C447    1.424   1_556 S
C1194  C1195   1.416   .     A
C1195  H1221   1.078   .     S
C1195  C1196   1.388   .     A
C1196  H1197   1.084   .     S
H1198  N1223   1.032   .     S
H1202  N1224   1.032   .     S
H1207  N1225   1.032   .     S
H1208  C1007   1.086   1_655 S
H1212  N1226   1.032   .     S
N1224  C1425   1.433   .     S
N1224  C1436   1.448   .     S
O1227  Zn1245  1.928   .     S
O1227  Zn1242  1.960   .     S
O1227  Zn1243  1.940   .     S
O1227  Zn1244  1.930   .     S
O1228  Zn1243  1.916   .     S
O1229  Zn1245  1.928   .     S
O1230  Zn1244  1.921   .     S
O1231  Zn1242  1.911   .     S
O1232  C437    1.221   1_556 S
O1234  Zn1242  1.935   .     S
O1235  Zn1245  1.939   .     S
O1236  Zn1243  1.926   .     S
O1237  Zn1244  1.937   .     S
O1238  Zn1245  1.932   .     S
O1239  Zn1242  1.922   .     S
O1240  Zn1243  1.945   .     S
O1241  Zn1244  1.938   .     S
C1246  C1256   1.438   .     S
C1246  O1319   1.269   .     A
C1246  O1321   1.265   .     A
C1247  N1309   1.426   .     S
C1247  C1276   1.423   .     A
C1247  C1248   1.394   .     A
C1248  H1301   1.080   .     S
C1248  C503    1.404   1_556 S
C1249  O1320   1.279   .     A
C1249  C1255   1.461   .     S
C1249  O1322   1.280   .     A
C1250  C1251   1.421   .     A
C1250  C1252   1.427   .     A
C1251  C1277   1.428   .     A
C1251  C1254   1.406   .     A
C1252  C1253   1.419   .     A
C1252  C1267   1.486   .     S
C1253  C1271   1.496   .     S
C1253  C1265   1.410   .     A
C1254  H1300   1.078   .     S
C1254  C1265   1.390   .     A
C1255  C1339   1.340   .     S
C1255  N1389   1.428   .     S
C1256  C1421   1.340   1_455 S
C1256  H1457   1.086   1_455 S
C1257  N1308   1.423   .     S
C1257  C1266   1.401   .     A
C1257  C1264   1.413   .     A
C1258  C1261   1.454   .     S
C1258  C761    1.346   1_565 S
C1258  H801    1.088   1_565 S
C1259  C1260   1.436   .     S
C1260  O1317   1.275   .     A
C1260  O1323   1.270   .     A
C1261  O1318   1.260   .     A
C1261  O1324   1.273   .     A
C1262  O1311   1.278   .     A
C1262  C1265   1.465   .     S
C1262  O1313   1.275   .     A
C1263  C1264   1.478   .     S
C1263  O1314   1.287   .     A
C1263  O1312   1.285   .     A
C1264  C1268   1.400   .     A
C1266  H1302   1.085   .     S
C1266  C1275   1.402   .     A
C1267  H1305   1.086   .     S
C1268  H1303   1.078   .     S
C1268  C1274   1.407   .     A
C1269  N1306   1.447   .     S
C1269  H1283   1.110   .     S
C1269  H1282   1.110   .     S
C1269  H1284   1.112   .     S
C1270  H1288   1.111   .     S
C1270  H1286   1.110   .     S
C1270  H1287   1.111   .     S
C1271  H1289   1.084   .     S
C1271  O1316   1.221   .     D
C1272  H1293   1.111   .     S
C1272  N1308   1.447   .     S
C1272  H1292   1.112   .     S
C1272  H1294   1.110   .     S
C1273  H1296   1.111   .     S
C1273  N1309   1.447   .     S
C1273  H1298   1.111   .     S
C1273  H1297   1.111   .     S
C1274  C1275   1.414   .     A
C1274  C1276   1.430   .     A
C1275  C532    1.392   1_556 S
C1276  C530    1.424   1_556 S
C1277  C1278   1.416   .     A
C1278  H1304   1.078   .     S
C1278  C1279   1.388   .     A
C1279  H1280   1.084   .     S
H1281  N1306   1.032   .     S
H1285  N1307   1.032   .     S
H1290  N1308   1.032   .     S
H1291  C1339   1.086   .     S
H1295  N1309   1.032   .     S
N1306  C1421   1.428   1_455 S
N1307  C761    1.433   1_565 S
N1307  C772    1.448   1_565 S
O1310  Zn1328  1.928   .     S
O1310  Zn1325  1.960   .     S
O1310  Zn1326  1.940   .     S
O1310  Zn1327  1.930   .     S
O1311  Zn1326  1.916   .     S
O1312  Zn1328  1.928   .     S
O1313  Zn1327  1.921   .     S
O1314  Zn1325  1.911   .     S
O1315  C520    1.221   1_556 S
O1317  Zn1325  1.935   .     S
O1318  Zn1328  1.939   .     S
O1319  Zn1326  1.926   .     S
O1320  Zn1327  1.937   .     S
O1321  Zn1328  1.932   .     S
O1322  Zn1325  1.922   .     S
O1323  Zn1326  1.945   .     S
O1324  Zn1327  1.938   .     S
C1329  C1339   1.438   .     S
C1329  O1402   1.269   .     A
C1329  O1404   1.265   .     A
C1330  N1392   1.426   .     S
C1330  C1359   1.423   .     A
C1330  C1331   1.394   .     A
C1331  H1384   1.080   .     S
C1331  C586    1.404   1_556 S
C1332  O1403   1.279   .     A
C1332  C1338   1.461   .     S
C1332  O1405   1.280   .     A
C1333  C1334   1.421   .     A
C1333  C1335   1.427   .     A
C1334  C1360   1.428   .     A
C1334  C1337   1.406   .     A
C1335  C1336   1.419   .     A
C1335  C1350   1.486   .     S
C1336  C1354   1.496   .     S
C1336  C1348   1.410   .     A
C1337  H1383   1.078   .     S
C1337  C1348   1.390   .     A
C1338  C1422   1.340   .     S
C1338  N1472   1.428   .     S
C1340  N1391   1.423   .     S
C1340  C1349   1.401   .     A
C1340  C1347   1.413   .     A
C1341  C1344   1.454   .     S
C1341  C844    1.346   1_565 S
C1341  H884    1.088   1_565 S
C1342  C1343   1.436   .     S
C1343  O1400   1.275   .     A
C1343  O1406   1.270   .     A
C1344  O1401   1.260   .     A
C1344  O1407   1.273   .     A
C1345  O1394   1.278   .     A
C1345  C1348   1.465   .     S
C1345  O1396   1.275   .     A
C1346  C1347   1.478   .     S
C1346  O1397   1.287   .     A
C1346  O1395   1.285   .     A
C1347  C1351   1.400   .     A
C1349  H1385   1.085   .     S
C1349  C1358   1.402   .     A
C1350  H1388   1.086   .     S
C1351  H1386   1.078   .     S
C1351  C1357   1.407   .     A
C1352  N1389   1.447   .     S
C1352  H1366   1.110   .     S
C1352  H1365   1.110   .     S
C1352  H1367   1.112   .     S
C1353  H1371   1.111   .     S
C1353  H1369   1.110   .     S
C1353  H1370   1.111   .     S
C1354  H1372   1.084   .     S
C1354  O1399   1.221   .     D
C1355  H1376   1.111   .     S
C1355  N1391   1.447   .     S
C1355  H1375   1.112   .     S
C1355  H1377   1.110   .     S
C1356  H1379   1.111   .     S
C1356  N1392   1.447   .     S
C1356  H1381   1.111   .     S
C1356  H1380   1.111   .     S
C1357  C1358   1.414   .     A
C1357  C1359   1.430   .     A
C1358  C615    1.392   1_556 S
C1359  C613    1.424   1_556 S
C1360  C1361   1.416   .     A
C1361  H1387   1.078   .     S
C1361  C1362   1.388   .     A
C1362  H1363   1.084   .     S
H1364  N1389   1.032   .     S
H1368  N1390   1.032   .     S
H1373  N1391   1.032   .     S
H1374  C1422   1.086   .     S
H1378  N1392   1.032   .     S
N1390  C844    1.433   1_565 S
N1390  C855    1.448   1_565 S
O1393  Zn1411  1.928   .     S
O1393  Zn1408  1.960   .     S
O1393  Zn1409  1.940   .     S
O1393  Zn1410  1.930   .     S
O1394  Zn1409  1.916   .     S
O1395  Zn1411  1.928   .     S
O1396  Zn1410  1.921   .     S
O1397  Zn1408  1.911   .     S
O1398  C603    1.221   1_556 S
O1400  Zn1408  1.935   .     S
O1401  Zn1411  1.939   .     S
O1402  Zn1409  1.926   .     S
O1403  Zn1410  1.937   .     S
O1404  Zn1411  1.932   .     S
O1405  Zn1408  1.922   .     S
O1406  Zn1409  1.945   .     S
O1407  Zn1410  1.938   .     S
C1412  C1422   1.438   .     S
C1412  O1485   1.269   .     A
C1412  O1487   1.265   .     A
C1413  N1475   1.426   .     S
C1413  C1442   1.423   .     A
C1413  C1414   1.394   .     A
C1414  H1467   1.080   .     S
C1414  C669    1.404   1_556 S
C1415  O1486   1.279   .     A
C1415  C1421   1.461   .     S
C1415  O1488   1.280   .     A
C1416  C1417   1.421   .     A
C1416  C1418   1.427   .     A
C1417  C1443   1.428   .     A
C1417  C1420   1.406   .     A
C1418  C1419   1.419   .     A
C1418  C1433   1.486   .     S
C1419  C1437   1.496   .     S
C1419  C1431   1.410   .     A
C1420  H1466   1.078   .     S
C1420  C1431   1.390   .     A
C1421  C1256   1.340   1_655 S
C1421  N1306   1.428   1_655 S
C1423  N1474   1.423   .     S
C1423  C1432   1.401   .     A
C1423  C1430   1.413   .     A
C1424  C1427   1.454   .     S
C1424  C927    1.346   1_565 S
C1424  H967    1.088   1_565 S
C1425  C1426   1.436   .     S
C1426  O1483   1.275   .     A
C1426  O1489   1.270   .     A
C1427  O1484   1.260   .     A
C1427  O1490   1.273   .     A
C1428  O1477   1.278   .     A
C1428  C1431   1.465   .     S
C1428  O1479   1.275   .     A
C1429  C1430   1.478   .     S
C1429  O1480   1.287   .     A
C1429  O1478   1.285   .     A
C1430  C1434   1.400   .     A
C1432  H1468   1.085   .     S
C1432  C1441   1.402   .     A
C1433  H1471   1.086   .     S
C1434  H1469   1.078   .     S
C1434  C1440   1.407   .     A
C1435  N1472   1.447   .     S
C1435  H1449   1.110   .     S
C1435  H1448   1.110   .     S
C1435  H1450   1.112   .     S
C1436  H1454   1.111   .     S
C1436  H1452   1.110   .     S
C1436  H1453   1.111   .     S
C1437  H1455   1.084   .     S
C1437  O1482   1.221   .     D
C1438  H1459   1.111   .     S
C1438  N1474   1.447   .     S
C1438  H1458   1.112   .     S
C1438  H1460   1.110   .     S
C1439  H1462   1.111   .     S
C1439  N1475   1.447   .     S
C1439  H1464   1.111   .     S
C1439  H1463   1.111   .     S
C1440  C1441   1.414   .     A
C1440  C1442   1.430   .     A
C1441  C698    1.392   1_556 S
C1442  C696    1.424   1_556 S
C1443  C1444   1.416   .     A
C1444  H1470   1.078   .     S
C1444  C1445   1.388   .     A
C1445  H1446   1.084   .     S
H1447  N1472   1.032   .     S
H1451  N1473   1.032   .     S
H1456  N1474   1.032   .     S
H1457  C1256   1.086   1_655 S
H1461  N1475   1.032   .     S
N1473  C927    1.433   1_565 S
N1473  C938    1.448   1_565 S
O1476  Zn1494  1.928   .     S
O1476  Zn1491  1.960   .     S
O1476  Zn1492  1.940   .     S
O1476  Zn1493  1.930   .     S
O1477  Zn1492  1.916   .     S
O1478  Zn1494  1.928   .     S
O1479  Zn1493  1.921   .     S
O1480  Zn1491  1.911   .     S
O1481  C686    1.221   1_556 S
O1483  Zn1491  1.935   .     S
O1484  Zn1494  1.939   .     S
O1485  Zn1492  1.926   .     S
O1486  Zn1493  1.937   .     S
O1487  Zn1494  1.932   .     S
O1488  Zn1491  1.922   .     S
O1489  Zn1492  1.945   .     S
O1490  Zn1493  1.938   .     S
