data_str_m1_o10_o18_pcu_sym.148
_audit_creation_date              2020-01-03
_audit_creation_method            'Materials Studio'
_symmetry_space_group_name_H-M    'P1'
_symmetry_Int_Tables_number       1
_symmetry_cell_setting            triclinic
loop_
_symmetry_equiv_pos_as_xyz
  x,y,z
_cell_length_a                    32.5614
_cell_length_b                    32.5258
_cell_length_c                    35.7296
_cell_angle_alpha                 98.1063
_cell_angle_beta                  73.0457
_cell_angle_gamma                 98.5713
loop_
_atom_site_label
_atom_site_type_symbol
_atom_site_fract_x
_atom_site_fract_y
_atom_site_fract_z
_atom_site_U_iso_or_equiv
_atom_site_adp_type
_atom_site_occupancy
C1     C     0.05250   0.15994   0.25873   0.00000  Uiso   1.00
C2     C     0.09058   0.20081   0.41987   0.00000  Uiso   1.00
C3     C     0.16056   0.18342   0.41991   0.00000  Uiso   1.00
C4     C     0.14361   0.17512   0.45977   0.00000  Uiso   1.00
C5     C     0.10201   0.18660   0.48047   0.00000  Uiso   1.00
C6     C     0.16641   0.15603   0.47983   0.00000  Uiso   1.00
C7     C     0.15243   0.15753   0.02149   0.00000  Uiso   1.00
C8     C     0.11200   0.17186   0.04143   0.00000  Uiso   1.00
C9     C     0.08670   0.18480   0.02099   0.00000  Uiso   1.00
C10    C     0.20018   0.13209   0.45919   0.00000  Uiso   1.00
C11    C     0.22487   0.11620   0.47837   0.00000  Uiso   1.00
C12    C     0.28106   0.17357   0.24121   0.00000  Uiso   1.00
C13    C     0.21563   0.12310   0.01952   0.00000  Uiso   1.00
C14    C     0.17873   0.14331   0.04152   0.00000  Uiso   1.00
C15    C     0.24230   0.11002   0.03924   0.00000  Uiso   1.00
C16    C     0.23330   0.11720   0.07996   0.00000  Uiso   1.00
C17    C     0.17020   0.14973   0.08280   0.00000  Uiso   1.00
C18    C     0.32704   0.17618   0.23758   0.00000  Uiso   1.00
C19    C     0.00711   0.15759   0.26219   0.00000  Uiso   1.00
C20    C     0.18093   0.32217   0.23810   0.00000  Uiso   1.00
C21    C     0.15161   0.01208   0.26211   0.00000  Uiso   1.00
C22    C     0.15596   0.05611   0.25888   0.00000  Uiso   1.00
C23    C     0.17687   0.27768   0.24135   0.00000  Uiso   1.00
C24    C     0.18821   0.14533   0.14406   0.00000  Uiso   1.00
C25    C     0.14561   0.18783   0.35611   0.00000  Uiso   1.00
C26    C     0.13264   0.19219   0.39932   0.00000  Uiso   1.00
C27    C     0.19725   0.13686   0.10160   0.00000  Uiso   1.00
C28    C     0.07603   0.19974   0.46041   0.00000  Uiso   1.00
H29    H     0.05511   0.19392   0.03712   0.00000  Uiso   1.00
H30    H     0.27058   0.09469   0.02349   0.00000  Uiso   1.00
H31    H     0.01677   0.19328   0.21478   0.00000  Uiso   1.00
H32    H     0.31803   0.14053   0.28532   0.00000  Uiso   1.00
H33    H     0.20802   0.00280   0.21600   0.00000  Uiso   1.00
H34    H     0.12415   0.33221   0.28429   0.00000  Uiso   1.00
H35    H     0.14397   0.16637   0.10113   0.00000  Uiso   1.00
H36    H     0.25445   0.10739   0.09463   0.00000  Uiso   1.00
H37    H     0.04379   0.20763   0.47586   0.00000  Uiso   1.00
H38    H     0.06881   0.20814   0.40452   0.00000  Uiso   1.00
H39    H     0.09780   0.17122   0.07265   0.00000  Uiso   1.00
H40    H     0.20670   0.12394   0.42782   0.00000  Uiso   1.00
O41    O     0.16667   0.16667   0.25000   0.00000  Uiso   1.00
O42    O     0.17849   0.08101   0.27821   0.00000  Uiso   1.00
O43    O     0.14581   0.26136   0.26767   0.00000  Uiso   1.00
O44    O     0.07452   0.13251   0.23607   0.00000  Uiso   1.00
O45    O     0.26785   0.19179   0.21806   0.00000  Uiso   1.00
O46    O     0.06990   0.18960   0.27820   0.00000  Uiso   1.00
O47    O     0.25440   0.15277   0.26768   0.00000  Uiso   1.00
O48    O     0.13800   0.06903   0.23607   0.00000  Uiso   1.00
O49    O     0.20437   0.25527   0.21806   0.00000  Uiso   1.00
O50    O     0.15693   0.12393   0.16625   0.00000  Uiso   1.00
O51    O     0.12687   0.20646   0.33749   0.00000  Uiso   1.00
O52    O     0.21088   0.17493   0.15877   0.00000  Uiso   1.00
O53    O     0.17198   0.16135   0.33749   0.00000  Uiso   1.00
Zn54   Zn    0.19244   0.14090   0.28278   0.00000  Uiso   1.00
Zn55   Zn    0.13459   0.12378   0.22258   0.00000  Uiso   1.00
Zn56   Zn    0.21166   0.19664   0.21188   0.00000  Uiso   1.00
Zn57   Zn    0.12798   0.20535   0.28277   0.00000  Uiso   1.00
Br58   Br    0.27117   0.08557   0.44616   0.00000  Uiso   1.00
Br59   Br    0.22221   0.19589   0.39643   0.00000  Uiso   1.00
C60    C     0.38583   0.15994   0.25873   0.00000  Uiso   1.00
C61    C     0.42391   0.20081   0.41987   0.00000  Uiso   1.00
C62    C     0.49390   0.18342   0.41991   0.00000  Uiso   1.00
C63    C     0.47694   0.17512   0.45977   0.00000  Uiso   1.00
C64    C     0.43534   0.18660   0.48047   0.00000  Uiso   1.00
C65    C     0.49975   0.15603   0.47983   0.00000  Uiso   1.00
C66    C     0.48576   0.15753   0.02149   0.00000  Uiso   1.00
C67    C     0.44533   0.17186   0.04143   0.00000  Uiso   1.00
C68    C     0.42004   0.18480   0.02099   0.00000  Uiso   1.00
C69    C     0.53351   0.13209   0.45919   0.00000  Uiso   1.00
C70    C     0.55821   0.11620   0.47837   0.00000  Uiso   1.00
C71    C     0.61439   0.17357   0.24121   0.00000  Uiso   1.00
C72    C     0.54897   0.12310   0.01952   0.00000  Uiso   1.00
C73    C     0.51206   0.14331   0.04152   0.00000  Uiso   1.00
C74    C     0.57564   0.11002   0.03924   0.00000  Uiso   1.00
C75    C     0.56664   0.11720   0.07996   0.00000  Uiso   1.00
C76    C     0.50354   0.14973   0.08280   0.00000  Uiso   1.00
C77    C     0.66038   0.17618   0.23758   0.00000  Uiso   1.00
C78    C     0.34044   0.15759   0.26219   0.00000  Uiso   1.00
C79    C     0.51426   0.32217   0.23810   0.00000  Uiso   1.00
C80    C     0.48495   0.01208   0.26211   0.00000  Uiso   1.00
C81    C     0.48929   0.05611   0.25888   0.00000  Uiso   1.00
C82    C     0.51021   0.27768   0.24135   0.00000  Uiso   1.00
C83    C     0.52154   0.14533   0.14406   0.00000  Uiso   1.00
C84    C     0.47894   0.18783   0.35611   0.00000  Uiso   1.00
C85    C     0.46597   0.19219   0.39932   0.00000  Uiso   1.00
C86    C     0.53058   0.13686   0.10160   0.00000  Uiso   1.00
C87    C     0.40936   0.19974   0.46041   0.00000  Uiso   1.00
H88    H     0.38844   0.19392   0.03712   0.00000  Uiso   1.00
H89    H     0.60392   0.09469   0.02349   0.00000  Uiso   1.00
H90    H     0.35010   0.19328   0.21478   0.00000  Uiso   1.00
H91    H     0.65136   0.14053   0.28532   0.00000  Uiso   1.00
H92    H     0.54135   0.00280   0.21600   0.00000  Uiso   1.00
H93    H     0.45748   0.33221   0.28429   0.00000  Uiso   1.00
H94    H     0.47730   0.16637   0.10113   0.00000  Uiso   1.00
H95    H     0.58779   0.10739   0.09463   0.00000  Uiso   1.00
H96    H     0.37712   0.20763   0.47586   0.00000  Uiso   1.00
H97    H     0.40215   0.20814   0.40452   0.00000  Uiso   1.00
H98    H     0.43114   0.17122   0.07265   0.00000  Uiso   1.00
H99    H     0.54004   0.12394   0.42782   0.00000  Uiso   1.00
O100   O     0.50000   0.16667   0.25000   0.00000  Uiso   1.00
O101   O     0.51182   0.08101   0.27821   0.00000  Uiso   1.00
O102   O     0.47914   0.26136   0.26767   0.00000  Uiso   1.00
O103   O     0.40785   0.13251   0.23607   0.00000  Uiso   1.00
O104   O     0.60119   0.19179   0.21806   0.00000  Uiso   1.00
O105   O     0.40323   0.18960   0.27820   0.00000  Uiso   1.00
O106   O     0.58773   0.15277   0.26768   0.00000  Uiso   1.00
O107   O     0.47133   0.06903   0.23607   0.00000  Uiso   1.00
O108   O     0.53771   0.25527   0.21806   0.00000  Uiso   1.00
O109   O     0.49027   0.12393   0.16625   0.00000  Uiso   1.00
O110   O     0.46020   0.20646   0.33749   0.00000  Uiso   1.00
O111   O     0.54421   0.17493   0.15877   0.00000  Uiso   1.00
O112   O     0.50532   0.16135   0.33749   0.00000  Uiso   1.00
Zn113  Zn    0.52577   0.14090   0.28278   0.00000  Uiso   1.00
Zn114  Zn    0.46792   0.12378   0.22258   0.00000  Uiso   1.00
Zn115  Zn    0.54500   0.19664   0.21188   0.00000  Uiso   1.00
Zn116  Zn    0.46131   0.20535   0.28277   0.00000  Uiso   1.00
Br117  Br    0.60450   0.08557   0.44616   0.00000  Uiso   1.00
Br118  Br    0.55554   0.19589   0.39643   0.00000  Uiso   1.00
C119   C     0.71916   0.15994   0.25873   0.00000  Uiso   1.00
C120   C     0.75725   0.20081   0.41987   0.00000  Uiso   1.00
C121   C     0.82723   0.18342   0.41991   0.00000  Uiso   1.00
C122   C     0.81028   0.17512   0.45977   0.00000  Uiso   1.00
C123   C     0.76867   0.18660   0.48047   0.00000  Uiso   1.00
C124   C     0.83308   0.15603   0.47983   0.00000  Uiso   1.00
C125   C     0.81910   0.15753   0.02149   0.00000  Uiso   1.00
C126   C     0.77866   0.17186   0.04143   0.00000  Uiso   1.00
C127   C     0.75337   0.18480   0.02099   0.00000  Uiso   1.00
C128   C     0.86684   0.13209   0.45919   0.00000  Uiso   1.00
C129   C     0.89154   0.11620   0.47837   0.00000  Uiso   1.00
C130   C     0.94773   0.17357   0.24121   0.00000  Uiso   1.00
C131   C     0.88230   0.12310   0.01952   0.00000  Uiso   1.00
C132   C     0.84539   0.14331   0.04152   0.00000  Uiso   1.00
C133   C     0.90897   0.11002   0.03924   0.00000  Uiso   1.00
C134   C     0.89997   0.11720   0.07996   0.00000  Uiso   1.00
C135   C     0.83687   0.14973   0.08280   0.00000  Uiso   1.00
C136   C     0.99371   0.17618   0.23758   0.00000  Uiso   1.00
C137   C     0.67377   0.15759   0.26219   0.00000  Uiso   1.00
C138   C     0.84760   0.32217   0.23810   0.00000  Uiso   1.00
C139   C     0.81828   0.01208   0.26211   0.00000  Uiso   1.00
C140   C     0.82263   0.05611   0.25888   0.00000  Uiso   1.00
C141   C     0.84354   0.27768   0.24135   0.00000  Uiso   1.00
C142   C     0.85488   0.14533   0.14406   0.00000  Uiso   1.00
C143   C     0.81228   0.18783   0.35611   0.00000  Uiso   1.00
C144   C     0.79930   0.19219   0.39932   0.00000  Uiso   1.00
C145   C     0.86391   0.13686   0.10160   0.00000  Uiso   1.00
C146   C     0.74269   0.19974   0.46041   0.00000  Uiso   1.00
H147   H     0.72178   0.19392   0.03712   0.00000  Uiso   1.00
H148   H     0.93725   0.09469   0.02349   0.00000  Uiso   1.00
H149   H     0.68343   0.19328   0.21478   0.00000  Uiso   1.00
H150   H     0.98470   0.14053   0.28532   0.00000  Uiso   1.00
H151   H     0.87469   0.00280   0.21600   0.00000  Uiso   1.00
H152   H     0.79081   0.33221   0.28429   0.00000  Uiso   1.00
H153   H     0.81064   0.16637   0.10113   0.00000  Uiso   1.00
H154   H     0.92112   0.10739   0.09463   0.00000  Uiso   1.00
H155   H     0.71046   0.20763   0.47586   0.00000  Uiso   1.00
H156   H     0.73548   0.20814   0.40452   0.00000  Uiso   1.00
H157   H     0.76447   0.17122   0.07265   0.00000  Uiso   1.00
H158   H     0.87337   0.12394   0.42782   0.00000  Uiso   1.00
O159   O     0.83333   0.16667   0.25000   0.00000  Uiso   1.00
O160   O     0.84515   0.08101   0.27821   0.00000  Uiso   1.00
O161   O     0.81247   0.26136   0.26767   0.00000  Uiso   1.00
O162   O     0.74119   0.13251   0.23607   0.00000  Uiso   1.00
O163   O     0.93452   0.19179   0.21806   0.00000  Uiso   1.00
O164   O     0.73656   0.18960   0.27820   0.00000  Uiso   1.00
O165   O     0.92106   0.15277   0.26768   0.00000  Uiso   1.00
O166   O     0.80467   0.06903   0.23607   0.00000  Uiso   1.00
O167   O     0.87104   0.25527   0.21806   0.00000  Uiso   1.00
O168   O     0.82360   0.12393   0.16625   0.00000  Uiso   1.00
O169   O     0.79354   0.20646   0.33749   0.00000  Uiso   1.00
O170   O     0.87755   0.17493   0.15877   0.00000  Uiso   1.00
O171   O     0.83865   0.16135   0.33749   0.00000  Uiso   1.00
Zn172  Zn    0.85910   0.14090   0.28278   0.00000  Uiso   1.00
Zn173  Zn    0.80125   0.12378   0.22258   0.00000  Uiso   1.00
Zn174  Zn    0.87833   0.19664   0.21188   0.00000  Uiso   1.00
Zn175  Zn    0.79465   0.20535   0.28277   0.00000  Uiso   1.00
Br176  Br    0.93783   0.08557   0.44616   0.00000  Uiso   1.00
Br177  Br    0.88887   0.19589   0.39643   0.00000  Uiso   1.00
C178   C     0.05250   0.49327   0.25873   0.00000  Uiso   1.00
C179   C     0.09058   0.53415   0.41987   0.00000  Uiso   1.00
C180   C     0.16056   0.51675   0.41991   0.00000  Uiso   1.00
C181   C     0.14361   0.50845   0.45977   0.00000  Uiso   1.00
C182   C     0.10201   0.51994   0.48047   0.00000  Uiso   1.00
C183   C     0.16641   0.48937   0.47983   0.00000  Uiso   1.00
C184   C     0.15243   0.49086   0.02149   0.00000  Uiso   1.00
C185   C     0.11200   0.50519   0.04143   0.00000  Uiso   1.00
C186   C     0.08670   0.51813   0.02099   0.00000  Uiso   1.00
C187   C     0.20018   0.46543   0.45919   0.00000  Uiso   1.00
C188   C     0.22487   0.44954   0.47837   0.00000  Uiso   1.00
C189   C     0.28106   0.50690   0.24121   0.00000  Uiso   1.00
C190   C     0.21563   0.45644   0.01952   0.00000  Uiso   1.00
C191   C     0.17873   0.47664   0.04152   0.00000  Uiso   1.00
C192   C     0.24230   0.44335   0.03924   0.00000  Uiso   1.00
C193   C     0.23330   0.45054   0.07996   0.00000  Uiso   1.00
C194   C     0.17020   0.48306   0.08280   0.00000  Uiso   1.00
C195   C     0.32704   0.50952   0.23758   0.00000  Uiso   1.00
C196   C     0.00711   0.49092   0.26219   0.00000  Uiso   1.00
C197   C     0.18093   0.65550   0.23810   0.00000  Uiso   1.00
C198   C     0.15161   0.34541   0.26211   0.00000  Uiso   1.00
C199   C     0.15596   0.38944   0.25888   0.00000  Uiso   1.00
C200   C     0.17687   0.61101   0.24135   0.00000  Uiso   1.00
C201   C     0.18821   0.47866   0.14406   0.00000  Uiso   1.00
C202   C     0.14561   0.52116   0.35611   0.00000  Uiso   1.00
C203   C     0.13264   0.52552   0.39932   0.00000  Uiso   1.00
C204   C     0.19725   0.47020   0.10160   0.00000  Uiso   1.00
C205   C     0.07603   0.53307   0.46041   0.00000  Uiso   1.00
H206   H     0.05511   0.52726   0.03712   0.00000  Uiso   1.00
H207   H     0.27058   0.42802   0.02349   0.00000  Uiso   1.00
H208   H     0.01677   0.52661   0.21478   0.00000  Uiso   1.00
H209   H     0.31803   0.47386   0.28532   0.00000  Uiso   1.00
H210   H     0.20802   0.33613   0.21600   0.00000  Uiso   1.00
H211   H     0.12415   0.66554   0.28429   0.00000  Uiso   1.00
H212   H     0.14397   0.49971   0.10113   0.00000  Uiso   1.00
H213   H     0.25445   0.44073   0.09463   0.00000  Uiso   1.00
H214   H     0.04379   0.54096   0.47586   0.00000  Uiso   1.00
H215   H     0.06881   0.54147   0.40452   0.00000  Uiso   1.00
H216   H     0.09780   0.50455   0.07265   0.00000  Uiso   1.00
H217   H     0.20670   0.45727   0.42782   0.00000  Uiso   1.00
O218   O     0.16667   0.50000   0.25000   0.00000  Uiso   1.00
O219   O     0.17849   0.41434   0.27821   0.00000  Uiso   1.00
O220   O     0.14581   0.59469   0.26767   0.00000  Uiso   1.00
O221   O     0.07452   0.46584   0.23607   0.00000  Uiso   1.00
O222   O     0.26785   0.52512   0.21806   0.00000  Uiso   1.00
O223   O     0.06990   0.52293   0.27820   0.00000  Uiso   1.00
O224   O     0.25440   0.48610   0.26768   0.00000  Uiso   1.00
O225   O     0.13800   0.40236   0.23607   0.00000  Uiso   1.00
O226   O     0.20437   0.58860   0.21806   0.00000  Uiso   1.00
O227   O     0.15693   0.45726   0.16625   0.00000  Uiso   1.00
O228   O     0.12687   0.53979   0.33749   0.00000  Uiso   1.00
O229   O     0.21088   0.50826   0.15877   0.00000  Uiso   1.00
O230   O     0.17198   0.49468   0.33749   0.00000  Uiso   1.00
Zn231  Zn    0.19244   0.47423   0.28278   0.00000  Uiso   1.00
Zn232  Zn    0.13459   0.45711   0.22258   0.00000  Uiso   1.00
Zn233  Zn    0.21166   0.52997   0.21188   0.00000  Uiso   1.00
Zn234  Zn    0.12798   0.53868   0.28277   0.00000  Uiso   1.00
Br235  Br    0.27117   0.41890   0.44616   0.00000  Uiso   1.00
Br236  Br    0.22221   0.52923   0.39643   0.00000  Uiso   1.00
C237   C     0.38583   0.49327   0.25873   0.00000  Uiso   1.00
C238   C     0.42391   0.53415   0.41987   0.00000  Uiso   1.00
C239   C     0.49390   0.51675   0.41991   0.00000  Uiso   1.00
C240   C     0.47694   0.50845   0.45977   0.00000  Uiso   1.00
C241   C     0.43534   0.51994   0.48047   0.00000  Uiso   1.00
C242   C     0.49975   0.48937   0.47983   0.00000  Uiso   1.00
C243   C     0.48576   0.49086   0.02149   0.00000  Uiso   1.00
C244   C     0.44533   0.50519   0.04143   0.00000  Uiso   1.00
C245   C     0.42004   0.51813   0.02099   0.00000  Uiso   1.00
C246   C     0.53351   0.46543   0.45919   0.00000  Uiso   1.00
C247   C     0.55821   0.44954   0.47837   0.00000  Uiso   1.00
C248   C     0.61439   0.50690   0.24121   0.00000  Uiso   1.00
C249   C     0.54897   0.45644   0.01952   0.00000  Uiso   1.00
C250   C     0.51206   0.47664   0.04152   0.00000  Uiso   1.00
C251   C     0.57564   0.44335   0.03924   0.00000  Uiso   1.00
C252   C     0.56664   0.45054   0.07996   0.00000  Uiso   1.00
C253   C     0.50354   0.48306   0.08280   0.00000  Uiso   1.00
C254   C     0.66038   0.50952   0.23758   0.00000  Uiso   1.00
C255   C     0.34044   0.49092   0.26219   0.00000  Uiso   1.00
C256   C     0.51426   0.65550   0.23810   0.00000  Uiso   1.00
C257   C     0.48495   0.34541   0.26211   0.00000  Uiso   1.00
C258   C     0.48929   0.38944   0.25888   0.00000  Uiso   1.00
C259   C     0.51021   0.61101   0.24135   0.00000  Uiso   1.00
C260   C     0.52154   0.47866   0.14406   0.00000  Uiso   1.00
C261   C     0.47894   0.52116   0.35611   0.00000  Uiso   1.00
C262   C     0.46597   0.52552   0.39932   0.00000  Uiso   1.00
C263   C     0.53058   0.47020   0.10160   0.00000  Uiso   1.00
C264   C     0.40936   0.53307   0.46041   0.00000  Uiso   1.00
H265   H     0.38844   0.52726   0.03712   0.00000  Uiso   1.00
H266   H     0.60392   0.42802   0.02349   0.00000  Uiso   1.00
H267   H     0.35010   0.52661   0.21478   0.00000  Uiso   1.00
H268   H     0.65136   0.47386   0.28532   0.00000  Uiso   1.00
H269   H     0.54135   0.33613   0.21600   0.00000  Uiso   1.00
H270   H     0.45748   0.66554   0.28429   0.00000  Uiso   1.00
H271   H     0.47730   0.49971   0.10113   0.00000  Uiso   1.00
H272   H     0.58779   0.44073   0.09463   0.00000  Uiso   1.00
H273   H     0.37712   0.54096   0.47586   0.00000  Uiso   1.00
H274   H     0.40215   0.54147   0.40452   0.00000  Uiso   1.00
H275   H     0.43114   0.50455   0.07265   0.00000  Uiso   1.00
H276   H     0.54004   0.45727   0.42782   0.00000  Uiso   1.00
O277   O     0.50000   0.50000   0.25000   0.00000  Uiso   1.00
O278   O     0.51182   0.41434   0.27821   0.00000  Uiso   1.00
O279   O     0.47914   0.59469   0.26767   0.00000  Uiso   1.00
O280   O     0.40785   0.46584   0.23607   0.00000  Uiso   1.00
O281   O     0.60119   0.52512   0.21806   0.00000  Uiso   1.00
O282   O     0.40323   0.52293   0.27820   0.00000  Uiso   1.00
O283   O     0.58773   0.48610   0.26768   0.00000  Uiso   1.00
O284   O     0.47133   0.40236   0.23607   0.00000  Uiso   1.00
O285   O     0.53771   0.58860   0.21806   0.00000  Uiso   1.00
O286   O     0.49027   0.45726   0.16625   0.00000  Uiso   1.00
O287   O     0.46020   0.53979   0.33749   0.00000  Uiso   1.00
O288   O     0.54421   0.50826   0.15877   0.00000  Uiso   1.00
O289   O     0.50532   0.49468   0.33749   0.00000  Uiso   1.00
Zn290  Zn    0.52577   0.47423   0.28278   0.00000  Uiso   1.00
Zn291  Zn    0.46792   0.45711   0.22258   0.00000  Uiso   1.00
Zn292  Zn    0.54500   0.52997   0.21188   0.00000  Uiso   1.00
Zn293  Zn    0.46131   0.53868   0.28277   0.00000  Uiso   1.00
Br294  Br    0.60450   0.41890   0.44616   0.00000  Uiso   1.00
Br295  Br    0.55554   0.52923   0.39643   0.00000  Uiso   1.00
C296   C     0.71916   0.49327   0.25873   0.00000  Uiso   1.00
C297   C     0.75725   0.53415   0.41987   0.00000  Uiso   1.00
C298   C     0.82723   0.51675   0.41991   0.00000  Uiso   1.00
C299   C     0.81028   0.50845   0.45977   0.00000  Uiso   1.00
C300   C     0.76867   0.51994   0.48047   0.00000  Uiso   1.00
C301   C     0.83308   0.48937   0.47983   0.00000  Uiso   1.00
C302   C     0.81910   0.49086   0.02149   0.00000  Uiso   1.00
C303   C     0.77866   0.50519   0.04143   0.00000  Uiso   1.00
C304   C     0.75337   0.51813   0.02099   0.00000  Uiso   1.00
C305   C     0.86684   0.46543   0.45919   0.00000  Uiso   1.00
C306   C     0.89154   0.44954   0.47837   0.00000  Uiso   1.00
C307   C     0.94773   0.50690   0.24121   0.00000  Uiso   1.00
C308   C     0.88230   0.45644   0.01952   0.00000  Uiso   1.00
C309   C     0.84539   0.47664   0.04152   0.00000  Uiso   1.00
C310   C     0.90897   0.44335   0.03924   0.00000  Uiso   1.00
C311   C     0.89997   0.45054   0.07996   0.00000  Uiso   1.00
C312   C     0.83687   0.48306   0.08280   0.00000  Uiso   1.00
C313   C     0.99371   0.50952   0.23758   0.00000  Uiso   1.00
C314   C     0.67377   0.49092   0.26219   0.00000  Uiso   1.00
C315   C     0.84760   0.65550   0.23810   0.00000  Uiso   1.00
C316   C     0.81828   0.34541   0.26211   0.00000  Uiso   1.00
C317   C     0.82263   0.38944   0.25888   0.00000  Uiso   1.00
C318   C     0.84354   0.61101   0.24135   0.00000  Uiso   1.00
C319   C     0.85488   0.47866   0.14406   0.00000  Uiso   1.00
C320   C     0.81228   0.52116   0.35611   0.00000  Uiso   1.00
C321   C     0.79930   0.52552   0.39932   0.00000  Uiso   1.00
C322   C     0.86391   0.47020   0.10160   0.00000  Uiso   1.00
C323   C     0.74269   0.53307   0.46041   0.00000  Uiso   1.00
H324   H     0.72178   0.52726   0.03712   0.00000  Uiso   1.00
H325   H     0.93725   0.42802   0.02349   0.00000  Uiso   1.00
H326   H     0.68343   0.52661   0.21478   0.00000  Uiso   1.00
H327   H     0.98470   0.47386   0.28532   0.00000  Uiso   1.00
H328   H     0.87469   0.33613   0.21600   0.00000  Uiso   1.00
H329   H     0.79081   0.66554   0.28429   0.00000  Uiso   1.00
H330   H     0.81064   0.49971   0.10113   0.00000  Uiso   1.00
H331   H     0.92112   0.44073   0.09463   0.00000  Uiso   1.00
H332   H     0.71046   0.54096   0.47586   0.00000  Uiso   1.00
H333   H     0.73548   0.54147   0.40452   0.00000  Uiso   1.00
H334   H     0.76447   0.50455   0.07265   0.00000  Uiso   1.00
H335   H     0.87337   0.45727   0.42782   0.00000  Uiso   1.00
O336   O     0.83333   0.50000   0.25000   0.00000  Uiso   1.00
O337   O     0.84515   0.41434   0.27821   0.00000  Uiso   1.00
O338   O     0.81247   0.59469   0.26767   0.00000  Uiso   1.00
O339   O     0.74119   0.46584   0.23607   0.00000  Uiso   1.00
O340   O     0.93452   0.52512   0.21806   0.00000  Uiso   1.00
O341   O     0.73656   0.52293   0.27820   0.00000  Uiso   1.00
O342   O     0.92106   0.48610   0.26768   0.00000  Uiso   1.00
O343   O     0.80467   0.40236   0.23607   0.00000  Uiso   1.00
O344   O     0.87104   0.58860   0.21806   0.00000  Uiso   1.00
O345   O     0.82360   0.45726   0.16625   0.00000  Uiso   1.00
O346   O     0.79354   0.53979   0.33749   0.00000  Uiso   1.00
O347   O     0.87755   0.50826   0.15877   0.00000  Uiso   1.00
O348   O     0.83865   0.49468   0.33749   0.00000  Uiso   1.00
Zn349  Zn    0.85910   0.47423   0.28278   0.00000  Uiso   1.00
Zn350  Zn    0.80125   0.45711   0.22258   0.00000  Uiso   1.00
Zn351  Zn    0.87833   0.52997   0.21188   0.00000  Uiso   1.00
Zn352  Zn    0.79465   0.53868   0.28277   0.00000  Uiso   1.00
Br353  Br    0.93783   0.41890   0.44616   0.00000  Uiso   1.00
Br354  Br    0.88887   0.52923   0.39643   0.00000  Uiso   1.00
C355   C     0.05250   0.82661   0.25873   0.00000  Uiso   1.00
C356   C     0.09058   0.86748   0.41987   0.00000  Uiso   1.00
C357   C     0.16056   0.85008   0.41991   0.00000  Uiso   1.00
C358   C     0.14361   0.84178   0.45977   0.00000  Uiso   1.00
C359   C     0.10201   0.85327   0.48047   0.00000  Uiso   1.00
C360   C     0.16641   0.82270   0.47983   0.00000  Uiso   1.00
C361   C     0.15243   0.82420   0.02149   0.00000  Uiso   1.00
C362   C     0.11200   0.83852   0.04143   0.00000  Uiso   1.00
C363   C     0.08670   0.85146   0.02099   0.00000  Uiso   1.00
C364   C     0.20018   0.79876   0.45919   0.00000  Uiso   1.00
C365   C     0.22487   0.78287   0.47837   0.00000  Uiso   1.00
C366   C     0.28106   0.84024   0.24121   0.00000  Uiso   1.00
C367   C     0.21563   0.78977   0.01952   0.00000  Uiso   1.00
C368   C     0.17873   0.80998   0.04152   0.00000  Uiso   1.00
C369   C     0.24230   0.77669   0.03924   0.00000  Uiso   1.00
C370   C     0.23330   0.78387   0.07996   0.00000  Uiso   1.00
C371   C     0.17020   0.81640   0.08280   0.00000  Uiso   1.00
C372   C     0.32704   0.84285   0.23758   0.00000  Uiso   1.00
C373   C     0.00711   0.82425   0.26219   0.00000  Uiso   1.00
C374   C     0.18093   0.98884   0.23810   0.00000  Uiso   1.00
C375   C     0.15161   0.67874   0.26211   0.00000  Uiso   1.00
C376   C     0.15596   0.72278   0.25888   0.00000  Uiso   1.00
C377   C     0.17687   0.94434   0.24135   0.00000  Uiso   1.00
C378   C     0.18821   0.81199   0.14406   0.00000  Uiso   1.00
C379   C     0.14561   0.85449   0.35611   0.00000  Uiso   1.00
C380   C     0.13264   0.85886   0.39932   0.00000  Uiso   1.00
C381   C     0.19725   0.80353   0.10160   0.00000  Uiso   1.00
C382   C     0.07603   0.86640   0.46041   0.00000  Uiso   1.00
H383   H     0.05511   0.86059   0.03712   0.00000  Uiso   1.00
H384   H     0.27058   0.76135   0.02349   0.00000  Uiso   1.00
H385   H     0.01677   0.85994   0.21478   0.00000  Uiso   1.00
H386   H     0.31803   0.80720   0.28532   0.00000  Uiso   1.00
H387   H     0.20802   0.66947   0.21600   0.00000  Uiso   1.00
H388   H     0.12415   0.99888   0.28429   0.00000  Uiso   1.00
H389   H     0.14397   0.83304   0.10113   0.00000  Uiso   1.00
H390   H     0.25445   0.77406   0.09463   0.00000  Uiso   1.00
H391   H     0.04379   0.87430   0.47586   0.00000  Uiso   1.00
H392   H     0.06881   0.87481   0.40452   0.00000  Uiso   1.00
H393   H     0.09780   0.83788   0.07265   0.00000  Uiso   1.00
H394   H     0.20670   0.79060   0.42782   0.00000  Uiso   1.00
O395   O     0.16667   0.83333   0.25000   0.00000  Uiso   1.00
O396   O     0.17849   0.74768   0.27821   0.00000  Uiso   1.00
O397   O     0.14581   0.92803   0.26767   0.00000  Uiso   1.00
O398   O     0.07452   0.79917   0.23607   0.00000  Uiso   1.00
O399   O     0.26785   0.85845   0.21806   0.00000  Uiso   1.00
O400   O     0.06990   0.85627   0.27820   0.00000  Uiso   1.00
O401   O     0.25440   0.81944   0.26768   0.00000  Uiso   1.00
O402   O     0.13800   0.73570   0.23607   0.00000  Uiso   1.00
O403   O     0.20437   0.92193   0.21806   0.00000  Uiso   1.00
O404   O     0.15693   0.79060   0.16625   0.00000  Uiso   1.00
O405   O     0.12687   0.87313   0.33749   0.00000  Uiso   1.00
O406   O     0.21088   0.84159   0.15877   0.00000  Uiso   1.00
O407   O     0.17198   0.82802   0.33749   0.00000  Uiso   1.00
Zn408  Zn    0.19244   0.80756   0.28278   0.00000  Uiso   1.00
Zn409  Zn    0.13459   0.79044   0.22258   0.00000  Uiso   1.00
Zn410  Zn    0.21166   0.86331   0.21188   0.00000  Uiso   1.00
Zn411  Zn    0.12798   0.87202   0.28277   0.00000  Uiso   1.00
Br412  Br    0.27117   0.75224   0.44616   0.00000  Uiso   1.00
Br413  Br    0.22221   0.86256   0.39643   0.00000  Uiso   1.00
C414   C     0.38583   0.82661   0.25873   0.00000  Uiso   1.00
C415   C     0.42391   0.86748   0.41987   0.00000  Uiso   1.00
C416   C     0.49390   0.85008   0.41991   0.00000  Uiso   1.00
C417   C     0.47694   0.84178   0.45977   0.00000  Uiso   1.00
C418   C     0.43534   0.85327   0.48047   0.00000  Uiso   1.00
C419   C     0.49975   0.82270   0.47983   0.00000  Uiso   1.00
C420   C     0.48576   0.82420   0.02149   0.00000  Uiso   1.00
C421   C     0.44533   0.83852   0.04143   0.00000  Uiso   1.00
C422   C     0.42004   0.85146   0.02099   0.00000  Uiso   1.00
C423   C     0.53351   0.79876   0.45919   0.00000  Uiso   1.00
C424   C     0.55821   0.78287   0.47837   0.00000  Uiso   1.00
C425   C     0.61439   0.84024   0.24121   0.00000  Uiso   1.00
C426   C     0.54897   0.78977   0.01952   0.00000  Uiso   1.00
C427   C     0.51206   0.80998   0.04152   0.00000  Uiso   1.00
C428   C     0.57564   0.77669   0.03924   0.00000  Uiso   1.00
C429   C     0.56664   0.78387   0.07996   0.00000  Uiso   1.00
C430   C     0.50354   0.81640   0.08280   0.00000  Uiso   1.00
C431   C     0.66038   0.84285   0.23758   0.00000  Uiso   1.00
C432   C     0.34044   0.82425   0.26219   0.00000  Uiso   1.00
C433   C     0.51426   0.98884   0.23810   0.00000  Uiso   1.00
C434   C     0.48495   0.67874   0.26211   0.00000  Uiso   1.00
C435   C     0.48929   0.72278   0.25888   0.00000  Uiso   1.00
C436   C     0.51021   0.94434   0.24135   0.00000  Uiso   1.00
C437   C     0.52154   0.81199   0.14406   0.00000  Uiso   1.00
C438   C     0.47894   0.85449   0.35611   0.00000  Uiso   1.00
C439   C     0.46597   0.85886   0.39932   0.00000  Uiso   1.00
C440   C     0.53058   0.80353   0.10160   0.00000  Uiso   1.00
C441   C     0.40936   0.86640   0.46041   0.00000  Uiso   1.00
H442   H     0.38844   0.86059   0.03712   0.00000  Uiso   1.00
H443   H     0.60392   0.76135   0.02349   0.00000  Uiso   1.00
H444   H     0.35010   0.85994   0.21478   0.00000  Uiso   1.00
H445   H     0.65136   0.80720   0.28532   0.00000  Uiso   1.00
H446   H     0.54135   0.66947   0.21600   0.00000  Uiso   1.00
H447   H     0.45748   0.99888   0.28429   0.00000  Uiso   1.00
H448   H     0.47730   0.83304   0.10113   0.00000  Uiso   1.00
H449   H     0.58779   0.77406   0.09463   0.00000  Uiso   1.00
H450   H     0.37712   0.87430   0.47586   0.00000  Uiso   1.00
H451   H     0.40215   0.87481   0.40452   0.00000  Uiso   1.00
H452   H     0.43114   0.83788   0.07265   0.00000  Uiso   1.00
H453   H     0.54004   0.79060   0.42782   0.00000  Uiso   1.00
O454   O     0.50000   0.83333   0.25000   0.00000  Uiso   1.00
O455   O     0.51182   0.74768   0.27821   0.00000  Uiso   1.00
O456   O     0.47914   0.92803   0.26767   0.00000  Uiso   1.00
O457   O     0.40785   0.79917   0.23607   0.00000  Uiso   1.00
O458   O     0.60119   0.85845   0.21806   0.00000  Uiso   1.00
O459   O     0.40323   0.85627   0.27820   0.00000  Uiso   1.00
O460   O     0.58773   0.81944   0.26768   0.00000  Uiso   1.00
O461   O     0.47133   0.73570   0.23607   0.00000  Uiso   1.00
O462   O     0.53771   0.92193   0.21806   0.00000  Uiso   1.00
O463   O     0.49027   0.79060   0.16625   0.00000  Uiso   1.00
O464   O     0.46020   0.87313   0.33749   0.00000  Uiso   1.00
O465   O     0.54421   0.84159   0.15877   0.00000  Uiso   1.00
O466   O     0.50532   0.82802   0.33749   0.00000  Uiso   1.00
Zn467  Zn    0.52577   0.80756   0.28278   0.00000  Uiso   1.00
Zn468  Zn    0.46792   0.79044   0.22258   0.00000  Uiso   1.00
Zn469  Zn    0.54500   0.86331   0.21188   0.00000  Uiso   1.00
Zn470  Zn    0.46131   0.87202   0.28277   0.00000  Uiso   1.00
Br471  Br    0.60450   0.75224   0.44616   0.00000  Uiso   1.00
Br472  Br    0.55554   0.86256   0.39643   0.00000  Uiso   1.00
C473   C     0.71916   0.82661   0.25873   0.00000  Uiso   1.00
C474   C     0.75725   0.86748   0.41987   0.00000  Uiso   1.00
C475   C     0.82723   0.85008   0.41991   0.00000  Uiso   1.00
C476   C     0.81028   0.84178   0.45977   0.00000  Uiso   1.00
C477   C     0.76867   0.85327   0.48047   0.00000  Uiso   1.00
C478   C     0.83308   0.82270   0.47983   0.00000  Uiso   1.00
C479   C     0.81910   0.82420   0.02149   0.00000  Uiso   1.00
C480   C     0.77866   0.83852   0.04143   0.00000  Uiso   1.00
C481   C     0.75337   0.85146   0.02099   0.00000  Uiso   1.00
C482   C     0.86684   0.79876   0.45919   0.00000  Uiso   1.00
C483   C     0.89154   0.78287   0.47837   0.00000  Uiso   1.00
C484   C     0.94773   0.84024   0.24121   0.00000  Uiso   1.00
C485   C     0.88230   0.78977   0.01952   0.00000  Uiso   1.00
C486   C     0.84539   0.80998   0.04152   0.00000  Uiso   1.00
C487   C     0.90897   0.77669   0.03924   0.00000  Uiso   1.00
C488   C     0.89997   0.78387   0.07996   0.00000  Uiso   1.00
C489   C     0.83687   0.81640   0.08280   0.00000  Uiso   1.00
C490   C     0.99371   0.84285   0.23758   0.00000  Uiso   1.00
C491   C     0.67377   0.82425   0.26219   0.00000  Uiso   1.00
C492   C     0.84760   0.98884   0.23810   0.00000  Uiso   1.00
C493   C     0.81828   0.67874   0.26211   0.00000  Uiso   1.00
C494   C     0.82263   0.72278   0.25888   0.00000  Uiso   1.00
C495   C     0.84354   0.94434   0.24135   0.00000  Uiso   1.00
C496   C     0.85488   0.81199   0.14406   0.00000  Uiso   1.00
C497   C     0.81228   0.85449   0.35611   0.00000  Uiso   1.00
C498   C     0.79930   0.85886   0.39932   0.00000  Uiso   1.00
C499   C     0.86391   0.80353   0.10160   0.00000  Uiso   1.00
C500   C     0.74269   0.86640   0.46041   0.00000  Uiso   1.00
H501   H     0.72178   0.86059   0.03712   0.00000  Uiso   1.00
H502   H     0.93725   0.76135   0.02349   0.00000  Uiso   1.00
H503   H     0.68343   0.85994   0.21478   0.00000  Uiso   1.00
H504   H     0.98470   0.80720   0.28532   0.00000  Uiso   1.00
H505   H     0.87469   0.66947   0.21600   0.00000  Uiso   1.00
H506   H     0.79081   0.99888   0.28429   0.00000  Uiso   1.00
H507   H     0.81064   0.83304   0.10113   0.00000  Uiso   1.00
H508   H     0.92112   0.77406   0.09463   0.00000  Uiso   1.00
H509   H     0.71046   0.87430   0.47586   0.00000  Uiso   1.00
H510   H     0.73548   0.87481   0.40452   0.00000  Uiso   1.00
H511   H     0.76447   0.83788   0.07265   0.00000  Uiso   1.00
H512   H     0.87337   0.79060   0.42782   0.00000  Uiso   1.00
O513   O     0.83333   0.83333   0.25000   0.00000  Uiso   1.00
O514   O     0.84515   0.74768   0.27821   0.00000  Uiso   1.00
O515   O     0.81247   0.92803   0.26767   0.00000  Uiso   1.00
O516   O     0.74119   0.79917   0.23607   0.00000  Uiso   1.00
O517   O     0.93452   0.85845   0.21806   0.00000  Uiso   1.00
O518   O     0.73656   0.85627   0.27820   0.00000  Uiso   1.00
O519   O     0.92106   0.81944   0.26768   0.00000  Uiso   1.00
O520   O     0.80467   0.73570   0.23607   0.00000  Uiso   1.00
O521   O     0.87104   0.92193   0.21806   0.00000  Uiso   1.00
O522   O     0.82360   0.79060   0.16625   0.00000  Uiso   1.00
O523   O     0.79354   0.87313   0.33749   0.00000  Uiso   1.00
O524   O     0.87755   0.84159   0.15877   0.00000  Uiso   1.00
O525   O     0.83865   0.82802   0.33749   0.00000  Uiso   1.00
Zn526  Zn    0.85910   0.80756   0.28278   0.00000  Uiso   1.00
Zn527  Zn    0.80125   0.79044   0.22258   0.00000  Uiso   1.00
Zn528  Zn    0.87833   0.86331   0.21188   0.00000  Uiso   1.00
Zn529  Zn    0.79465   0.87202   0.28277   0.00000  Uiso   1.00
Br530  Br    0.93783   0.75224   0.44616   0.00000  Uiso   1.00
Br531  Br    0.88887   0.86256   0.39643   0.00000  Uiso   1.00
C532   C     0.05250   0.15994   0.75873   0.00000  Uiso   1.00
C533   C     0.09058   0.20081   0.91987   0.00000  Uiso   1.00
C534   C     0.16056   0.18342   0.91991   0.00000  Uiso   1.00
C535   C     0.14361   0.17512   0.95977   0.00000  Uiso   1.00
C536   C     0.10201   0.18660   0.98047   0.00000  Uiso   1.00
C537   C     0.16641   0.15603   0.97983   0.00000  Uiso   1.00
C538   C     0.15243   0.15753   0.52149   0.00000  Uiso   1.00
C539   C     0.11200   0.17186   0.54143   0.00000  Uiso   1.00
C540   C     0.08670   0.18480   0.52099   0.00000  Uiso   1.00
C541   C     0.20018   0.13209   0.95919   0.00000  Uiso   1.00
C542   C     0.22487   0.11620   0.97837   0.00000  Uiso   1.00
C543   C     0.28106   0.17357   0.74121   0.00000  Uiso   1.00
C544   C     0.21563   0.12310   0.51952   0.00000  Uiso   1.00
C545   C     0.17873   0.14331   0.54152   0.00000  Uiso   1.00
C546   C     0.24230   0.11002   0.53924   0.00000  Uiso   1.00
C547   C     0.23330   0.11720   0.57996   0.00000  Uiso   1.00
C548   C     0.17020   0.14973   0.58280   0.00000  Uiso   1.00
C549   C     0.32704   0.17618   0.73758   0.00000  Uiso   1.00
C550   C     0.00711   0.15759   0.76219   0.00000  Uiso   1.00
C551   C     0.18093   0.32217   0.73810   0.00000  Uiso   1.00
C552   C     0.15161   0.01208   0.76211   0.00000  Uiso   1.00
C553   C     0.15596   0.05611   0.75888   0.00000  Uiso   1.00
C554   C     0.17687   0.27768   0.74135   0.00000  Uiso   1.00
C555   C     0.18821   0.14533   0.64406   0.00000  Uiso   1.00
C556   C     0.14561   0.18783   0.85611   0.00000  Uiso   1.00
C557   C     0.13264   0.19219   0.89932   0.00000  Uiso   1.00
C558   C     0.19725   0.13686   0.60160   0.00000  Uiso   1.00
C559   C     0.07603   0.19974   0.96041   0.00000  Uiso   1.00
H560   H     0.05511   0.19392   0.53712   0.00000  Uiso   1.00
H561   H     0.27058   0.09469   0.52349   0.00000  Uiso   1.00
H562   H     0.01677   0.19328   0.71478   0.00000  Uiso   1.00
H563   H     0.31803   0.14053   0.78532   0.00000  Uiso   1.00
H564   H     0.20802   0.00280   0.71600   0.00000  Uiso   1.00
H565   H     0.12415   0.33221   0.78429   0.00000  Uiso   1.00
H566   H     0.14397   0.16637   0.60113   0.00000  Uiso   1.00
H567   H     0.25445   0.10739   0.59463   0.00000  Uiso   1.00
H568   H     0.04379   0.20763   0.97586   0.00000  Uiso   1.00
H569   H     0.06881   0.20814   0.90452   0.00000  Uiso   1.00
H570   H     0.09780   0.17122   0.57265   0.00000  Uiso   1.00
H571   H     0.20670   0.12394   0.92782   0.00000  Uiso   1.00
O572   O     0.16667   0.16667   0.75000   0.00000  Uiso   1.00
O573   O     0.17849   0.08101   0.77821   0.00000  Uiso   1.00
O574   O     0.14581   0.26136   0.76767   0.00000  Uiso   1.00
O575   O     0.07452   0.13251   0.73607   0.00000  Uiso   1.00
O576   O     0.26785   0.19179   0.71806   0.00000  Uiso   1.00
O577   O     0.06990   0.18960   0.77820   0.00000  Uiso   1.00
O578   O     0.25440   0.15277   0.76768   0.00000  Uiso   1.00
O579   O     0.13800   0.06903   0.73607   0.00000  Uiso   1.00
O580   O     0.20437   0.25527   0.71806   0.00000  Uiso   1.00
O581   O     0.15693   0.12393   0.66625   0.00000  Uiso   1.00
O582   O     0.12687   0.20646   0.83749   0.00000  Uiso   1.00
O583   O     0.21088   0.17493   0.65877   0.00000  Uiso   1.00
O584   O     0.17198   0.16135   0.83749   0.00000  Uiso   1.00
Zn585  Zn    0.19244   0.14090   0.78278   0.00000  Uiso   1.00
Zn586  Zn    0.13459   0.12378   0.72258   0.00000  Uiso   1.00
Zn587  Zn    0.21166   0.19664   0.71188   0.00000  Uiso   1.00
Zn588  Zn    0.12798   0.20535   0.78277   0.00000  Uiso   1.00
Br589  Br    0.27117   0.08557   0.94616   0.00000  Uiso   1.00
Br590  Br    0.22221   0.19589   0.89643   0.00000  Uiso   1.00
C591   C     0.38583   0.15994   0.75873   0.00000  Uiso   1.00
C592   C     0.42391   0.20081   0.91987   0.00000  Uiso   1.00
C593   C     0.49390   0.18342   0.91991   0.00000  Uiso   1.00
C594   C     0.47694   0.17512   0.95977   0.00000  Uiso   1.00
C595   C     0.43534   0.18660   0.98047   0.00000  Uiso   1.00
C596   C     0.49975   0.15603   0.97983   0.00000  Uiso   1.00
C597   C     0.48576   0.15753   0.52149   0.00000  Uiso   1.00
C598   C     0.44533   0.17186   0.54143   0.00000  Uiso   1.00
C599   C     0.42004   0.18480   0.52099   0.00000  Uiso   1.00
C600   C     0.53351   0.13209   0.95919   0.00000  Uiso   1.00
C601   C     0.55821   0.11620   0.97837   0.00000  Uiso   1.00
C602   C     0.61439   0.17357   0.74121   0.00000  Uiso   1.00
C603   C     0.54897   0.12310   0.51952   0.00000  Uiso   1.00
C604   C     0.51206   0.14331   0.54152   0.00000  Uiso   1.00
C605   C     0.57564   0.11002   0.53924   0.00000  Uiso   1.00
C606   C     0.56664   0.11720   0.57996   0.00000  Uiso   1.00
C607   C     0.50354   0.14973   0.58280   0.00000  Uiso   1.00
C608   C     0.66038   0.17618   0.73758   0.00000  Uiso   1.00
C609   C     0.34044   0.15759   0.76219   0.00000  Uiso   1.00
C610   C     0.51426   0.32217   0.73810   0.00000  Uiso   1.00
C611   C     0.48495   0.01208   0.76211   0.00000  Uiso   1.00
C612   C     0.48929   0.05611   0.75888   0.00000  Uiso   1.00
C613   C     0.51021   0.27768   0.74135   0.00000  Uiso   1.00
C614   C     0.52154   0.14533   0.64406   0.00000  Uiso   1.00
C615   C     0.47894   0.18783   0.85611   0.00000  Uiso   1.00
C616   C     0.46597   0.19219   0.89932   0.00000  Uiso   1.00
C617   C     0.53058   0.13686   0.60160   0.00000  Uiso   1.00
C618   C     0.40936   0.19974   0.96041   0.00000  Uiso   1.00
H619   H     0.38844   0.19392   0.53712   0.00000  Uiso   1.00
H620   H     0.60392   0.09469   0.52349   0.00000  Uiso   1.00
H621   H     0.35010   0.19328   0.71478   0.00000  Uiso   1.00
H622   H     0.65136   0.14053   0.78532   0.00000  Uiso   1.00
H623   H     0.54135   0.00280   0.71600   0.00000  Uiso   1.00
H624   H     0.45748   0.33221   0.78429   0.00000  Uiso   1.00
H625   H     0.47730   0.16637   0.60113   0.00000  Uiso   1.00
H626   H     0.58779   0.10739   0.59463   0.00000  Uiso   1.00
H627   H     0.37712   0.20763   0.97586   0.00000  Uiso   1.00
H628   H     0.40215   0.20814   0.90452   0.00000  Uiso   1.00
H629   H     0.43114   0.17122   0.57265   0.00000  Uiso   1.00
H630   H     0.54004   0.12394   0.92782   0.00000  Uiso   1.00
O631   O     0.50000   0.16667   0.75000   0.00000  Uiso   1.00
O632   O     0.51182   0.08101   0.77821   0.00000  Uiso   1.00
O633   O     0.47914   0.26136   0.76767   0.00000  Uiso   1.00
O634   O     0.40785   0.13251   0.73607   0.00000  Uiso   1.00
O635   O     0.60119   0.19179   0.71806   0.00000  Uiso   1.00
O636   O     0.40323   0.18960   0.77820   0.00000  Uiso   1.00
O637   O     0.58773   0.15277   0.76768   0.00000  Uiso   1.00
O638   O     0.47133   0.06903   0.73607   0.00000  Uiso   1.00
O639   O     0.53771   0.25527   0.71806   0.00000  Uiso   1.00
O640   O     0.49027   0.12393   0.66625   0.00000  Uiso   1.00
O641   O     0.46020   0.20646   0.83749   0.00000  Uiso   1.00
O642   O     0.54421   0.17493   0.65877   0.00000  Uiso   1.00
O643   O     0.50532   0.16135   0.83749   0.00000  Uiso   1.00
Zn644  Zn    0.52577   0.14090   0.78278   0.00000  Uiso   1.00
Zn645  Zn    0.46792   0.12378   0.72258   0.00000  Uiso   1.00
Zn646  Zn    0.54500   0.19664   0.71188   0.00000  Uiso   1.00
Zn647  Zn    0.46131   0.20535   0.78277   0.00000  Uiso   1.00
Br648  Br    0.60450   0.08557   0.94616   0.00000  Uiso   1.00
Br649  Br    0.55554   0.19589   0.89643   0.00000  Uiso   1.00
C650   C     0.71916   0.15994   0.75873   0.00000  Uiso   1.00
C651   C     0.75725   0.20081   0.91987   0.00000  Uiso   1.00
C652   C     0.82723   0.18342   0.91991   0.00000  Uiso   1.00
C653   C     0.81028   0.17512   0.95977   0.00000  Uiso   1.00
C654   C     0.76867   0.18660   0.98047   0.00000  Uiso   1.00
C655   C     0.83308   0.15603   0.97983   0.00000  Uiso   1.00
C656   C     0.81910   0.15753   0.52149   0.00000  Uiso   1.00
C657   C     0.77866   0.17186   0.54143   0.00000  Uiso   1.00
C658   C     0.75337   0.18480   0.52099   0.00000  Uiso   1.00
C659   C     0.86684   0.13209   0.95919   0.00000  Uiso   1.00
C660   C     0.89154   0.11620   0.97837   0.00000  Uiso   1.00
C661   C     0.94773   0.17357   0.74121   0.00000  Uiso   1.00
C662   C     0.88230   0.12310   0.51952   0.00000  Uiso   1.00
C663   C     0.84539   0.14331   0.54152   0.00000  Uiso   1.00
C664   C     0.90897   0.11002   0.53924   0.00000  Uiso   1.00
C665   C     0.89997   0.11720   0.57996   0.00000  Uiso   1.00
C666   C     0.83687   0.14973   0.58280   0.00000  Uiso   1.00
C667   C     0.99371   0.17618   0.73758   0.00000  Uiso   1.00
C668   C     0.67377   0.15759   0.76219   0.00000  Uiso   1.00
C669   C     0.84760   0.32217   0.73810   0.00000  Uiso   1.00
C670   C     0.81828   0.01208   0.76211   0.00000  Uiso   1.00
C671   C     0.82263   0.05611   0.75888   0.00000  Uiso   1.00
C672   C     0.84354   0.27768   0.74135   0.00000  Uiso   1.00
C673   C     0.85488   0.14533   0.64406   0.00000  Uiso   1.00
C674   C     0.81228   0.18783   0.85611   0.00000  Uiso   1.00
C675   C     0.79930   0.19219   0.89932   0.00000  Uiso   1.00
C676   C     0.86391   0.13686   0.60160   0.00000  Uiso   1.00
C677   C     0.74269   0.19974   0.96041   0.00000  Uiso   1.00
H678   H     0.72178   0.19392   0.53712   0.00000  Uiso   1.00
H679   H     0.93725   0.09469   0.52349   0.00000  Uiso   1.00
H680   H     0.68343   0.19328   0.71478   0.00000  Uiso   1.00
H681   H     0.98470   0.14053   0.78532   0.00000  Uiso   1.00
H682   H     0.87469   0.00280   0.71600   0.00000  Uiso   1.00
H683   H     0.79081   0.33221   0.78429   0.00000  Uiso   1.00
H684   H     0.81064   0.16637   0.60113   0.00000  Uiso   1.00
H685   H     0.92112   0.10739   0.59463   0.00000  Uiso   1.00
H686   H     0.71046   0.20763   0.97586   0.00000  Uiso   1.00
H687   H     0.73548   0.20814   0.90452   0.00000  Uiso   1.00
H688   H     0.76447   0.17122   0.57265   0.00000  Uiso   1.00
H689   H     0.87337   0.12394   0.92782   0.00000  Uiso   1.00
O690   O     0.83333   0.16667   0.75000   0.00000  Uiso   1.00
O691   O     0.84515   0.08101   0.77821   0.00000  Uiso   1.00
O692   O     0.81247   0.26136   0.76767   0.00000  Uiso   1.00
O693   O     0.74119   0.13251   0.73607   0.00000  Uiso   1.00
O694   O     0.93452   0.19179   0.71806   0.00000  Uiso   1.00
O695   O     0.73656   0.18960   0.77820   0.00000  Uiso   1.00
O696   O     0.92106   0.15277   0.76768   0.00000  Uiso   1.00
O697   O     0.80467   0.06903   0.73607   0.00000  Uiso   1.00
O698   O     0.87104   0.25527   0.71806   0.00000  Uiso   1.00
O699   O     0.82360   0.12393   0.66625   0.00000  Uiso   1.00
O700   O     0.79354   0.20646   0.83749   0.00000  Uiso   1.00
O701   O     0.87755   0.17493   0.65877   0.00000  Uiso   1.00
O702   O     0.83865   0.16135   0.83749   0.00000  Uiso   1.00
Zn703  Zn    0.85910   0.14090   0.78278   0.00000  Uiso   1.00
Zn704  Zn    0.80125   0.12378   0.72258   0.00000  Uiso   1.00
Zn705  Zn    0.87833   0.19664   0.71188   0.00000  Uiso   1.00
Zn706  Zn    0.79465   0.20535   0.78277   0.00000  Uiso   1.00
Br707  Br    0.93783   0.08557   0.94616   0.00000  Uiso   1.00
Br708  Br    0.88887   0.19589   0.89643   0.00000  Uiso   1.00
C709   C     0.05250   0.49327   0.75873   0.00000  Uiso   1.00
C710   C     0.09058   0.53415   0.91987   0.00000  Uiso   1.00
C711   C     0.16056   0.51675   0.91991   0.00000  Uiso   1.00
C712   C     0.14361   0.50845   0.95977   0.00000  Uiso   1.00
C713   C     0.10201   0.51994   0.98047   0.00000  Uiso   1.00
C714   C     0.16641   0.48937   0.97983   0.00000  Uiso   1.00
C715   C     0.15243   0.49086   0.52149   0.00000  Uiso   1.00
C716   C     0.11200   0.50519   0.54143   0.00000  Uiso   1.00
C717   C     0.08670   0.51813   0.52099   0.00000  Uiso   1.00
C718   C     0.20018   0.46543   0.95919   0.00000  Uiso   1.00
C719   C     0.22487   0.44954   0.97837   0.00000  Uiso   1.00
C720   C     0.28106   0.50690   0.74121   0.00000  Uiso   1.00
C721   C     0.21563   0.45644   0.51952   0.00000  Uiso   1.00
C722   C     0.17873   0.47664   0.54152   0.00000  Uiso   1.00
C723   C     0.24230   0.44335   0.53924   0.00000  Uiso   1.00
C724   C     0.23330   0.45054   0.57996   0.00000  Uiso   1.00
C725   C     0.17020   0.48306   0.58280   0.00000  Uiso   1.00
C726   C     0.32704   0.50952   0.73758   0.00000  Uiso   1.00
C727   C     0.00711   0.49092   0.76219   0.00000  Uiso   1.00
C728   C     0.18093   0.65550   0.73810   0.00000  Uiso   1.00
C729   C     0.15161   0.34541   0.76211   0.00000  Uiso   1.00
C730   C     0.15596   0.38944   0.75888   0.00000  Uiso   1.00
C731   C     0.17687   0.61101   0.74135   0.00000  Uiso   1.00
C732   C     0.18821   0.47866   0.64406   0.00000  Uiso   1.00
C733   C     0.14561   0.52116   0.85611   0.00000  Uiso   1.00
C734   C     0.13264   0.52552   0.89932   0.00000  Uiso   1.00
C735   C     0.19725   0.47020   0.60160   0.00000  Uiso   1.00
C736   C     0.07603   0.53307   0.96041   0.00000  Uiso   1.00
H737   H     0.05511   0.52726   0.53712   0.00000  Uiso   1.00
H738   H     0.27058   0.42802   0.52349   0.00000  Uiso   1.00
H739   H     0.01677   0.52661   0.71478   0.00000  Uiso   1.00
H740   H     0.31803   0.47386   0.78532   0.00000  Uiso   1.00
H741   H     0.20802   0.33613   0.71600   0.00000  Uiso   1.00
H742   H     0.12415   0.66554   0.78429   0.00000  Uiso   1.00
H743   H     0.14397   0.49971   0.60113   0.00000  Uiso   1.00
H744   H     0.25445   0.44073   0.59463   0.00000  Uiso   1.00
H745   H     0.04379   0.54096   0.97586   0.00000  Uiso   1.00
H746   H     0.06881   0.54147   0.90452   0.00000  Uiso   1.00
H747   H     0.09780   0.50455   0.57265   0.00000  Uiso   1.00
H748   H     0.20670   0.45727   0.92782   0.00000  Uiso   1.00
O749   O     0.16667   0.50000   0.75000   0.00000  Uiso   1.00
O750   O     0.17849   0.41434   0.77821   0.00000  Uiso   1.00
O751   O     0.14581   0.59469   0.76767   0.00000  Uiso   1.00
O752   O     0.07452   0.46584   0.73607   0.00000  Uiso   1.00
O753   O     0.26785   0.52512   0.71806   0.00000  Uiso   1.00
O754   O     0.06990   0.52293   0.77820   0.00000  Uiso   1.00
O755   O     0.25440   0.48610   0.76768   0.00000  Uiso   1.00
O756   O     0.13800   0.40236   0.73607   0.00000  Uiso   1.00
O757   O     0.20437   0.58860   0.71806   0.00000  Uiso   1.00
O758   O     0.15693   0.45726   0.66625   0.00000  Uiso   1.00
O759   O     0.12687   0.53979   0.83749   0.00000  Uiso   1.00
O760   O     0.21088   0.50826   0.65877   0.00000  Uiso   1.00
O761   O     0.17198   0.49468   0.83749   0.00000  Uiso   1.00
Zn762  Zn    0.19244   0.47423   0.78278   0.00000  Uiso   1.00
Zn763  Zn    0.13459   0.45711   0.72258   0.00000  Uiso   1.00
Zn764  Zn    0.21166   0.52997   0.71188   0.00000  Uiso   1.00
Zn765  Zn    0.12798   0.53868   0.78277   0.00000  Uiso   1.00
Br766  Br    0.27117   0.41890   0.94616   0.00000  Uiso   1.00
Br767  Br    0.22221   0.52923   0.89643   0.00000  Uiso   1.00
C768   C     0.38583   0.49327   0.75873   0.00000  Uiso   1.00
C769   C     0.42391   0.53415   0.91987   0.00000  Uiso   1.00
C770   C     0.49390   0.51675   0.91991   0.00000  Uiso   1.00
C771   C     0.47694   0.50845   0.95977   0.00000  Uiso   1.00
C772   C     0.43534   0.51994   0.98047   0.00000  Uiso   1.00
C773   C     0.49975   0.48937   0.97983   0.00000  Uiso   1.00
C774   C     0.48576   0.49086   0.52149   0.00000  Uiso   1.00
C775   C     0.44533   0.50519   0.54143   0.00000  Uiso   1.00
C776   C     0.42004   0.51813   0.52099   0.00000  Uiso   1.00
C777   C     0.53351   0.46543   0.95919   0.00000  Uiso   1.00
C778   C     0.55821   0.44954   0.97837   0.00000  Uiso   1.00
C779   C     0.61439   0.50690   0.74121   0.00000  Uiso   1.00
C780   C     0.54897   0.45644   0.51952   0.00000  Uiso   1.00
C781   C     0.51206   0.47664   0.54152   0.00000  Uiso   1.00
C782   C     0.57564   0.44335   0.53924   0.00000  Uiso   1.00
C783   C     0.56664   0.45054   0.57996   0.00000  Uiso   1.00
C784   C     0.50354   0.48306   0.58280   0.00000  Uiso   1.00
C785   C     0.66038   0.50952   0.73758   0.00000  Uiso   1.00
C786   C     0.34044   0.49092   0.76219   0.00000  Uiso   1.00
C787   C     0.51426   0.65550   0.73810   0.00000  Uiso   1.00
C788   C     0.48495   0.34541   0.76211   0.00000  Uiso   1.00
C789   C     0.48929   0.38944   0.75888   0.00000  Uiso   1.00
C790   C     0.51021   0.61101   0.74135   0.00000  Uiso   1.00
C791   C     0.52154   0.47866   0.64406   0.00000  Uiso   1.00
C792   C     0.47894   0.52116   0.85611   0.00000  Uiso   1.00
C793   C     0.46597   0.52552   0.89932   0.00000  Uiso   1.00
C794   C     0.53058   0.47020   0.60160   0.00000  Uiso   1.00
C795   C     0.40936   0.53307   0.96041   0.00000  Uiso   1.00
H796   H     0.38844   0.52726   0.53712   0.00000  Uiso   1.00
H797   H     0.60392   0.42802   0.52349   0.00000  Uiso   1.00
H798   H     0.35010   0.52661   0.71478   0.00000  Uiso   1.00
H799   H     0.65136   0.47386   0.78532   0.00000  Uiso   1.00
H800   H     0.54135   0.33613   0.71600   0.00000  Uiso   1.00
H801   H     0.45748   0.66554   0.78429   0.00000  Uiso   1.00
H802   H     0.47730   0.49971   0.60113   0.00000  Uiso   1.00
H803   H     0.58779   0.44073   0.59463   0.00000  Uiso   1.00
H804   H     0.37712   0.54096   0.97586   0.00000  Uiso   1.00
H805   H     0.40215   0.54147   0.90452   0.00000  Uiso   1.00
H806   H     0.43114   0.50455   0.57265   0.00000  Uiso   1.00
H807   H     0.54004   0.45727   0.92782   0.00000  Uiso   1.00
O808   O     0.50000   0.50000   0.75000   0.00000  Uiso   1.00
O809   O     0.51182   0.41434   0.77821   0.00000  Uiso   1.00
O810   O     0.47914   0.59469   0.76767   0.00000  Uiso   1.00
O811   O     0.40785   0.46584   0.73607   0.00000  Uiso   1.00
O812   O     0.60119   0.52512   0.71806   0.00000  Uiso   1.00
O813   O     0.40323   0.52293   0.77820   0.00000  Uiso   1.00
O814   O     0.58773   0.48610   0.76768   0.00000  Uiso   1.00
O815   O     0.47133   0.40236   0.73607   0.00000  Uiso   1.00
O816   O     0.53771   0.58860   0.71806   0.00000  Uiso   1.00
O817   O     0.49027   0.45726   0.66625   0.00000  Uiso   1.00
O818   O     0.46020   0.53979   0.83749   0.00000  Uiso   1.00
O819   O     0.54421   0.50826   0.65877   0.00000  Uiso   1.00
O820   O     0.50532   0.49468   0.83749   0.00000  Uiso   1.00
Zn821  Zn    0.52577   0.47423   0.78278   0.00000  Uiso   1.00
Zn822  Zn    0.46792   0.45711   0.72258   0.00000  Uiso   1.00
Zn823  Zn    0.54500   0.52997   0.71188   0.00000  Uiso   1.00
Zn824  Zn    0.46131   0.53868   0.78277   0.00000  Uiso   1.00
Br825  Br    0.60450   0.41890   0.94616   0.00000  Uiso   1.00
Br826  Br    0.55554   0.52923   0.89643   0.00000  Uiso   1.00
C827   C     0.71916   0.49327   0.75873   0.00000  Uiso   1.00
C828   C     0.75725   0.53415   0.91987   0.00000  Uiso   1.00
C829   C     0.82723   0.51675   0.91991   0.00000  Uiso   1.00
C830   C     0.81028   0.50845   0.95977   0.00000  Uiso   1.00
C831   C     0.76867   0.51994   0.98047   0.00000  Uiso   1.00
C832   C     0.83308   0.48937   0.97983   0.00000  Uiso   1.00
C833   C     0.81910   0.49086   0.52149   0.00000  Uiso   1.00
C834   C     0.77866   0.50519   0.54143   0.00000  Uiso   1.00
C835   C     0.75337   0.51813   0.52099   0.00000  Uiso   1.00
C836   C     0.86684   0.46543   0.95919   0.00000  Uiso   1.00
C837   C     0.89154   0.44954   0.97837   0.00000  Uiso   1.00
C838   C     0.94773   0.50690   0.74121   0.00000  Uiso   1.00
C839   C     0.88230   0.45644   0.51952   0.00000  Uiso   1.00
C840   C     0.84539   0.47664   0.54152   0.00000  Uiso   1.00
C841   C     0.90897   0.44335   0.53924   0.00000  Uiso   1.00
C842   C     0.89997   0.45054   0.57996   0.00000  Uiso   1.00
C843   C     0.83687   0.48306   0.58280   0.00000  Uiso   1.00
C844   C     0.99371   0.50952   0.73758   0.00000  Uiso   1.00
C845   C     0.67377   0.49092   0.76219   0.00000  Uiso   1.00
C846   C     0.84760   0.65550   0.73810   0.00000  Uiso   1.00
C847   C     0.81828   0.34541   0.76211   0.00000  Uiso   1.00
C848   C     0.82263   0.38944   0.75888   0.00000  Uiso   1.00
C849   C     0.84354   0.61101   0.74135   0.00000  Uiso   1.00
C850   C     0.85488   0.47866   0.64406   0.00000  Uiso   1.00
C851   C     0.81228   0.52116   0.85611   0.00000  Uiso   1.00
C852   C     0.79930   0.52552   0.89932   0.00000  Uiso   1.00
C853   C     0.86391   0.47020   0.60160   0.00000  Uiso   1.00
C854   C     0.74269   0.53307   0.96041   0.00000  Uiso   1.00
H855   H     0.72178   0.52726   0.53712   0.00000  Uiso   1.00
H856   H     0.93725   0.42802   0.52349   0.00000  Uiso   1.00
H857   H     0.68343   0.52661   0.71478   0.00000  Uiso   1.00
H858   H     0.98470   0.47386   0.78532   0.00000  Uiso   1.00
H859   H     0.87469   0.33613   0.71600   0.00000  Uiso   1.00
H860   H     0.79081   0.66554   0.78429   0.00000  Uiso   1.00
H861   H     0.81064   0.49971   0.60113   0.00000  Uiso   1.00
H862   H     0.92112   0.44073   0.59463   0.00000  Uiso   1.00
H863   H     0.71046   0.54096   0.97586   0.00000  Uiso   1.00
H864   H     0.73548   0.54147   0.90452   0.00000  Uiso   1.00
H865   H     0.76447   0.50455   0.57265   0.00000  Uiso   1.00
H866   H     0.87337   0.45727   0.92782   0.00000  Uiso   1.00
O867   O     0.83333   0.50000   0.75000   0.00000  Uiso   1.00
O868   O     0.84515   0.41434   0.77821   0.00000  Uiso   1.00
O869   O     0.81247   0.59469   0.76767   0.00000  Uiso   1.00
O870   O     0.74119   0.46584   0.73607   0.00000  Uiso   1.00
O871   O     0.93452   0.52512   0.71806   0.00000  Uiso   1.00
O872   O     0.73656   0.52293   0.77820   0.00000  Uiso   1.00
O873   O     0.92106   0.48610   0.76768   0.00000  Uiso   1.00
O874   O     0.80467   0.40236   0.73607   0.00000  Uiso   1.00
O875   O     0.87104   0.58860   0.71806   0.00000  Uiso   1.00
O876   O     0.82360   0.45726   0.66625   0.00000  Uiso   1.00
O877   O     0.79354   0.53979   0.83749   0.00000  Uiso   1.00
O878   O     0.87755   0.50826   0.65877   0.00000  Uiso   1.00
O879   O     0.83865   0.49468   0.83749   0.00000  Uiso   1.00
Zn880  Zn    0.85910   0.47423   0.78278   0.00000  Uiso   1.00
Zn881  Zn    0.80125   0.45711   0.72258   0.00000  Uiso   1.00
Zn882  Zn    0.87833   0.52997   0.71188   0.00000  Uiso   1.00
Zn883  Zn    0.79465   0.53868   0.78277   0.00000  Uiso   1.00
Br884  Br    0.93783   0.41890   0.94616   0.00000  Uiso   1.00
Br885  Br    0.88887   0.52923   0.89643   0.00000  Uiso   1.00
C886   C     0.05250   0.82661   0.75873   0.00000  Uiso   1.00
C887   C     0.09058   0.86748   0.91987   0.00000  Uiso   1.00
C888   C     0.16056   0.85008   0.91991   0.00000  Uiso   1.00
C889   C     0.14361   0.84178   0.95977   0.00000  Uiso   1.00
C890   C     0.10201   0.85327   0.98047   0.00000  Uiso   1.00
C891   C     0.16641   0.82270   0.97983   0.00000  Uiso   1.00
C892   C     0.15243   0.82420   0.52149   0.00000  Uiso   1.00
C893   C     0.11200   0.83852   0.54143   0.00000  Uiso   1.00
C894   C     0.08670   0.85146   0.52099   0.00000  Uiso   1.00
C895   C     0.20018   0.79876   0.95919   0.00000  Uiso   1.00
C896   C     0.22487   0.78287   0.97837   0.00000  Uiso   1.00
C897   C     0.28106   0.84024   0.74121   0.00000  Uiso   1.00
C898   C     0.21563   0.78977   0.51952   0.00000  Uiso   1.00
C899   C     0.17873   0.80998   0.54152   0.00000  Uiso   1.00
C900   C     0.24230   0.77669   0.53924   0.00000  Uiso   1.00
C901   C     0.23330   0.78387   0.57996   0.00000  Uiso   1.00
C902   C     0.17020   0.81640   0.58280   0.00000  Uiso   1.00
C903   C     0.32704   0.84285   0.73758   0.00000  Uiso   1.00
C904   C     0.00711   0.82425   0.76219   0.00000  Uiso   1.00
C905   C     0.18093   0.98884   0.73810   0.00000  Uiso   1.00
C906   C     0.15161   0.67874   0.76211   0.00000  Uiso   1.00
C907   C     0.15596   0.72278   0.75888   0.00000  Uiso   1.00
C908   C     0.17687   0.94434   0.74135   0.00000  Uiso   1.00
C909   C     0.18821   0.81199   0.64406   0.00000  Uiso   1.00
C910   C     0.14561   0.85449   0.85611   0.00000  Uiso   1.00
C911   C     0.13264   0.85886   0.89932   0.00000  Uiso   1.00
C912   C     0.19725   0.80353   0.60160   0.00000  Uiso   1.00
C913   C     0.07603   0.86640   0.96041   0.00000  Uiso   1.00
H914   H     0.05511   0.86059   0.53712   0.00000  Uiso   1.00
H915   H     0.27058   0.76135   0.52349   0.00000  Uiso   1.00
H916   H     0.01677   0.85994   0.71478   0.00000  Uiso   1.00
H917   H     0.31803   0.80720   0.78532   0.00000  Uiso   1.00
H918   H     0.20802   0.66947   0.71600   0.00000  Uiso   1.00
H919   H     0.12415   0.99888   0.78429   0.00000  Uiso   1.00
H920   H     0.14397   0.83304   0.60113   0.00000  Uiso   1.00
H921   H     0.25445   0.77406   0.59463   0.00000  Uiso   1.00
H922   H     0.04379   0.87430   0.97586   0.00000  Uiso   1.00
H923   H     0.06881   0.87481   0.90452   0.00000  Uiso   1.00
H924   H     0.09780   0.83788   0.57265   0.00000  Uiso   1.00
H925   H     0.20670   0.79060   0.92782   0.00000  Uiso   1.00
O926   O     0.16667   0.83333   0.75000   0.00000  Uiso   1.00
O927   O     0.17849   0.74768   0.77821   0.00000  Uiso   1.00
O928   O     0.14581   0.92803   0.76767   0.00000  Uiso   1.00
O929   O     0.07452   0.79917   0.73607   0.00000  Uiso   1.00
O930   O     0.26785   0.85845   0.71806   0.00000  Uiso   1.00
O931   O     0.06990   0.85627   0.77820   0.00000  Uiso   1.00
O932   O     0.25440   0.81944   0.76768   0.00000  Uiso   1.00
O933   O     0.13800   0.73570   0.73607   0.00000  Uiso   1.00
O934   O     0.20437   0.92193   0.71806   0.00000  Uiso   1.00
O935   O     0.15693   0.79060   0.66625   0.00000  Uiso   1.00
O936   O     0.12687   0.87313   0.83749   0.00000  Uiso   1.00
O937   O     0.21088   0.84159   0.65877   0.00000  Uiso   1.00
O938   O     0.17198   0.82802   0.83749   0.00000  Uiso   1.00
Zn939  Zn    0.19244   0.80756   0.78278   0.00000  Uiso   1.00
Zn940  Zn    0.13459   0.79044   0.72258   0.00000  Uiso   1.00
Zn941  Zn    0.21166   0.86331   0.71188   0.00000  Uiso   1.00
Zn942  Zn    0.12798   0.87202   0.78277   0.00000  Uiso   1.00
Br943  Br    0.27117   0.75224   0.94616   0.00000  Uiso   1.00
Br944  Br    0.22221   0.86256   0.89643   0.00000  Uiso   1.00
C945   C     0.38583   0.82661   0.75873   0.00000  Uiso   1.00
C946   C     0.42391   0.86748   0.91987   0.00000  Uiso   1.00
C947   C     0.49390   0.85008   0.91991   0.00000  Uiso   1.00
C948   C     0.47694   0.84178   0.95977   0.00000  Uiso   1.00
C949   C     0.43534   0.85327   0.98047   0.00000  Uiso   1.00
C950   C     0.49975   0.82270   0.97983   0.00000  Uiso   1.00
C951   C     0.48576   0.82420   0.52149   0.00000  Uiso   1.00
C952   C     0.44533   0.83852   0.54143   0.00000  Uiso   1.00
C953   C     0.42004   0.85146   0.52099   0.00000  Uiso   1.00
C954   C     0.53351   0.79876   0.95919   0.00000  Uiso   1.00
C955   C     0.55821   0.78287   0.97837   0.00000  Uiso   1.00
C956   C     0.61439   0.84024   0.74121   0.00000  Uiso   1.00
C957   C     0.54897   0.78977   0.51952   0.00000  Uiso   1.00
C958   C     0.51206   0.80998   0.54152   0.00000  Uiso   1.00
C959   C     0.57564   0.77669   0.53924   0.00000  Uiso   1.00
C960   C     0.56664   0.78387   0.57996   0.00000  Uiso   1.00
C961   C     0.50354   0.81640   0.58280   0.00000  Uiso   1.00
C962   C     0.66038   0.84285   0.73758   0.00000  Uiso   1.00
C963   C     0.34044   0.82425   0.76219   0.00000  Uiso   1.00
C964   C     0.51426   0.98884   0.73810   0.00000  Uiso   1.00
C965   C     0.48495   0.67874   0.76211   0.00000  Uiso   1.00
C966   C     0.48929   0.72278   0.75888   0.00000  Uiso   1.00
C967   C     0.51021   0.94434   0.74135   0.00000  Uiso   1.00
C968   C     0.52154   0.81199   0.64406   0.00000  Uiso   1.00
C969   C     0.47894   0.85449   0.85611   0.00000  Uiso   1.00
C970   C     0.46597   0.85886   0.89932   0.00000  Uiso   1.00
C971   C     0.53058   0.80353   0.60160   0.00000  Uiso   1.00
C972   C     0.40936   0.86640   0.96041   0.00000  Uiso   1.00
H973   H     0.38844   0.86059   0.53712   0.00000  Uiso   1.00
H974   H     0.60392   0.76135   0.52349   0.00000  Uiso   1.00
H975   H     0.35010   0.85994   0.71478   0.00000  Uiso   1.00
H976   H     0.65136   0.80720   0.78532   0.00000  Uiso   1.00
H977   H     0.54135   0.66947   0.71600   0.00000  Uiso   1.00
H978   H     0.45748   0.99888   0.78429   0.00000  Uiso   1.00
H979   H     0.47730   0.83304   0.60113   0.00000  Uiso   1.00
H980   H     0.58779   0.77406   0.59463   0.00000  Uiso   1.00
H981   H     0.37712   0.87430   0.97586   0.00000  Uiso   1.00
H982   H     0.40215   0.87481   0.90452   0.00000  Uiso   1.00
H983   H     0.43114   0.83788   0.57265   0.00000  Uiso   1.00
H984   H     0.54004   0.79060   0.92782   0.00000  Uiso   1.00
O985   O     0.50000   0.83333   0.75000   0.00000  Uiso   1.00
O986   O     0.51182   0.74768   0.77821   0.00000  Uiso   1.00
O987   O     0.47914   0.92803   0.76767   0.00000  Uiso   1.00
O988   O     0.40785   0.79917   0.73607   0.00000  Uiso   1.00
O989   O     0.60119   0.85845   0.71806   0.00000  Uiso   1.00
O990   O     0.40323   0.85627   0.77820   0.00000  Uiso   1.00
O991   O     0.58773   0.81944   0.76768   0.00000  Uiso   1.00
O992   O     0.47133   0.73570   0.73607   0.00000  Uiso   1.00
O993   O     0.53771   0.92193   0.71806   0.00000  Uiso   1.00
O994   O     0.49027   0.79060   0.66625   0.00000  Uiso   1.00
O995   O     0.46020   0.87313   0.83749   0.00000  Uiso   1.00
O996   O     0.54421   0.84159   0.65877   0.00000  Uiso   1.00
O997   O     0.50532   0.82802   0.83749   0.00000  Uiso   1.00
Zn998  Zn    0.52577   0.80756   0.78278   0.00000  Uiso   1.00
Zn999  Zn    0.46792   0.79044   0.72258   0.00000  Uiso   1.00
Zn1000 Zn    0.54500   0.86331   0.71188   0.00000  Uiso   1.00
Zn1001 Zn    0.46131   0.87202   0.78277   0.00000  Uiso   1.00
Br1002 Br    0.60450   0.75224   0.94616   0.00000  Uiso   1.00
Br1003 Br    0.55554   0.86256   0.89643   0.00000  Uiso   1.00
C1004  C     0.71916   0.82661   0.75873   0.00000  Uiso   1.00
C1005  C     0.75725   0.86748   0.91987   0.00000  Uiso   1.00
C1006  C     0.82723   0.85008   0.91991   0.00000  Uiso   1.00
C1007  C     0.81028   0.84178   0.95977   0.00000  Uiso   1.00
C1008  C     0.76867   0.85327   0.98047   0.00000  Uiso   1.00
C1009  C     0.83308   0.82270   0.97983   0.00000  Uiso   1.00
C1010  C     0.81910   0.82420   0.52149   0.00000  Uiso   1.00
C1011  C     0.77866   0.83852   0.54143   0.00000  Uiso   1.00
C1012  C     0.75337   0.85146   0.52099   0.00000  Uiso   1.00
C1013  C     0.86684   0.79876   0.95919   0.00000  Uiso   1.00
C1014  C     0.89154   0.78287   0.97837   0.00000  Uiso   1.00
C1015  C     0.94773   0.84024   0.74121   0.00000  Uiso   1.00
C1016  C     0.88230   0.78977   0.51952   0.00000  Uiso   1.00
C1017  C     0.84539   0.80998   0.54152   0.00000  Uiso   1.00
C1018  C     0.90897   0.77669   0.53924   0.00000  Uiso   1.00
C1019  C     0.89997   0.78387   0.57996   0.00000  Uiso   1.00
C1020  C     0.83687   0.81640   0.58280   0.00000  Uiso   1.00
C1021  C     0.99371   0.84285   0.73758   0.00000  Uiso   1.00
C1022  C     0.67377   0.82425   0.76219   0.00000  Uiso   1.00
C1023  C     0.84760   0.98884   0.73810   0.00000  Uiso   1.00
C1024  C     0.81828   0.67874   0.76211   0.00000  Uiso   1.00
C1025  C     0.82263   0.72278   0.75888   0.00000  Uiso   1.00
C1026  C     0.84354   0.94434   0.74135   0.00000  Uiso   1.00
C1027  C     0.85488   0.81199   0.64406   0.00000  Uiso   1.00
C1028  C     0.81228   0.85449   0.85611   0.00000  Uiso   1.00
C1029  C     0.79930   0.85886   0.89932   0.00000  Uiso   1.00
C1030  C     0.86391   0.80353   0.60160   0.00000  Uiso   1.00
C1031  C     0.74269   0.86640   0.96041   0.00000  Uiso   1.00
H1032  H     0.72178   0.86059   0.53712   0.00000  Uiso   1.00
H1033  H     0.93725   0.76135   0.52349   0.00000  Uiso   1.00
H1034  H     0.68343   0.85994   0.71478   0.00000  Uiso   1.00
H1035  H     0.98470   0.80720   0.78532   0.00000  Uiso   1.00
H1036  H     0.87469   0.66947   0.71600   0.00000  Uiso   1.00
H1037  H     0.79081   0.99888   0.78429   0.00000  Uiso   1.00
H1038  H     0.81064   0.83304   0.60113   0.00000  Uiso   1.00
H1039  H     0.92112   0.77406   0.59463   0.00000  Uiso   1.00
H1040  H     0.71046   0.87430   0.97586   0.00000  Uiso   1.00
H1041  H     0.73548   0.87481   0.90452   0.00000  Uiso   1.00
H1042  H     0.76447   0.83788   0.57265   0.00000  Uiso   1.00
H1043  H     0.87337   0.79060   0.92782   0.00000  Uiso   1.00
O1044  O     0.83333   0.83333   0.75000   0.00000  Uiso   1.00
O1045  O     0.84515   0.74768   0.77821   0.00000  Uiso   1.00
O1046  O     0.81247   0.92803   0.76767   0.00000  Uiso   1.00
O1047  O     0.74119   0.79917   0.73607   0.00000  Uiso   1.00
O1048  O     0.93452   0.85845   0.71806   0.00000  Uiso   1.00
O1049  O     0.73656   0.85627   0.77820   0.00000  Uiso   1.00
O1050  O     0.92106   0.81944   0.76768   0.00000  Uiso   1.00
O1051  O     0.80467   0.73570   0.73607   0.00000  Uiso   1.00
O1052  O     0.87104   0.92193   0.71806   0.00000  Uiso   1.00
O1053  O     0.82360   0.79060   0.66625   0.00000  Uiso   1.00
O1054  O     0.79354   0.87313   0.83749   0.00000  Uiso   1.00
O1055  O     0.87755   0.84159   0.65877   0.00000  Uiso   1.00
O1056  O     0.83865   0.82802   0.83749   0.00000  Uiso   1.00
Zn1057 Zn    0.85910   0.80756   0.78278   0.00000  Uiso   1.00
Zn1058 Zn    0.80125   0.79044   0.72258   0.00000  Uiso   1.00
Zn1059 Zn    0.87833   0.86331   0.71188   0.00000  Uiso   1.00
Zn1060 Zn    0.79465   0.87202   0.78277   0.00000  Uiso   1.00
Br1061 Br    0.93783   0.75224   0.94616   0.00000  Uiso   1.00
Br1062 Br    0.88887   0.86256   0.89643   0.00000  Uiso   1.00
loop_
_geom_bond_atom_site_label_1
_geom_bond_atom_site_label_2
_geom_bond_distance
_geom_bond_site_symmetry_2
_ccdc_geom_bond_type
C1     O44     1.271   .     A
C1     O46     1.270   .     A
C1     C19     1.438   .     S
C2     H38     1.083   .     S
C2     C26     1.401   .     A
C2     C28     1.390   .     A
C3     C4      1.418   .     A
C3     C26     1.406   .     A
C3     Br59    1.941   .     S
C4     C6      1.422   .     A
C4     C5      1.418   .     A
C5     C28     1.400   .     A
C5     C540    1.394   .     S
C6     C10     1.407   .     A
C6     C538    1.420   .     S
C7     C8      1.414   .     A
C7     C14     1.424   .     A
C7     C537    1.420   1_554 S
C8     H39     1.077   .     S
C8     C9      1.389   .     A
C9     H29     1.084   .     S
C9     C536    1.394   1_554 S
C10    C11     1.389   .     A
C10    H40     1.080   .     S
C11    Br58    1.924   .     S
C11    C544    1.404   .     S
C12    O47     1.278   .     A
C12    O45     1.281   .     A
C12    C18     1.455   .     S
C13    C14     1.426   .     A
C13    C15     1.408   .     A
C13    C542    1.404   1_554 S
C14    C17     1.410   .     A
C15    H30     1.081   .     S
C15    C16     1.390   .     A
C16    C27     1.393   .     A
C16    H36     1.084   .     S
C17    C27     1.391   .     A
C17    H35     1.078   .     S
C18    C78     1.335   .     S
C18    H90     1.088   .     S
C19    C136    1.335   1_455 S
C19    H150    1.086   1_455 S
C20    C23     1.452   .     S
C20    C198    1.332   .     S
C20    H210    1.088   .     S
C21    C22     1.436   .     S
C21    C374    1.332   1_545 S
C21    H388    1.086   1_545 S
C22    O48     1.277   .     A
C22    O42     1.277   .     A
C23    O49     1.271   .     A
C23    O43     1.271   .     A
C24    O52     1.273   .     A
C24    C27     1.452   .     S
C24    O50     1.274   .     A
C25    O51     1.282   .     A
C25    O53     1.284   .     A
C25    C26     1.469   .     S
C28    H37     1.084   .     S
H31    C136    1.088   1_455 S
H32    C78     1.086   .     S
H33    C374    1.088   1_545 S
H34    C198    1.086   .     S
O41    Zn56    1.933   .     S
O41    Zn57    1.933   .     S
O41    Zn55    1.943   .     S
O41    Zn54    1.959   .     S
O42    Zn54    1.928   .     S
O43    Zn57    1.930   .     S
O44    Zn55    1.928   .     S
O45    Zn56    1.937   .     S
O46    Zn57    1.932   .     S
O47    Zn54    1.924   .     S
O48    Zn55    1.936   .     S
O49    Zn56    1.931   .     S
O50    Zn55    1.931   .     S
O51    Zn57    1.940   .     S
O52    Zn56    1.935   .     S
O53    Zn54    1.927   .     S
C60    O103    1.271   .     A
C60    O105    1.270   .     A
C60    C78     1.438   .     S
C61    H97     1.083   .     S
C61    C85     1.401   .     A
C61    C87     1.390   .     A
C62    C63     1.418   .     A
C62    C85     1.406   .     A
C62    Br118   1.941   .     S
C63    C65     1.422   .     A
C63    C64     1.418   .     A
C64    C87     1.400   .     A
C64    C599    1.394   .     S
C65    C69     1.407   .     A
C65    C597    1.420   .     S
C66    C67     1.414   .     A
C66    C73     1.424   .     A
C66    C596    1.420   1_554 S
C67    H98     1.077   .     S
C67    C68     1.389   .     A
C68    H88     1.084   .     S
C68    C595    1.394   1_554 S
C69    C70     1.389   .     A
C69    H99     1.080   .     S
C70    Br117   1.924   .     S
C70    C603    1.404   .     S
C71    O106    1.278   .     A
C71    O104    1.281   .     A
C71    C77     1.455   .     S
C72    C73     1.426   .     A
C72    C74     1.408   .     A
C72    C601    1.404   1_554 S
C73    C76     1.410   .     A
C74    H89     1.081   .     S
C74    C75     1.390   .     A
C75    C86     1.393   .     A
C75    H95     1.084   .     S
C76    C86     1.391   .     A
C76    H94     1.078   .     S
C77    C137    1.335   .     S
C77    H149    1.088   .     S
C79    C82     1.452   .     S
C79    C257    1.332   .     S
C79    H269    1.088   .     S
C80    C81     1.436   .     S
C80    C433    1.332   1_545 S
C80    H447    1.086   1_545 S
C81    O107    1.277   .     A
C81    O101    1.277   .     A
C82    O108    1.271   .     A
C82    O102    1.271   .     A
C83    O111    1.273   .     A
C83    C86     1.452   .     S
C83    O109    1.274   .     A
C84    O110    1.282   .     A
C84    O112    1.284   .     A
C84    C85     1.469   .     S
C87    H96     1.084   .     S
H91    C137    1.086   .     S
H92    C433    1.088   1_545 S
H93    C257    1.086   .     S
O100   Zn115   1.933   .     S
O100   Zn116   1.933   .     S
O100   Zn114   1.943   .     S
O100   Zn113   1.959   .     S
O101   Zn113   1.928   .     S
O102   Zn116   1.930   .     S
O103   Zn114   1.928   .     S
O104   Zn115   1.937   .     S
O105   Zn116   1.932   .     S
O106   Zn113   1.924   .     S
O107   Zn114   1.936   .     S
O108   Zn115   1.931   .     S
O109   Zn114   1.931   .     S
O110   Zn116   1.940   .     S
O111   Zn115   1.935   .     S
O112   Zn113   1.927   .     S
C119   O162    1.271   .     A
C119   O164    1.270   .     A
C119   C137    1.438   .     S
C120   H156    1.083   .     S
C120   C144    1.401   .     A
C120   C146    1.390   .     A
C121   C122    1.418   .     A
C121   C144    1.406   .     A
C121   Br177   1.941   .     S
C122   C124    1.422   .     A
C122   C123    1.418   .     A
C123   C146    1.400   .     A
C123   C658    1.394   .     S
C124   C128    1.407   .     A
C124   C656    1.420   .     S
C125   C126    1.414   .     A
C125   C132    1.424   .     A
C125   C655    1.420   1_554 S
C126   H157    1.077   .     S
C126   C127    1.389   .     A
C127   H147    1.084   .     S
C127   C654    1.394   1_554 S
C128   C129    1.389   .     A
C128   H158    1.080   .     S
C129   Br176   1.924   .     S
C129   C662    1.404   .     S
C130   O165    1.278   .     A
C130   O163    1.281   .     A
C130   C136    1.455   .     S
C131   C132    1.426   .     A
C131   C133    1.408   .     A
C131   C660    1.404   1_554 S
C132   C135    1.410   .     A
C133   H148    1.081   .     S
C133   C134    1.390   .     A
C134   C145    1.393   .     A
C134   H154    1.084   .     S
C135   C145    1.391   .     A
C135   H153    1.078   .     S
C136   C19     1.335   1_655 S
C136   H31     1.088   1_655 S
C138   C141    1.452   .     S
C138   C316    1.332   .     S
C138   H328    1.088   .     S
C139   C140    1.436   .     S
C139   C492    1.332   1_545 S
C139   H506    1.086   1_545 S
C140   O166    1.277   .     A
C140   O160    1.277   .     A
C141   O167    1.271   .     A
C141   O161    1.271   .     A
C142   O170    1.273   .     A
C142   C145    1.452   .     S
C142   O168    1.274   .     A
C143   O169    1.282   .     A
C143   O171    1.284   .     A
C143   C144    1.469   .     S
C146   H155    1.084   .     S
H150   C19     1.086   1_655 S
H151   C492    1.088   1_545 S
H152   C316    1.086   .     S
O159   Zn174   1.933   .     S
O159   Zn175   1.933   .     S
O159   Zn173   1.943   .     S
O159   Zn172   1.959   .     S
O160   Zn172   1.928   .     S
O161   Zn175   1.930   .     S
O162   Zn173   1.928   .     S
O163   Zn174   1.937   .     S
O164   Zn175   1.932   .     S
O165   Zn172   1.924   .     S
O166   Zn173   1.936   .     S
O167   Zn174   1.931   .     S
O168   Zn173   1.931   .     S
O169   Zn175   1.940   .     S
O170   Zn174   1.935   .     S
O171   Zn172   1.927   .     S
C178   O221    1.271   .     A
C178   O223    1.270   .     A
C178   C196    1.438   .     S
C179   H215    1.083   .     S
C179   C203    1.401   .     A
C179   C205    1.390   .     A
C180   C181    1.418   .     A
C180   C203    1.406   .     A
C180   Br236   1.941   .     S
C181   C183    1.422   .     A
C181   C182    1.418   .     A
C182   C205    1.400   .     A
C182   C717    1.394   .     S
C183   C187    1.407   .     A
C183   C715    1.420   .     S
C184   C185    1.414   .     A
C184   C191    1.424   .     A
C184   C714    1.420   1_554 S
C185   H216    1.077   .     S
C185   C186    1.389   .     A
C186   H206    1.084   .     S
C186   C713    1.394   1_554 S
C187   C188    1.389   .     A
C187   H217    1.080   .     S
C188   Br235   1.924   .     S
C188   C721    1.404   .     S
C189   O224    1.278   .     A
C189   O222    1.281   .     A
C189   C195    1.455   .     S
C190   C191    1.426   .     A
C190   C192    1.408   .     A
C190   C719    1.404   1_554 S
C191   C194    1.410   .     A
C192   H207    1.081   .     S
C192   C193    1.390   .     A
C193   C204    1.393   .     A
C193   H213    1.084   .     S
C194   C204    1.391   .     A
C194   H212    1.078   .     S
C195   C255    1.335   .     S
C195   H267    1.088   .     S
C196   C313    1.335   1_455 S
C196   H327    1.086   1_455 S
C197   C200    1.452   .     S
C197   C375    1.332   .     S
C197   H387    1.088   .     S
C198   C199    1.436   .     S
C199   O225    1.277   .     A
C199   O219    1.277   .     A
C200   O226    1.271   .     A
C200   O220    1.271   .     A
C201   O229    1.273   .     A
C201   C204    1.452   .     S
C201   O227    1.274   .     A
C202   O228    1.282   .     A
C202   O230    1.284   .     A
C202   C203    1.469   .     S
C205   H214    1.084   .     S
H208   C313    1.088   1_455 S
H209   C255    1.086   .     S
H211   C375    1.086   .     S
O218   Zn233   1.933   .     S
O218   Zn234   1.933   .     S
O218   Zn232   1.943   .     S
O218   Zn231   1.959   .     S
O219   Zn231   1.928   .     S
O220   Zn234   1.930   .     S
O221   Zn232   1.928   .     S
O222   Zn233   1.937   .     S
O223   Zn234   1.932   .     S
O224   Zn231   1.924   .     S
O225   Zn232   1.936   .     S
O226   Zn233   1.931   .     S
O227   Zn232   1.931   .     S
O228   Zn234   1.940   .     S
O229   Zn233   1.935   .     S
O230   Zn231   1.927   .     S
C237   O280    1.271   .     A
C237   O282    1.270   .     A
C237   C255    1.438   .     S
C238   H274    1.083   .     S
C238   C262    1.401   .     A
C238   C264    1.390   .     A
C239   C240    1.418   .     A
C239   C262    1.406   .     A
C239   Br295   1.941   .     S
C240   C242    1.422   .     A
C240   C241    1.418   .     A
C241   C264    1.400   .     A
C241   C776    1.394   .     S
C242   C246    1.407   .     A
C242   C774    1.420   .     S
C243   C244    1.414   .     A
C243   C250    1.424   .     A
C243   C773    1.420   1_554 S
C244   H275    1.077   .     S
C244   C245    1.389   .     A
C245   H265    1.084   .     S
C245   C772    1.394   1_554 S
C246   C247    1.389   .     A
C246   H276    1.080   .     S
C247   Br294   1.924   .     S
C247   C780    1.404   .     S
C248   O283    1.278   .     A
C248   O281    1.281   .     A
C248   C254    1.455   .     S
C249   C250    1.426   .     A
C249   C251    1.408   .     A
C249   C778    1.404   1_554 S
C250   C253    1.410   .     A
C251   H266    1.081   .     S
C251   C252    1.390   .     A
C252   C263    1.393   .     A
C252   H272    1.084   .     S
C253   C263    1.391   .     A
C253   H271    1.078   .     S
C254   C314    1.335   .     S
C254   H326    1.088   .     S
C256   C259    1.452   .     S
C256   C434    1.332   .     S
C256   H446    1.088   .     S
C257   C258    1.436   .     S
C258   O284    1.277   .     A
C258   O278    1.277   .     A
C259   O285    1.271   .     A
C259   O279    1.271   .     A
C260   O288    1.273   .     A
C260   C263    1.452   .     S
C260   O286    1.274   .     A
C261   O287    1.282   .     A
C261   O289    1.284   .     A
C261   C262    1.469   .     S
C264   H273    1.084   .     S
H268   C314    1.086   .     S
H270   C434    1.086   .     S
O277   Zn292   1.933   .     S
O277   Zn293   1.933   .     S
O277   Zn291   1.943   .     S
O277   Zn290   1.959   .     S
O278   Zn290   1.928   .     S
O279   Zn293   1.930   .     S
O280   Zn291   1.928   .     S
O281   Zn292   1.937   .     S
O282   Zn293   1.932   .     S
O283   Zn290   1.924   .     S
O284   Zn291   1.936   .     S
O285   Zn292   1.931   .     S
O286   Zn291   1.931   .     S
O287   Zn293   1.940   .     S
O288   Zn292   1.935   .     S
O289   Zn290   1.927   .     S
C296   O339    1.271   .     A
C296   O341    1.270   .     A
C296   C314    1.438   .     S
C297   H333    1.083   .     S
C297   C321    1.401   .     A
C297   C323    1.390   .     A
C298   C299    1.418   .     A
C298   C321    1.406   .     A
C298   Br354   1.941   .     S
C299   C301    1.422   .     A
C299   C300    1.418   .     A
C300   C323    1.400   .     A
C300   C835    1.394   .     S
C301   C305    1.407   .     A
C301   C833    1.420   .     S
C302   C303    1.414   .     A
C302   C309    1.424   .     A
C302   C832    1.420   1_554 S
C303   H334    1.077   .     S
C303   C304    1.389   .     A
C304   H324    1.084   .     S
C304   C831    1.394   1_554 S
C305   C306    1.389   .     A
C305   H335    1.080   .     S
C306   Br353   1.924   .     S
C306   C839    1.404   .     S
C307   O342    1.278   .     A
C307   O340    1.281   .     A
C307   C313    1.455   .     S
C308   C309    1.426   .     A
C308   C310    1.408   .     A
C308   C837    1.404   1_554 S
C309   C312    1.410   .     A
C310   H325    1.081   .     S
C310   C311    1.390   .     A
C311   C322    1.393   .     A
C311   H331    1.084   .     S
C312   C322    1.391   .     A
C312   H330    1.078   .     S
C313   C196    1.335   1_655 S
C313   H208    1.088   1_655 S
C315   C318    1.452   .     S
C315   C493    1.332   .     S
C315   H505    1.088   .     S
C316   C317    1.436   .     S
C317   O343    1.277   .     A
C317   O337    1.277   .     A
C318   O344    1.271   .     A
C318   O338    1.271   .     A
C319   O347    1.273   .     A
C319   C322    1.452   .     S
C319   O345    1.274   .     A
C320   O346    1.282   .     A
C320   O348    1.284   .     A
C320   C321    1.469   .     S
C323   H332    1.084   .     S
H327   C196    1.086   1_655 S
H329   C493    1.086   .     S
O336   Zn351   1.933   .     S
O336   Zn352   1.933   .     S
O336   Zn350   1.943   .     S
O336   Zn349   1.959   .     S
O337   Zn349   1.928   .     S
O338   Zn352   1.930   .     S
O339   Zn350   1.928   .     S
O340   Zn351   1.937   .     S
O341   Zn352   1.932   .     S
O342   Zn349   1.924   .     S
O343   Zn350   1.936   .     S
O344   Zn351   1.931   .     S
O345   Zn350   1.931   .     S
O346   Zn352   1.940   .     S
O347   Zn351   1.935   .     S
O348   Zn349   1.927   .     S
C355   O398    1.271   .     A
C355   O400    1.270   .     A
C355   C373    1.438   .     S
C356   H392    1.083   .     S
C356   C380    1.401   .     A
C356   C382    1.390   .     A
C357   C358    1.418   .     A
C357   C380    1.406   .     A
C357   Br413   1.941   .     S
C358   C360    1.422   .     A
C358   C359    1.418   .     A
C359   C382    1.400   .     A
C359   C894    1.394   .     S
C360   C364    1.407   .     A
C360   C892    1.420   .     S
C361   C362    1.414   .     A
C361   C368    1.424   .     A
C361   C891    1.420   1_554 S
C362   H393    1.077   .     S
C362   C363    1.389   .     A
C363   H383    1.084   .     S
C363   C890    1.394   1_554 S
C364   C365    1.389   .     A
C364   H394    1.080   .     S
C365   Br412   1.924   .     S
C365   C898    1.404   .     S
C366   O401    1.278   .     A
C366   O399    1.281   .     A
C366   C372    1.455   .     S
C367   C368    1.426   .     A
C367   C369    1.408   .     A
C367   C896    1.404   1_554 S
C368   C371    1.410   .     A
C369   H384    1.081   .     S
C369   C370    1.390   .     A
C370   C381    1.393   .     A
C370   H390    1.084   .     S
C371   C381    1.391   .     A
C371   H389    1.078   .     S
C372   C432    1.335   .     S
C372   H444    1.088   .     S
C373   C490    1.335   1_455 S
C373   H504    1.086   1_455 S
C374   C377    1.452   .     S
C374   C21     1.332   1_565 S
C374   H33     1.088   1_565 S
C375   C376    1.436   .     S
C376   O402    1.277   .     A
C376   O396    1.277   .     A
C377   O403    1.271   .     A
C377   O397    1.271   .     A
C378   O406    1.273   .     A
C378   C381    1.452   .     S
C378   O404    1.274   .     A
C379   O405    1.282   .     A
C379   O407    1.284   .     A
C379   C380    1.469   .     S
C382   H391    1.084   .     S
H385   C490    1.088   1_455 S
H386   C432    1.086   .     S
H388   C21     1.086   1_565 S
O395   Zn410   1.933   .     S
O395   Zn411   1.933   .     S
O395   Zn409   1.943   .     S
O395   Zn408   1.959   .     S
O396   Zn408   1.928   .     S
O397   Zn411   1.930   .     S
O398   Zn409   1.928   .     S
O399   Zn410   1.937   .     S
O400   Zn411   1.932   .     S
O401   Zn408   1.924   .     S
O402   Zn409   1.936   .     S
O403   Zn410   1.931   .     S
O404   Zn409   1.931   .     S
O405   Zn411   1.940   .     S
O406   Zn410   1.935   .     S
O407   Zn408   1.927   .     S
C414   O457    1.271   .     A
C414   O459    1.270   .     A
C414   C432    1.438   .     S
C415   H451    1.083   .     S
C415   C439    1.401   .     A
C415   C441    1.390   .     A
C416   C417    1.418   .     A
C416   C439    1.406   .     A
C416   Br472   1.941   .     S
C417   C419    1.422   .     A
C417   C418    1.418   .     A
C418   C441    1.400   .     A
C418   C953    1.394   .     S
C419   C423    1.407   .     A
C419   C951    1.420   .     S
C420   C421    1.414   .     A
C420   C427    1.424   .     A
C420   C950    1.420   1_554 S
C421   H452    1.077   .     S
C421   C422    1.389   .     A
C422   H442    1.084   .     S
C422   C949    1.394   1_554 S
C423   C424    1.389   .     A
C423   H453    1.080   .     S
C424   Br471   1.924   .     S
C424   C957    1.404   .     S
C425   O460    1.278   .     A
C425   O458    1.281   .     A
C425   C431    1.455   .     S
C426   C427    1.426   .     A
C426   C428    1.408   .     A
C426   C955    1.404   1_554 S
C427   C430    1.410   .     A
C428   H443    1.081   .     S
C428   C429    1.390   .     A
C429   C440    1.393   .     A
C429   H449    1.084   .     S
C430   C440    1.391   .     A
C430   H448    1.078   .     S
C431   C491    1.335   .     S
C431   H503    1.088   .     S
C433   C436    1.452   .     S
C433   C80     1.332   1_565 S
C433   H92     1.088   1_565 S
C434   C435    1.436   .     S
C435   O461    1.277   .     A
C435   O455    1.277   .     A
C436   O462    1.271   .     A
C436   O456    1.271   .     A
C437   O465    1.273   .     A
C437   C440    1.452   .     S
C437   O463    1.274   .     A
C438   O464    1.282   .     A
C438   O466    1.284   .     A
C438   C439    1.469   .     S
C441   H450    1.084   .     S
H445   C491    1.086   .     S
H447   C80     1.086   1_565 S
O454   Zn469   1.933   .     S
O454   Zn470   1.933   .     S
O454   Zn468   1.943   .     S
O454   Zn467   1.959   .     S
O455   Zn467   1.928   .     S
O456   Zn470   1.930   .     S
O457   Zn468   1.928   .     S
O458   Zn469   1.937   .     S
O459   Zn470   1.932   .     S
O460   Zn467   1.924   .     S
O461   Zn468   1.936   .     S
O462   Zn469   1.931   .     S
O463   Zn468   1.931   .     S
O464   Zn470   1.940   .     S
O465   Zn469   1.935   .     S
O466   Zn467   1.927   .     S
C473   O516    1.271   .     A
C473   O518    1.270   .     A
C473   C491    1.438   .     S
C474   H510    1.083   .     S
C474   C498    1.401   .     A
C474   C500    1.390   .     A
C475   C476    1.418   .     A
C475   C498    1.406   .     A
C475   Br531   1.941   .     S
C476   C478    1.422   .     A
C476   C477    1.418   .     A
C477   C500    1.400   .     A
C477   C1012   1.394   .     S
C478   C482    1.407   .     A
C478   C1010   1.420   .     S
C479   C480    1.414   .     A
C479   C486    1.424   .     A
C479   C1009   1.420   1_554 S
C480   H511    1.077   .     S
C480   C481    1.389   .     A
C481   H501    1.084   .     S
C481   C1008   1.394   1_554 S
C482   C483    1.389   .     A
C482   H512    1.080   .     S
C483   Br530   1.924   .     S
C483   C1016   1.404   .     S
C484   O519    1.278   .     A
C484   O517    1.281   .     A
C484   C490    1.455   .     S
C485   C486    1.426   .     A
C485   C487    1.408   .     A
C485   C1014   1.404   1_554 S
C486   C489    1.410   .     A
C487   H502    1.081   .     S
C487   C488    1.390   .     A
C488   C499    1.393   .     A
C488   H508    1.084   .     S
C489   C499    1.391   .     A
C489   H507    1.078   .     S
C490   C373    1.335   1_655 S
C490   H385    1.088   1_655 S
C492   C495    1.452   .     S
C492   C139    1.332   1_565 S
C492   H151    1.088   1_565 S
C493   C494    1.436   .     S
C494   O520    1.277   .     A
C494   O514    1.277   .     A
C495   O521    1.271   .     A
C495   O515    1.271   .     A
C496   O524    1.273   .     A
C496   C499    1.452   .     S
C496   O522    1.274   .     A
C497   O523    1.282   .     A
C497   O525    1.284   .     A
C497   C498    1.469   .     S
C500   H509    1.084   .     S
H504   C373    1.086   1_655 S
H506   C139    1.086   1_565 S
O513   Zn528   1.933   .     S
O513   Zn529   1.933   .     S
O513   Zn527   1.943   .     S
O513   Zn526   1.959   .     S
O514   Zn526   1.928   .     S
O515   Zn529   1.930   .     S
O516   Zn527   1.928   .     S
O517   Zn528   1.937   .     S
O518   Zn529   1.932   .     S
O519   Zn526   1.924   .     S
O520   Zn527   1.936   .     S
O521   Zn528   1.931   .     S
O522   Zn527   1.931   .     S
O523   Zn529   1.940   .     S
O524   Zn528   1.935   .     S
O525   Zn526   1.927   .     S
C532   O575    1.271   .     A
C532   O577    1.270   .     A
C532   C550    1.438   .     S
C533   H569    1.083   .     S
C533   C557    1.401   .     A
C533   C559    1.390   .     A
C534   C535    1.418   .     A
C534   C557    1.406   .     A
C534   Br590   1.941   .     S
C535   C537    1.422   .     A
C535   C536    1.418   .     A
C536   C559    1.400   .     A
C536   C9      1.394   1_556 S
C537   C541    1.407   .     A
C537   C7      1.420   1_556 S
C538   C539    1.414   .     A
C538   C545    1.424   .     A
C539   H570    1.077   .     S
C539   C540    1.389   .     A
C540   H560    1.084   .     S
C541   C542    1.389   .     A
C541   H571    1.080   .     S
C542   Br589   1.924   .     S
C542   C13     1.404   1_556 S
C543   O578    1.278   .     A
C543   O576    1.281   .     A
C543   C549    1.455   .     S
C544   C545    1.426   .     A
C544   C546    1.408   .     A
C545   C548    1.410   .     A
C546   H561    1.081   .     S
C546   C547    1.390   .     A
C547   C558    1.393   .     A
C547   H567    1.084   .     S
C548   C558    1.391   .     A
C548   H566    1.078   .     S
C549   C609    1.335   .     S
C549   H621    1.088   .     S
C550   C667    1.335   1_455 S
C550   H681    1.086   1_455 S
C551   C554    1.452   .     S
C551   C729    1.332   .     S
C551   H741    1.088   .     S
C552   C553    1.436   .     S
C552   C905    1.332   1_545 S
C552   H919    1.086   1_545 S
C553   O579    1.277   .     A
C553   O573    1.277   .     A
C554   O580    1.271   .     A
C554   O574    1.271   .     A
C555   O583    1.273   .     A
C555   C558    1.452   .     S
C555   O581    1.274   .     A
C556   O582    1.282   .     A
C556   O584    1.284   .     A
C556   C557    1.469   .     S
C559   H568    1.084   .     S
H562   C667    1.088   1_455 S
H563   C609    1.086   .     S
H564   C905    1.088   1_545 S
H565   C729    1.086   .     S
O572   Zn587   1.933   .     S
O572   Zn588   1.933   .     S
O572   Zn586   1.943   .     S
O572   Zn585   1.959   .     S
O573   Zn585   1.928   .     S
O574   Zn588   1.930   .     S
O575   Zn586   1.928   .     S
O576   Zn587   1.937   .     S
O577   Zn588   1.932   .     S
O578   Zn585   1.924   .     S
O579   Zn586   1.936   .     S
O580   Zn587   1.931   .     S
O581   Zn586   1.931   .     S
O582   Zn588   1.940   .     S
O583   Zn587   1.935   .     S
O584   Zn585   1.927   .     S
C591   O634    1.271   .     A
C591   O636    1.270   .     A
C591   C609    1.438   .     S
C592   H628    1.083   .     S
C592   C616    1.401   .     A
C592   C618    1.390   .     A
C593   C594    1.418   .     A
C593   C616    1.406   .     A
C593   Br649   1.941   .     S
C594   C596    1.422   .     A
C594   C595    1.418   .     A
C595   C618    1.400   .     A
C595   C68     1.394   1_556 S
C596   C600    1.407   .     A
C596   C66     1.420   1_556 S
C597   C598    1.414   .     A
C597   C604    1.424   .     A
C598   H629    1.077   .     S
C598   C599    1.389   .     A
C599   H619    1.084   .     S
C600   C601    1.389   .     A
C600   H630    1.080   .     S
C601   Br648   1.924   .     S
C601   C72     1.404   1_556 S
C602   O637    1.278   .     A
C602   O635    1.281   .     A
C602   C608    1.455   .     S
C603   C604    1.426   .     A
C603   C605    1.408   .     A
C604   C607    1.410   .     A
C605   H620    1.081   .     S
C605   C606    1.390   .     A
C606   C617    1.393   .     A
C606   H626    1.084   .     S
C607   C617    1.391   .     A
C607   H625    1.078   .     S
C608   C668    1.335   .     S
C608   H680    1.088   .     S
C610   C613    1.452   .     S
C610   C788    1.332   .     S
C610   H800    1.088   .     S
C611   C612    1.436   .     S
C611   C964    1.332   1_545 S
C611   H978    1.086   1_545 S
C612   O638    1.277   .     A
C612   O632    1.277   .     A
C613   O639    1.271   .     A
C613   O633    1.271   .     A
C614   O642    1.273   .     A
C614   C617    1.452   .     S
C614   O640    1.274   .     A
C615   O641    1.282   .     A
C615   O643    1.284   .     A
C615   C616    1.469   .     S
C618   H627    1.084   .     S
H622   C668    1.086   .     S
H623   C964    1.088   1_545 S
H624   C788    1.086   .     S
O631   Zn646   1.933   .     S
O631   Zn647   1.933   .     S
O631   Zn645   1.943   .     S
O631   Zn644   1.959   .     S
O632   Zn644   1.928   .     S
O633   Zn647   1.930   .     S
O634   Zn645   1.928   .     S
O635   Zn646   1.937   .     S
O636   Zn647   1.932   .     S
O637   Zn644   1.924   .     S
O638   Zn645   1.936   .     S
O639   Zn646   1.931   .     S
O640   Zn645   1.931   .     S
O641   Zn647   1.940   .     S
O642   Zn646   1.935   .     S
O643   Zn644   1.927   .     S
C650   O693    1.271   .     A
C650   O695    1.270   .     A
C650   C668    1.438   .     S
C651   H687    1.083   .     S
C651   C675    1.401   .     A
C651   C677    1.390   .     A
C652   C653    1.418   .     A
C652   C675    1.406   .     A
C652   Br708   1.941   .     S
C653   C655    1.422   .     A
C653   C654    1.418   .     A
C654   C677    1.400   .     A
C654   C127    1.394   1_556 S
C655   C659    1.407   .     A
C655   C125    1.420   1_556 S
C656   C657    1.414   .     A
C656   C663    1.424   .     A
C657   H688    1.077   .     S
C657   C658    1.389   .     A
C658   H678    1.084   .     S
C659   C660    1.389   .     A
C659   H689    1.080   .     S
C660   Br707   1.924   .     S
C660   C131    1.404   1_556 S
C661   O696    1.278   .     A
C661   O694    1.281   .     A
C661   C667    1.455   .     S
C662   C663    1.426   .     A
C662   C664    1.408   .     A
C663   C666    1.410   .     A
C664   H679    1.081   .     S
C664   C665    1.390   .     A
C665   C676    1.393   .     A
C665   H685    1.084   .     S
C666   C676    1.391   .     A
C666   H684    1.078   .     S
C667   C550    1.335   1_655 S
C667   H562    1.088   1_655 S
C669   C672    1.452   .     S
C669   C847    1.332   .     S
C669   H859    1.088   .     S
C670   C671    1.436   .     S
C670   C1023   1.332   1_545 S
C670   H1037   1.086   1_545 S
C671   O697    1.277   .     A
C671   O691    1.277   .     A
C672   O698    1.271   .     A
C672   O692    1.271   .     A
C673   O701    1.273   .     A
C673   C676    1.452   .     S
C673   O699    1.274   .     A
C674   O700    1.282   .     A
C674   O702    1.284   .     A
C674   C675    1.469   .     S
C677   H686    1.084   .     S
H681   C550    1.086   1_655 S
H682   C1023   1.088   1_545 S
H683   C847    1.086   .     S
O690   Zn705   1.933   .     S
O690   Zn706   1.933   .     S
O690   Zn704   1.943   .     S
O690   Zn703   1.959   .     S
O691   Zn703   1.928   .     S
O692   Zn706   1.930   .     S
O693   Zn704   1.928   .     S
O694   Zn705   1.937   .     S
O695   Zn706   1.932   .     S
O696   Zn703   1.924   .     S
O697   Zn704   1.936   .     S
O698   Zn705   1.931   .     S
O699   Zn704   1.931   .     S
O700   Zn706   1.940   .     S
O701   Zn705   1.935   .     S
O702   Zn703   1.927   .     S
C709   O752    1.271   .     A
C709   O754    1.270   .     A
C709   C727    1.438   .     S
C710   H746    1.083   .     S
C710   C734    1.401   .     A
C710   C736    1.390   .     A
C711   C712    1.418   .     A
C711   C734    1.406   .     A
C711   Br767   1.941   .     S
C712   C714    1.422   .     A
C712   C713    1.418   .     A
C713   C736    1.400   .     A
C713   C186    1.394   1_556 S
C714   C718    1.407   .     A
C714   C184    1.420   1_556 S
C715   C716    1.414   .     A
C715   C722    1.424   .     A
C716   H747    1.077   .     S
C716   C717    1.389   .     A
C717   H737    1.084   .     S
C718   C719    1.389   .     A
C718   H748    1.080   .     S
C719   Br766   1.924   .     S
C719   C190    1.404   1_556 S
C720   O755    1.278   .     A
C720   O753    1.281   .     A
C720   C726    1.455   .     S
C721   C722    1.426   .     A
C721   C723    1.408   .     A
C722   C725    1.410   .     A
C723   H738    1.081   .     S
C723   C724    1.390   .     A
C724   C735    1.393   .     A
C724   H744    1.084   .     S
C725   C735    1.391   .     A
C725   H743    1.078   .     S
C726   C786    1.335   .     S
C726   H798    1.088   .     S
C727   C844    1.335   1_455 S
C727   H858    1.086   1_455 S
C728   C731    1.452   .     S
C728   C906    1.332   .     S
C728   H918    1.088   .     S
C729   C730    1.436   .     S
C730   O756    1.277   .     A
C730   O750    1.277   .     A
C731   O757    1.271   .     A
C731   O751    1.271   .     A
C732   O760    1.273   .     A
C732   C735    1.452   .     S
C732   O758    1.274   .     A
C733   O759    1.282   .     A
C733   O761    1.284   .     A
C733   C734    1.469   .     S
C736   H745    1.084   .     S
H739   C844    1.088   1_455 S
H740   C786    1.086   .     S
H742   C906    1.086   .     S
O749   Zn764   1.933   .     S
O749   Zn765   1.933   .     S
O749   Zn763   1.943   .     S
O749   Zn762   1.959   .     S
O750   Zn762   1.928   .     S
O751   Zn765   1.930   .     S
O752   Zn763   1.928   .     S
O753   Zn764   1.937   .     S
O754   Zn765   1.932   .     S
O755   Zn762   1.924   .     S
O756   Zn763   1.936   .     S
O757   Zn764   1.931   .     S
O758   Zn763   1.931   .     S
O759   Zn765   1.940   .     S
O760   Zn764   1.935   .     S
O761   Zn762   1.927   .     S
C768   O811    1.271   .     A
C768   O813    1.270   .     A
C768   C786    1.438   .     S
C769   H805    1.083   .     S
C769   C793    1.401   .     A
C769   C795    1.390   .     A
C770   C771    1.418   .     A
C770   C793    1.406   .     A
C770   Br826   1.941   .     S
C771   C773    1.422   .     A
C771   C772    1.418   .     A
C772   C795    1.400   .     A
C772   C245    1.394   1_556 S
C773   C777    1.407   .     A
C773   C243    1.420   1_556 S
C774   C775    1.414   .     A
C774   C781    1.424   .     A
C775   H806    1.077   .     S
C775   C776    1.389   .     A
C776   H796    1.084   .     S
C777   C778    1.389   .     A
C777   H807    1.080   .     S
C778   Br825   1.924   .     S
C778   C249    1.404   1_556 S
C779   O814    1.278   .     A
C779   O812    1.281   .     A
C779   C785    1.455   .     S
C780   C781    1.426   .     A
C780   C782    1.408   .     A
C781   C784    1.410   .     A
C782   H797    1.081   .     S
C782   C783    1.390   .     A
C783   C794    1.393   .     A
C783   H803    1.084   .     S
C784   C794    1.391   .     A
C784   H802    1.078   .     S
C785   C845    1.335   .     S
C785   H857    1.088   .     S
C787   C790    1.452   .     S
C787   C965    1.332   .     S
C787   H977    1.088   .     S
C788   C789    1.436   .     S
C789   O815    1.277   .     A
C789   O809    1.277   .     A
C790   O816    1.271   .     A
C790   O810    1.271   .     A
C791   O819    1.273   .     A
C791   C794    1.452   .     S
C791   O817    1.274   .     A
C792   O818    1.282   .     A
C792   O820    1.284   .     A
C792   C793    1.469   .     S
C795   H804    1.084   .     S
H799   C845    1.086   .     S
H801   C965    1.086   .     S
O808   Zn823   1.933   .     S
O808   Zn824   1.933   .     S
O808   Zn822   1.943   .     S
O808   Zn821   1.959   .     S
O809   Zn821   1.928   .     S
O810   Zn824   1.930   .     S
O811   Zn822   1.928   .     S
O812   Zn823   1.937   .     S
O813   Zn824   1.932   .     S
O814   Zn821   1.924   .     S
O815   Zn822   1.936   .     S
O816   Zn823   1.931   .     S
O817   Zn822   1.931   .     S
O818   Zn824   1.940   .     S
O819   Zn823   1.935   .     S
O820   Zn821   1.927   .     S
C827   O870    1.271   .     A
C827   O872    1.270   .     A
C827   C845    1.438   .     S
C828   H864    1.083   .     S
C828   C852    1.401   .     A
C828   C854    1.390   .     A
C829   C830    1.418   .     A
C829   C852    1.406   .     A
C829   Br885   1.941   .     S
C830   C832    1.422   .     A
C830   C831    1.418   .     A
C831   C854    1.400   .     A
C831   C304    1.394   1_556 S
C832   C836    1.407   .     A
C832   C302    1.420   1_556 S
C833   C834    1.414   .     A
C833   C840    1.424   .     A
C834   H865    1.077   .     S
C834   C835    1.389   .     A
C835   H855    1.084   .     S
C836   C837    1.389   .     A
C836   H866    1.080   .     S
C837   Br884   1.924   .     S
C837   C308    1.404   1_556 S
C838   O873    1.278   .     A
C838   O871    1.281   .     A
C838   C844    1.455   .     S
C839   C840    1.426   .     A
C839   C841    1.408   .     A
C840   C843    1.410   .     A
C841   H856    1.081   .     S
C841   C842    1.390   .     A
C842   C853    1.393   .     A
C842   H862    1.084   .     S
C843   C853    1.391   .     A
C843   H861    1.078   .     S
C844   C727    1.335   1_655 S
C844   H739    1.088   1_655 S
C846   C849    1.452   .     S
C846   C1024   1.332   .     S
C846   H1036   1.088   .     S
C847   C848    1.436   .     S
C848   O874    1.277   .     A
C848   O868    1.277   .     A
C849   O875    1.271   .     A
C849   O869    1.271   .     A
C850   O878    1.273   .     A
C850   C853    1.452   .     S
C850   O876    1.274   .     A
C851   O877    1.282   .     A
C851   O879    1.284   .     A
C851   C852    1.469   .     S
C854   H863    1.084   .     S
H858   C727    1.086   1_655 S
H860   C1024   1.086   .     S
O867   Zn882   1.933   .     S
O867   Zn883   1.933   .     S
O867   Zn881   1.943   .     S
O867   Zn880   1.959   .     S
O868   Zn880   1.928   .     S
O869   Zn883   1.930   .     S
O870   Zn881   1.928   .     S
O871   Zn882   1.937   .     S
O872   Zn883   1.932   .     S
O873   Zn880   1.924   .     S
O874   Zn881   1.936   .     S
O875   Zn882   1.931   .     S
O876   Zn881   1.931   .     S
O877   Zn883   1.940   .     S
O878   Zn882   1.935   .     S
O879   Zn880   1.927   .     S
C886   O929    1.271   .     A
C886   O931    1.270   .     A
C886   C904    1.438   .     S
C887   H923    1.083   .     S
C887   C911    1.401   .     A
C887   C913    1.390   .     A
C888   C889    1.418   .     A
C888   C911    1.406   .     A
C888   Br944   1.941   .     S
C889   C891    1.422   .     A
C889   C890    1.418   .     A
C890   C913    1.400   .     A
C890   C363    1.394   1_556 S
C891   C895    1.407   .     A
C891   C361    1.420   1_556 S
C892   C893    1.414   .     A
C892   C899    1.424   .     A
C893   H924    1.077   .     S
C893   C894    1.389   .     A
C894   H914    1.084   .     S
C895   C896    1.389   .     A
C895   H925    1.080   .     S
C896   Br943   1.924   .     S
C896   C367    1.404   1_556 S
C897   O932    1.278   .     A
C897   O930    1.281   .     A
C897   C903    1.455   .     S
C898   C899    1.426   .     A
C898   C900    1.408   .     A
C899   C902    1.410   .     A
C900   H915    1.081   .     S
C900   C901    1.390   .     A
C901   C912    1.393   .     A
C901   H921    1.084   .     S
C902   C912    1.391   .     A
C902   H920    1.078   .     S
C903   C963    1.335   .     S
C903   H975    1.088   .     S
C904   C1021   1.335   1_455 S
C904   H1035   1.086   1_455 S
C905   C908    1.452   .     S
C905   C552    1.332   1_565 S
C905   H564    1.088   1_565 S
C906   C907    1.436   .     S
C907   O933    1.277   .     A
C907   O927    1.277   .     A
C908   O934    1.271   .     A
C908   O928    1.271   .     A
C909   O937    1.273   .     A
C909   C912    1.452   .     S
C909   O935    1.274   .     A
C910   O936    1.282   .     A
C910   O938    1.284   .     A
C910   C911    1.469   .     S
C913   H922    1.084   .     S
H916   C1021   1.088   1_455 S
H917   C963    1.086   .     S
H919   C552    1.086   1_565 S
O926   Zn941   1.933   .     S
O926   Zn942   1.933   .     S
O926   Zn940   1.943   .     S
O926   Zn939   1.959   .     S
O927   Zn939   1.928   .     S
O928   Zn942   1.930   .     S
O929   Zn940   1.928   .     S
O930   Zn941   1.937   .     S
O931   Zn942   1.932   .     S
O932   Zn939   1.924   .     S
O933   Zn940   1.936   .     S
O934   Zn941   1.931   .     S
O935   Zn940   1.931   .     S
O936   Zn942   1.940   .     S
O937   Zn941   1.935   .     S
O938   Zn939   1.927   .     S
C945   O988    1.271   .     A
C945   O990    1.270   .     A
C945   C963    1.438   .     S
C946   H982    1.083   .     S
C946   C970    1.401   .     A
C946   C972    1.390   .     A
C947   C948    1.418   .     A
C947   C970    1.406   .     A
C947   Br1003  1.941   .     S
C948   C950    1.422   .     A
C948   C949    1.418   .     A
C949   C972    1.400   .     A
C949   C422    1.394   1_556 S
C950   C954    1.407   .     A
C950   C420    1.420   1_556 S
C951   C952    1.414   .     A
C951   C958    1.424   .     A
C952   H983    1.077   .     S
C952   C953    1.389   .     A
C953   H973    1.084   .     S
C954   C955    1.389   .     A
C954   H984    1.080   .     S
C955   Br1002  1.924   .     S
C955   C426    1.404   1_556 S
C956   O991    1.278   .     A
C956   O989    1.281   .     A
C956   C962    1.455   .     S
C957   C958    1.426   .     A
C957   C959    1.408   .     A
C958   C961    1.410   .     A
C959   H974    1.081   .     S
C959   C960    1.390   .     A
C960   C971    1.393   .     A
C960   H980    1.084   .     S
C961   C971    1.391   .     A
C961   H979    1.078   .     S
C962   C1022   1.335   .     S
C962   H1034   1.088   .     S
C964   C967    1.452   .     S
C964   C611    1.332   1_565 S
C964   H623    1.088   1_565 S
C965   C966    1.436   .     S
C966   O992    1.277   .     A
C966   O986    1.277   .     A
C967   O993    1.271   .     A
C967   O987    1.271   .     A
C968   O996    1.273   .     A
C968   C971    1.452   .     S
C968   O994    1.274   .     A
C969   O995    1.282   .     A
C969   O997    1.284   .     A
C969   C970    1.469   .     S
C972   H981    1.084   .     S
H976   C1022   1.086   .     S
H978   C611    1.086   1_565 S
O985   Zn1000  1.933   .     S
O985   Zn1001  1.933   .     S
O985   Zn999   1.943   .     S
O985   Zn998   1.959   .     S
O986   Zn998   1.928   .     S
O987   Zn1001  1.930   .     S
O988   Zn999   1.928   .     S
O989   Zn1000  1.937   .     S
O990   Zn1001  1.932   .     S
O991   Zn998   1.924   .     S
O992   Zn999   1.936   .     S
O993   Zn1000  1.931   .     S
O994   Zn999   1.931   .     S
O995   Zn1001  1.940   .     S
O996   Zn1000  1.935   .     S
O997   Zn998   1.927   .     S
C1004  O1047   1.271   .     A
C1004  O1049   1.270   .     A
C1004  C1022   1.438   .     S
C1005  H1041   1.083   .     S
C1005  C1029   1.401   .     A
C1005  C1031   1.390   .     A
C1006  C1007   1.418   .     A
C1006  C1029   1.406   .     A
C1006  Br1062  1.941   .     S
C1007  C1009   1.422   .     A
C1007  C1008   1.418   .     A
C1008  C1031   1.400   .     A
C1008  C481    1.394   1_556 S
C1009  C1013   1.407   .     A
C1009  C479    1.420   1_556 S
C1010  C1011   1.414   .     A
C1010  C1017   1.424   .     A
C1011  H1042   1.077   .     S
C1011  C1012   1.389   .     A
C1012  H1032   1.084   .     S
C1013  C1014   1.389   .     A
C1013  H1043   1.080   .     S
C1014  Br1061  1.924   .     S
C1014  C485    1.404   1_556 S
C1015  O1050   1.278   .     A
C1015  O1048   1.281   .     A
C1015  C1021   1.455   .     S
C1016  C1017   1.426   .     A
C1016  C1018   1.408   .     A
C1017  C1020   1.410   .     A
C1018  H1033   1.081   .     S
C1018  C1019   1.390   .     A
C1019  C1030   1.393   .     A
C1019  H1039   1.084   .     S
C1020  C1030   1.391   .     A
C1020  H1038   1.078   .     S
C1021  C904    1.335   1_655 S
C1021  H916    1.088   1_655 S
C1023  C1026   1.452   .     S
C1023  C670    1.332   1_565 S
C1023  H682    1.088   1_565 S
C1024  C1025   1.436   .     S
C1025  O1051   1.277   .     A
C1025  O1045   1.277   .     A
C1026  O1052   1.271   .     A
C1026  O1046   1.271   .     A
C1027  O1055   1.273   .     A
C1027  C1030   1.452   .     S
C1027  O1053   1.274   .     A
C1028  O1054   1.282   .     A
C1028  O1056   1.284   .     A
C1028  C1029   1.469   .     S
C1031  H1040   1.084   .     S
H1035  C904    1.086   1_655 S
H1037  C670    1.086   1_565 S
O1044  Zn1059  1.933   .     S
O1044  Zn1060  1.933   .     S
O1044  Zn1058  1.943   .     S
O1044  Zn1057  1.959   .     S
O1045  Zn1057  1.928   .     S
O1046  Zn1060  1.930   .     S
O1047  Zn1058  1.928   .     S
O1048  Zn1059  1.937   .     S
O1049  Zn1060  1.932   .     S
O1050  Zn1057  1.924   .     S
O1051  Zn1058  1.936   .     S
O1052  Zn1059  1.931   .     S
O1053  Zn1058  1.931   .     S
O1054  Zn1060  1.940   .     S
O1055  Zn1059  1.935   .     S
O1056  Zn1057  1.927   .     S
