data_str_m2_o1_o17_pcu_sym.173
_audit_creation_date              2020-01-03
_audit_creation_method            'Materials Studio'
_symmetry_space_group_name_H-M    'P1'
_symmetry_Int_Tables_number       1
_symmetry_cell_setting            triclinic
loop_
_symmetry_equiv_pos_as_xyz
  x,y,z
_cell_length_a                    32.8799
_cell_length_b                    28.9830
_cell_length_c                    30.0706
_cell_angle_alpha                 89.5043
_cell_angle_beta                  93.4361
_cell_angle_gamma                 91.0688
loop_
_atom_site_label
_atom_site_type_symbol
_atom_site_fract_x
_atom_site_fract_y
_atom_site_fract_z
_atom_site_U_iso_or_equiv
_atom_site_adp_type
_atom_site_occupancy
C1     C     0.08746   0.16637   0.25014   0.00000  Uiso   1.00
C2     C     0.24582   0.16705   0.25041   0.00000  Uiso   1.00
C3     C     0.09261   0.18383   0.01697   0.00000  Uiso   1.00
C4     C     0.23825   0.20857   0.48021   0.00000  Uiso   1.00
C5     C     0.01932   0.12617   0.23863   0.00000  Uiso   1.00
C6     C     0.31412   0.20464   0.26850   0.00000  Uiso   1.00
C7     C     0.31016   0.12990   0.23129   0.00000  Uiso   1.00
C8     C     0.02270   0.20556   0.26610   0.00000  Uiso   1.00
C9     C     0.29050   0.16751   0.24996   0.00000  Uiso   1.00
C10    C     0.04273   0.16603   0.25148   0.00000  Uiso   1.00
C11    C     0.14509   0.02411   0.21758   0.00000  Uiso   1.00
C12    C     0.18730   0.30911   0.28315   0.00000  Uiso   1.00
C13    C     0.18792   0.02447   0.28268   0.00000  Uiso   1.00
C14    C     0.14536   0.30867   0.21725   0.00000  Uiso   1.00
C15    C     0.16746   0.16734   0.16428   0.00000  Uiso   1.00
C16    C     0.16689   0.16651   0.33570   0.00000  Uiso   1.00
C17    C     0.20422   0.18224   0.40861   0.00000  Uiso   1.00
C18    C     0.13062   0.16860   0.08954   0.00000  Uiso   1.00
C19    C     0.16803   0.16716   0.38468   0.00000  Uiso   1.00
C20    C     0.16800   0.17145   0.11530   0.00000  Uiso   1.00
C21    C     0.13201   0.15962   0.40715   0.00000  Uiso   1.00
C22    C     0.20389   0.18803   0.09561   0.00000  Uiso   1.00
C23    C     0.13079   0.17485   0.45107   0.00000  Uiso   1.00
C24    C     0.20296   0.19627   0.04894   0.00000  Uiso   1.00
C25    C     0.16708   0.18524   0.47619   0.00000  Uiso   1.00
C26    C     0.16656   0.18735   0.02300   0.00000  Uiso   1.00
C27    C     0.20376   0.19147   0.45485   0.00000  Uiso   1.00
C28    C     0.12951   0.17961   0.04353   0.00000  Uiso   1.00
C29    C     0.09341   0.18173   0.47037   0.00000  Uiso   1.00
C30    C     0.23704   0.21364   0.02681   0.00000  Uiso   1.00
Cu31   Cu    0.16667   0.21355   0.25000   0.00000  Uiso   1.00
Cu32   Cu    0.16667   0.11978   0.25000   0.00000  Uiso   1.00
N33    N     0.16667   0.28402   0.25000   0.00000  Uiso   1.00
N34    N     0.16667   0.04931   0.25000   0.00000  Uiso   1.00
O35    O     0.10655   0.20625   0.24999   0.00000  Uiso   1.00
O36    O     0.22679   0.12709   0.25000   0.00000  Uiso   1.00
O37    O     0.22679   0.20625   0.25000   0.00000  Uiso   1.00
O38    O     0.10655   0.12709   0.24999   0.00000  Uiso   1.00
O39    O     0.16666   0.20627   0.18513   0.00000  Uiso   1.00
O40    O     0.16668   0.12707   0.31487   0.00000  Uiso   1.00
O41    O     0.16668   0.20627   0.31487   0.00000  Uiso   1.00
O42    O     0.16666   0.12707   0.18513   0.00000  Uiso   1.00
O43    O     0.24025   0.18706   0.38705   0.00000  Uiso   1.00
C44    C     0.25640   0.14302   0.37922   0.00000  Uiso   1.00
H45    H     0.27835   0.14683   0.35275   0.00000  Uiso   1.00
H46    H     0.23275   0.11803   0.36697   0.00000  Uiso   1.00
C47    C     0.27866   0.12241   0.42060   0.00000  Uiso   1.00
H48    H     0.25740   0.11643   0.44745   0.00000  Uiso   1.00
H49    H     0.29145   0.08864   0.41207   0.00000  Uiso   1.00
H50    H     0.30403   0.14550   0.43278   0.00000  Uiso   1.00
O51    O     0.09535   0.15610   0.11009   0.00000  Uiso   1.00
C52    C     0.08222   0.11147   0.09584   0.00000  Uiso   1.00
H53    H     0.10501   0.08549   0.10631   0.00000  Uiso   1.00
H54    H     0.07745   0.10861   0.05913   0.00000  Uiso   1.00
C55    C     0.04191   0.09943   0.11564   0.00000  Uiso   1.00
H56    H     0.01796   0.12328   0.10243   0.00000  Uiso   1.00
H57    H     0.03250   0.06344   0.10706   0.00000  Uiso   1.00
H58    H     0.04518   0.10276   0.15226   0.00000  Uiso   1.00
O59    O     0.10466   0.12441   0.39454   0.00000  Uiso   1.00
C60    C     0.07980   0.13590   0.35662   0.00000  Uiso   1.00
H61    H     0.09216   0.11937   0.32766   0.00000  Uiso   1.00
H62    H     0.07735   0.17367   0.35071   0.00000  Uiso   1.00
C63    C     0.03756   0.11502   0.36147   0.00000  Uiso   1.00
H64    H     0.02582   0.12618   0.39322   0.00000  Uiso   1.00
H65    H     0.01640   0.12636   0.33362   0.00000  Uiso   1.00
H66    H     0.03888   0.07675   0.36153   0.00000  Uiso   1.00
O67    O     0.24126   0.18675   0.11970   0.00000  Uiso   1.00
C68    C     0.24897   0.22840   0.14315   0.00000  Uiso   1.00
H69    H     0.23553   0.22644   0.17547   0.00000  Uiso   1.00
H70    H     0.23592   0.25912   0.12578   0.00000  Uiso   1.00
C71    C     0.29475   0.23541   0.15260   0.00000  Uiso   1.00
H72    H     0.31044   0.24126   0.12152   0.00000  Uiso   1.00
H73    H     0.30073   0.26562   0.17467   0.00000  Uiso   1.00
H74    H     0.30800   0.20436   0.16906   0.00000  Uiso   1.00
O75    O     0.05813   0.18970   0.44402   0.00000  Uiso   1.00
C76    C     0.06110   0.23459   0.42517   0.00000  Uiso   1.00
H77    H     0.08878   0.23893   0.40583   0.00000  Uiso   1.00
H78    H     0.06209   0.26124   0.45171   0.00000  Uiso   1.00
C79    C     0.02450   0.24353   0.39309   0.00000  Uiso   1.00
H80    H     0.33059   0.24934   0.41172   0.00000  Uiso   1.00
H81    H     0.03023   0.27505   0.37299   0.00000  Uiso   1.00
H82    H     0.01844   0.21394   0.37040   0.00000  Uiso   1.00
O83    O     0.26944   0.23544   0.05014   0.00000  Uiso   1.00
C84    C     0.26817   0.28399   0.04246   0.00000  Uiso   1.00
H85    H     0.25524   0.30120   0.07098   0.00000  Uiso   1.00
H86    H     0.24898   0.29476   0.01245   0.00000  Uiso   1.00
C87    C     0.31122   0.30336   0.03823   0.00000  Uiso   1.00
H88    H     0.32548   0.28749   0.00971   0.00000  Uiso   1.00
H89    H     0.31011   0.00792   0.03266   0.00000  Uiso   1.00
H90    H     0.33040   0.29654   0.06911   0.00000  Uiso   1.00
N91    N     0.05493   0.19237   0.03696   0.00000  Uiso   1.00
H92    H     0.03329   0.16772   0.02539   0.00000  Uiso   1.00
H93    H     0.04471   0.22472   0.02613   0.00000  Uiso   1.00
N94    N     0.27425   0.22234   0.45870   0.00000  Uiso   1.00
H95    H     0.30005   0.21216   0.47809   0.00000  Uiso   1.00
H96    H     0.27465   0.25817   0.45507   0.00000  Uiso   1.00
N97    N     0.03850   0.08205   0.23505   0.00000  Uiso   1.00
H98    H     0.05090   0.07347   0.26681   0.00000  Uiso   1.00
H99    H     0.01737   0.05542   0.22808   0.00000  Uiso   1.00
N100   N     0.29680   0.24197   0.29125   0.00000  Uiso   1.00
H101   H     0.28078   0.22829   0.31737   0.00000  Uiso   1.00
H102   H     0.27862   0.26154   0.26887   0.00000  Uiso   1.00
N103   N     0.28724   0.09655   0.20397   0.00000  Uiso   1.00
H104   H     0.26618   0.11444   0.18322   0.00000  Uiso   1.00
H105   H     0.30597   0.08294   0.18067   0.00000  Uiso   1.00
N106   N     0.04390   0.24692   0.28119   0.00000  Uiso   1.00
H107   H     0.05641   0.26382   0.25424   0.00000  Uiso   1.00
H108   H     0.06627   0.23920   0.30612   0.00000  Uiso   1.00
N109   N     0.12404   0.04586   0.18063   0.00000  Uiso   1.00
H110   H     0.14575   0.05458   0.15793   0.00000  Uiso   1.00
H111   H     0.10859   0.07444   0.19083   0.00000  Uiso   1.00
N112   N     0.20756   0.28741   0.32087   0.00000  Uiso   1.00
H113   H     0.22105   0.25756   0.31114   0.00000  Uiso   1.00
H114   H     0.18613   0.28008   0.34435   0.00000  Uiso   1.00
N115   N     0.21082   0.04636   0.31860   0.00000  Uiso   1.00
H116   H     0.19099   0.05710   0.34207   0.00000  Uiso   1.00
H117   H     0.22927   0.07263   0.30684   0.00000  Uiso   1.00
N118   N     0.12387   0.28654   0.18023   0.00000  Uiso   1.00
H119   H     0.10662   0.25840   0.19036   0.00000  Uiso   1.00
H120   H     0.14457   0.27752   0.15693   0.00000  Uiso   1.00
C121   C     0.42079   0.16637   0.25014   0.00000  Uiso   1.00
C122   C     0.57916   0.16705   0.25041   0.00000  Uiso   1.00
C123   C     0.42594   0.18383   0.01697   0.00000  Uiso   1.00
C124   C     0.57159   0.20857   0.48021   0.00000  Uiso   1.00
C125   C     0.35266   0.12617   0.23863   0.00000  Uiso   1.00
C126   C     0.64745   0.20464   0.26850   0.00000  Uiso   1.00
C127   C     0.64349   0.12990   0.23129   0.00000  Uiso   1.00
C128   C     0.35603   0.20556   0.26610   0.00000  Uiso   1.00
C129   C     0.62383   0.16751   0.24996   0.00000  Uiso   1.00
C130   C     0.37607   0.16603   0.25148   0.00000  Uiso   1.00
C131   C     0.47843   0.02411   0.21758   0.00000  Uiso   1.00
C132   C     0.52063   0.30911   0.28315   0.00000  Uiso   1.00
C133   C     0.52126   0.02447   0.28268   0.00000  Uiso   1.00
C134   C     0.47869   0.30867   0.21725   0.00000  Uiso   1.00
C135   C     0.50079   0.16734   0.16428   0.00000  Uiso   1.00
C136   C     0.50022   0.16651   0.33570   0.00000  Uiso   1.00
C137   C     0.53756   0.18224   0.40861   0.00000  Uiso   1.00
C138   C     0.46395   0.16860   0.08954   0.00000  Uiso   1.00
C139   C     0.50137   0.16716   0.38468   0.00000  Uiso   1.00
C140   C     0.50133   0.17145   0.11530   0.00000  Uiso   1.00
C141   C     0.46534   0.15962   0.40715   0.00000  Uiso   1.00
C142   C     0.53722   0.18803   0.09561   0.00000  Uiso   1.00
C143   C     0.46413   0.17485   0.45107   0.00000  Uiso   1.00
C144   C     0.53630   0.19627   0.04894   0.00000  Uiso   1.00
C145   C     0.50041   0.18524   0.47619   0.00000  Uiso   1.00
C146   C     0.49989   0.18735   0.02300   0.00000  Uiso   1.00
C147   C     0.53710   0.19147   0.45485   0.00000  Uiso   1.00
C148   C     0.46284   0.17961   0.04353   0.00000  Uiso   1.00
C149   C     0.42674   0.18173   0.47037   0.00000  Uiso   1.00
C150   C     0.57037   0.21364   0.02681   0.00000  Uiso   1.00
Cu151  Cu    0.50000   0.21355   0.25000   0.00000  Uiso   1.00
Cu152  Cu    0.50000   0.11978   0.25000   0.00000  Uiso   1.00
N153   N     0.50000   0.28402   0.25000   0.00000  Uiso   1.00
N154   N     0.50000   0.04931   0.25000   0.00000  Uiso   1.00
O155   O     0.43988   0.20625   0.24999   0.00000  Uiso   1.00
O156   O     0.56012   0.12709   0.25000   0.00000  Uiso   1.00
O157   O     0.56012   0.20625   0.25000   0.00000  Uiso   1.00
O158   O     0.43988   0.12709   0.24999   0.00000  Uiso   1.00
O159   O     0.49999   0.20627   0.18513   0.00000  Uiso   1.00
O160   O     0.50001   0.12707   0.31487   0.00000  Uiso   1.00
O161   O     0.50001   0.20627   0.31487   0.00000  Uiso   1.00
O162   O     0.49999   0.12707   0.18513   0.00000  Uiso   1.00
O163   O     0.57358   0.18706   0.38705   0.00000  Uiso   1.00
C164   C     0.58973   0.14302   0.37922   0.00000  Uiso   1.00
H165   H     0.61168   0.14683   0.35275   0.00000  Uiso   1.00
H166   H     0.56608   0.11803   0.36697   0.00000  Uiso   1.00
C167   C     0.61199   0.12241   0.42060   0.00000  Uiso   1.00
H168   H     0.59074   0.11643   0.44745   0.00000  Uiso   1.00
H169   H     0.62478   0.08864   0.41207   0.00000  Uiso   1.00
H170   H     0.63737   0.14550   0.43278   0.00000  Uiso   1.00
O171   O     0.42869   0.15610   0.11009   0.00000  Uiso   1.00
C172   C     0.41555   0.11147   0.09584   0.00000  Uiso   1.00
H173   H     0.43834   0.08549   0.10631   0.00000  Uiso   1.00
H174   H     0.41079   0.10861   0.05913   0.00000  Uiso   1.00
C175   C     0.37524   0.09943   0.11564   0.00000  Uiso   1.00
H176   H     0.35129   0.12328   0.10243   0.00000  Uiso   1.00
H177   H     0.36584   0.06344   0.10706   0.00000  Uiso   1.00
H178   H     0.37852   0.10276   0.15226   0.00000  Uiso   1.00
O179   O     0.43799   0.12441   0.39454   0.00000  Uiso   1.00
C180   C     0.41314   0.13590   0.35662   0.00000  Uiso   1.00
H181   H     0.42549   0.11937   0.32766   0.00000  Uiso   1.00
H182   H     0.41069   0.17367   0.35071   0.00000  Uiso   1.00
C183   C     0.37089   0.11502   0.36147   0.00000  Uiso   1.00
H184   H     0.35915   0.12618   0.39322   0.00000  Uiso   1.00
H185   H     0.34973   0.12636   0.33362   0.00000  Uiso   1.00
H186   H     0.37221   0.07675   0.36153   0.00000  Uiso   1.00
O187   O     0.57459   0.18675   0.11970   0.00000  Uiso   1.00
C188   C     0.58230   0.22840   0.14315   0.00000  Uiso   1.00
H189   H     0.56886   0.22644   0.17547   0.00000  Uiso   1.00
H190   H     0.56925   0.25912   0.12578   0.00000  Uiso   1.00
C191   C     0.62809   0.23541   0.15260   0.00000  Uiso   1.00
H192   H     0.64377   0.24126   0.12152   0.00000  Uiso   1.00
H193   H     0.63406   0.26562   0.17467   0.00000  Uiso   1.00
H194   H     0.64134   0.20436   0.16906   0.00000  Uiso   1.00
O195   O     0.39147   0.18970   0.44402   0.00000  Uiso   1.00
C196   C     0.39444   0.23459   0.42517   0.00000  Uiso   1.00
H197   H     0.42211   0.23893   0.40583   0.00000  Uiso   1.00
H198   H     0.39542   0.26124   0.45171   0.00000  Uiso   1.00
C199   C     0.35783   0.24353   0.39309   0.00000  Uiso   1.00
H200   H     0.66393   0.24934   0.41172   0.00000  Uiso   1.00
H201   H     0.36356   0.27505   0.37299   0.00000  Uiso   1.00
H202   H     0.35177   0.21394   0.37040   0.00000  Uiso   1.00
O203   O     0.60277   0.23544   0.05014   0.00000  Uiso   1.00
C204   C     0.60150   0.28399   0.04246   0.00000  Uiso   1.00
H205   H     0.58857   0.30120   0.07098   0.00000  Uiso   1.00
H206   H     0.58232   0.29476   0.01245   0.00000  Uiso   1.00
C207   C     0.64455   0.30336   0.03823   0.00000  Uiso   1.00
H208   H     0.65882   0.28749   0.00971   0.00000  Uiso   1.00
H209   H     0.64345   0.00792   0.03266   0.00000  Uiso   1.00
H210   H     0.66373   0.29654   0.06911   0.00000  Uiso   1.00
N211   N     0.38826   0.19237   0.03696   0.00000  Uiso   1.00
H212   H     0.36663   0.16772   0.02539   0.00000  Uiso   1.00
H213   H     0.37804   0.22472   0.02613   0.00000  Uiso   1.00
N214   N     0.60758   0.22234   0.45870   0.00000  Uiso   1.00
H215   H     0.63338   0.21216   0.47809   0.00000  Uiso   1.00
H216   H     0.60799   0.25817   0.45507   0.00000  Uiso   1.00
N217   N     0.37183   0.08205   0.23505   0.00000  Uiso   1.00
H218   H     0.38423   0.07347   0.26681   0.00000  Uiso   1.00
H219   H     0.35071   0.05542   0.22808   0.00000  Uiso   1.00
N220   N     0.63014   0.24197   0.29125   0.00000  Uiso   1.00
H221   H     0.61411   0.22829   0.31737   0.00000  Uiso   1.00
H222   H     0.61196   0.26154   0.26887   0.00000  Uiso   1.00
N223   N     0.62057   0.09655   0.20397   0.00000  Uiso   1.00
H224   H     0.59951   0.11444   0.18322   0.00000  Uiso   1.00
H225   H     0.63930   0.08294   0.18067   0.00000  Uiso   1.00
N226   N     0.37724   0.24692   0.28119   0.00000  Uiso   1.00
H227   H     0.38975   0.26382   0.25424   0.00000  Uiso   1.00
H228   H     0.39961   0.23920   0.30612   0.00000  Uiso   1.00
N229   N     0.45738   0.04586   0.18063   0.00000  Uiso   1.00
H230   H     0.47908   0.05458   0.15793   0.00000  Uiso   1.00
H231   H     0.44192   0.07444   0.19083   0.00000  Uiso   1.00
N232   N     0.54089   0.28741   0.32087   0.00000  Uiso   1.00
H233   H     0.55438   0.25756   0.31114   0.00000  Uiso   1.00
H234   H     0.51946   0.28008   0.34435   0.00000  Uiso   1.00
N235   N     0.54416   0.04636   0.31860   0.00000  Uiso   1.00
H236   H     0.52433   0.05710   0.34207   0.00000  Uiso   1.00
H237   H     0.56260   0.07263   0.30684   0.00000  Uiso   1.00
N238   N     0.45721   0.28654   0.18023   0.00000  Uiso   1.00
H239   H     0.43995   0.25840   0.19036   0.00000  Uiso   1.00
H240   H     0.47790   0.27752   0.15693   0.00000  Uiso   1.00
C241   C     0.75413   0.16637   0.25014   0.00000  Uiso   1.00
C242   C     0.91249   0.16705   0.25041   0.00000  Uiso   1.00
C243   C     0.75927   0.18383   0.01697   0.00000  Uiso   1.00
C244   C     0.90492   0.20857   0.48021   0.00000  Uiso   1.00
C245   C     0.68599   0.12617   0.23863   0.00000  Uiso   1.00
C246   C     0.98078   0.20464   0.26850   0.00000  Uiso   1.00
C247   C     0.97683   0.12990   0.23129   0.00000  Uiso   1.00
C248   C     0.68937   0.20556   0.26610   0.00000  Uiso   1.00
C249   C     0.95716   0.16751   0.24996   0.00000  Uiso   1.00
C250   C     0.70940   0.16603   0.25148   0.00000  Uiso   1.00
C251   C     0.81176   0.02411   0.21758   0.00000  Uiso   1.00
C252   C     0.85397   0.30911   0.28315   0.00000  Uiso   1.00
C253   C     0.85459   0.02447   0.28268   0.00000  Uiso   1.00
C254   C     0.81202   0.30867   0.21725   0.00000  Uiso   1.00
C255   C     0.83413   0.16734   0.16428   0.00000  Uiso   1.00
C256   C     0.83356   0.16651   0.33570   0.00000  Uiso   1.00
C257   C     0.87089   0.18224   0.40861   0.00000  Uiso   1.00
C258   C     0.79729   0.16860   0.08954   0.00000  Uiso   1.00
C259   C     0.83470   0.16716   0.38468   0.00000  Uiso   1.00
C260   C     0.83466   0.17145   0.11530   0.00000  Uiso   1.00
C261   C     0.79867   0.15962   0.40715   0.00000  Uiso   1.00
C262   C     0.87056   0.18803   0.09561   0.00000  Uiso   1.00
C263   C     0.79746   0.17485   0.45107   0.00000  Uiso   1.00
C264   C     0.86963   0.19627   0.04894   0.00000  Uiso   1.00
C265   C     0.83375   0.18524   0.47619   0.00000  Uiso   1.00
C266   C     0.83323   0.18735   0.02300   0.00000  Uiso   1.00
C267   C     0.87043   0.19147   0.45485   0.00000  Uiso   1.00
C268   C     0.79617   0.17961   0.04353   0.00000  Uiso   1.00
C269   C     0.76008   0.18173   0.47037   0.00000  Uiso   1.00
C270   C     0.90371   0.21364   0.02681   0.00000  Uiso   1.00
Cu271  Cu    0.83333   0.21355   0.25000   0.00000  Uiso   1.00
Cu272  Cu    0.83333   0.11978   0.25000   0.00000  Uiso   1.00
N273   N     0.83333   0.28402   0.25000   0.00000  Uiso   1.00
N274   N     0.83333   0.04931   0.25000   0.00000  Uiso   1.00
O275   O     0.77321   0.20625   0.24999   0.00000  Uiso   1.00
O276   O     0.89345   0.12709   0.25000   0.00000  Uiso   1.00
O277   O     0.89345   0.20625   0.25000   0.00000  Uiso   1.00
O278   O     0.77321   0.12709   0.24999   0.00000  Uiso   1.00
O279   O     0.83332   0.20627   0.18513   0.00000  Uiso   1.00
O280   O     0.83334   0.12707   0.31487   0.00000  Uiso   1.00
O281   O     0.83334   0.20627   0.31487   0.00000  Uiso   1.00
O282   O     0.83332   0.12707   0.18513   0.00000  Uiso   1.00
O283   O     0.90692   0.18706   0.38705   0.00000  Uiso   1.00
C284   C     0.92307   0.14302   0.37922   0.00000  Uiso   1.00
H285   H     0.94501   0.14683   0.35275   0.00000  Uiso   1.00
H286   H     0.89942   0.11803   0.36697   0.00000  Uiso   1.00
C287   C     0.94532   0.12241   0.42060   0.00000  Uiso   1.00
H288   H     0.92407   0.11643   0.44745   0.00000  Uiso   1.00
H289   H     0.95812   0.08864   0.41207   0.00000  Uiso   1.00
H290   H     0.97070   0.14550   0.43278   0.00000  Uiso   1.00
O291   O     0.76202   0.15610   0.11009   0.00000  Uiso   1.00
C292   C     0.74889   0.11147   0.09584   0.00000  Uiso   1.00
H293   H     0.77168   0.08549   0.10631   0.00000  Uiso   1.00
H294   H     0.74412   0.10861   0.05913   0.00000  Uiso   1.00
C295   C     0.70857   0.09943   0.11564   0.00000  Uiso   1.00
H296   H     0.68463   0.12328   0.10243   0.00000  Uiso   1.00
H297   H     0.69917   0.06344   0.10706   0.00000  Uiso   1.00
H298   H     0.71185   0.10276   0.15226   0.00000  Uiso   1.00
O299   O     0.77132   0.12441   0.39454   0.00000  Uiso   1.00
C300   C     0.74647   0.13590   0.35662   0.00000  Uiso   1.00
H301   H     0.75882   0.11937   0.32766   0.00000  Uiso   1.00
H302   H     0.74402   0.17367   0.35071   0.00000  Uiso   1.00
C303   C     0.70423   0.11502   0.36147   0.00000  Uiso   1.00
H304   H     0.69248   0.12618   0.39322   0.00000  Uiso   1.00
H305   H     0.68307   0.12636   0.33362   0.00000  Uiso   1.00
H306   H     0.70554   0.07675   0.36153   0.00000  Uiso   1.00
O307   O     0.90793   0.18675   0.11970   0.00000  Uiso   1.00
C308   C     0.91563   0.22840   0.14315   0.00000  Uiso   1.00
H309   H     0.90220   0.22644   0.17547   0.00000  Uiso   1.00
H310   H     0.90259   0.25912   0.12578   0.00000  Uiso   1.00
C311   C     0.96142   0.23541   0.15260   0.00000  Uiso   1.00
H312   H     0.97710   0.24126   0.12152   0.00000  Uiso   1.00
H313   H     0.96740   0.26562   0.17467   0.00000  Uiso   1.00
H314   H     0.97467   0.20436   0.16906   0.00000  Uiso   1.00
O315   O     0.72480   0.18970   0.44402   0.00000  Uiso   1.00
C316   C     0.72777   0.23459   0.42517   0.00000  Uiso   1.00
H317   H     0.75544   0.23893   0.40583   0.00000  Uiso   1.00
H318   H     0.72876   0.26124   0.45171   0.00000  Uiso   1.00
C319   C     0.69117   0.24353   0.39309   0.00000  Uiso   1.00
H320   H     0.99726   0.24934   0.41172   0.00000  Uiso   1.00
H321   H     0.69690   0.27505   0.37299   0.00000  Uiso   1.00
H322   H     0.68510   0.21394   0.37040   0.00000  Uiso   1.00
O323   O     0.93610   0.23544   0.05014   0.00000  Uiso   1.00
C324   C     0.93484   0.28399   0.04246   0.00000  Uiso   1.00
H325   H     0.92191   0.30120   0.07098   0.00000  Uiso   1.00
H326   H     0.91565   0.29476   0.01245   0.00000  Uiso   1.00
C327   C     0.97788   0.30336   0.03823   0.00000  Uiso   1.00
H328   H     0.99215   0.28749   0.00971   0.00000  Uiso   1.00
H329   H     0.97678   0.00792   0.03266   0.00000  Uiso   1.00
H330   H     0.99707   0.29654   0.06911   0.00000  Uiso   1.00
N331   N     0.72160   0.19237   0.03696   0.00000  Uiso   1.00
H332   H     0.69996   0.16772   0.02539   0.00000  Uiso   1.00
H333   H     0.71137   0.22472   0.02613   0.00000  Uiso   1.00
N334   N     0.94092   0.22234   0.45870   0.00000  Uiso   1.00
H335   H     0.96672   0.21216   0.47809   0.00000  Uiso   1.00
H336   H     0.94132   0.25817   0.45507   0.00000  Uiso   1.00
N337   N     0.70516   0.08205   0.23505   0.00000  Uiso   1.00
H338   H     0.71756   0.07347   0.26681   0.00000  Uiso   1.00
H339   H     0.68404   0.05542   0.22808   0.00000  Uiso   1.00
N340   N     0.96347   0.24197   0.29125   0.00000  Uiso   1.00
H341   H     0.94745   0.22829   0.31737   0.00000  Uiso   1.00
H342   H     0.94529   0.26154   0.26887   0.00000  Uiso   1.00
N343   N     0.95390   0.09655   0.20397   0.00000  Uiso   1.00
H344   H     0.93285   0.11444   0.18322   0.00000  Uiso   1.00
H345   H     0.97263   0.08294   0.18067   0.00000  Uiso   1.00
N346   N     0.71057   0.24692   0.28119   0.00000  Uiso   1.00
H347   H     0.72308   0.26382   0.25424   0.00000  Uiso   1.00
H348   H     0.73294   0.23920   0.30612   0.00000  Uiso   1.00
N349   N     0.79071   0.04586   0.18063   0.00000  Uiso   1.00
H350   H     0.81242   0.05458   0.15793   0.00000  Uiso   1.00
H351   H     0.77526   0.07444   0.19083   0.00000  Uiso   1.00
N352   N     0.87422   0.28741   0.32087   0.00000  Uiso   1.00
H353   H     0.88771   0.25756   0.31114   0.00000  Uiso   1.00
H354   H     0.85279   0.28008   0.34435   0.00000  Uiso   1.00
N355   N     0.87749   0.04636   0.31860   0.00000  Uiso   1.00
H356   H     0.85766   0.05710   0.34207   0.00000  Uiso   1.00
H357   H     0.89594   0.07263   0.30684   0.00000  Uiso   1.00
N358   N     0.79054   0.28654   0.18023   0.00000  Uiso   1.00
H359   H     0.77329   0.25840   0.19036   0.00000  Uiso   1.00
H360   H     0.81124   0.27752   0.15693   0.00000  Uiso   1.00
C361   C     0.08746   0.49970   0.25014   0.00000  Uiso   1.00
C362   C     0.24582   0.50039   0.25041   0.00000  Uiso   1.00
C363   C     0.09261   0.51717   0.01697   0.00000  Uiso   1.00
C364   C     0.23825   0.54190   0.48021   0.00000  Uiso   1.00
C365   C     0.01932   0.45950   0.23863   0.00000  Uiso   1.00
C366   C     0.31412   0.53797   0.26850   0.00000  Uiso   1.00
C367   C     0.31016   0.46323   0.23129   0.00000  Uiso   1.00
C368   C     0.02270   0.53889   0.26610   0.00000  Uiso   1.00
C369   C     0.29050   0.50085   0.24996   0.00000  Uiso   1.00
C370   C     0.04273   0.49936   0.25148   0.00000  Uiso   1.00
C371   C     0.14509   0.35744   0.21758   0.00000  Uiso   1.00
C372   C     0.18730   0.64244   0.28315   0.00000  Uiso   1.00
C373   C     0.18792   0.35780   0.28268   0.00000  Uiso   1.00
C374   C     0.14536   0.64200   0.21725   0.00000  Uiso   1.00
C375   C     0.16746   0.50067   0.16428   0.00000  Uiso   1.00
C376   C     0.16689   0.49985   0.33570   0.00000  Uiso   1.00
C377   C     0.20422   0.51557   0.40861   0.00000  Uiso   1.00
C378   C     0.13062   0.50194   0.08954   0.00000  Uiso   1.00
C379   C     0.16803   0.50049   0.38468   0.00000  Uiso   1.00
C380   C     0.16800   0.50478   0.11530   0.00000  Uiso   1.00
C381   C     0.13201   0.49295   0.40715   0.00000  Uiso   1.00
C382   C     0.20389   0.52136   0.09561   0.00000  Uiso   1.00
C383   C     0.13079   0.50818   0.45107   0.00000  Uiso   1.00
C384   C     0.20296   0.52961   0.04894   0.00000  Uiso   1.00
C385   C     0.16708   0.51857   0.47619   0.00000  Uiso   1.00
C386   C     0.16656   0.52068   0.02300   0.00000  Uiso   1.00
C387   C     0.20376   0.52480   0.45485   0.00000  Uiso   1.00
C388   C     0.12951   0.51294   0.04353   0.00000  Uiso   1.00
C389   C     0.09341   0.51507   0.47037   0.00000  Uiso   1.00
C390   C     0.23704   0.54698   0.02681   0.00000  Uiso   1.00
Cu391  Cu    0.16667   0.54689   0.25000   0.00000  Uiso   1.00
Cu392  Cu    0.16667   0.45311   0.25000   0.00000  Uiso   1.00
N393   N     0.16667   0.61736   0.25000   0.00000  Uiso   1.00
N394   N     0.16667   0.38264   0.25000   0.00000  Uiso   1.00
O395   O     0.10655   0.53958   0.24999   0.00000  Uiso   1.00
O396   O     0.22679   0.46042   0.25000   0.00000  Uiso   1.00
O397   O     0.22679   0.53958   0.25000   0.00000  Uiso   1.00
O398   O     0.10655   0.46042   0.24999   0.00000  Uiso   1.00
O399   O     0.16666   0.53960   0.18513   0.00000  Uiso   1.00
O400   O     0.16668   0.46040   0.31487   0.00000  Uiso   1.00
O401   O     0.16668   0.53960   0.31487   0.00000  Uiso   1.00
O402   O     0.16666   0.46040   0.18513   0.00000  Uiso   1.00
O403   O     0.24025   0.52039   0.38705   0.00000  Uiso   1.00
C404   C     0.25640   0.47635   0.37922   0.00000  Uiso   1.00
H405   H     0.27835   0.48016   0.35275   0.00000  Uiso   1.00
H406   H     0.23275   0.45136   0.36697   0.00000  Uiso   1.00
C407   C     0.27866   0.45574   0.42060   0.00000  Uiso   1.00
H408   H     0.25740   0.44976   0.44745   0.00000  Uiso   1.00
H409   H     0.29145   0.42198   0.41207   0.00000  Uiso   1.00
H410   H     0.30403   0.47884   0.43278   0.00000  Uiso   1.00
O411   O     0.09535   0.48943   0.11009   0.00000  Uiso   1.00
C412   C     0.08222   0.44480   0.09584   0.00000  Uiso   1.00
H413   H     0.10501   0.41882   0.10631   0.00000  Uiso   1.00
H414   H     0.07745   0.44195   0.05913   0.00000  Uiso   1.00
C415   C     0.04191   0.43276   0.11564   0.00000  Uiso   1.00
H416   H     0.01796   0.45661   0.10243   0.00000  Uiso   1.00
H417   H     0.03250   0.39677   0.10706   0.00000  Uiso   1.00
H418   H     0.04518   0.43609   0.15226   0.00000  Uiso   1.00
O419   O     0.10466   0.45774   0.39454   0.00000  Uiso   1.00
C420   C     0.07980   0.46923   0.35662   0.00000  Uiso   1.00
H421   H     0.09216   0.45270   0.32766   0.00000  Uiso   1.00
H422   H     0.07735   0.50701   0.35071   0.00000  Uiso   1.00
C423   C     0.03756   0.44835   0.36147   0.00000  Uiso   1.00
H424   H     0.02582   0.45952   0.39322   0.00000  Uiso   1.00
H425   H     0.01640   0.45970   0.33362   0.00000  Uiso   1.00
H426   H     0.03888   0.41009   0.36153   0.00000  Uiso   1.00
O427   O     0.24126   0.52009   0.11970   0.00000  Uiso   1.00
C428   C     0.24897   0.56173   0.14315   0.00000  Uiso   1.00
H429   H     0.23553   0.55977   0.17547   0.00000  Uiso   1.00
H430   H     0.23592   0.59245   0.12578   0.00000  Uiso   1.00
C431   C     0.29475   0.56874   0.15260   0.00000  Uiso   1.00
H432   H     0.31044   0.57459   0.12152   0.00000  Uiso   1.00
H433   H     0.30073   0.59895   0.17467   0.00000  Uiso   1.00
H434   H     0.30800   0.53770   0.16906   0.00000  Uiso   1.00
O435   O     0.05813   0.52303   0.44402   0.00000  Uiso   1.00
C436   C     0.06110   0.56792   0.42517   0.00000  Uiso   1.00
H437   H     0.08878   0.57226   0.40583   0.00000  Uiso   1.00
H438   H     0.06209   0.59457   0.45171   0.00000  Uiso   1.00
C439   C     0.02450   0.57687   0.39309   0.00000  Uiso   1.00
H440   H     0.33059   0.58268   0.41172   0.00000  Uiso   1.00
H441   H     0.03023   0.60838   0.37299   0.00000  Uiso   1.00
H442   H     0.01844   0.54727   0.37040   0.00000  Uiso   1.00
O443   O     0.26944   0.56878   0.05014   0.00000  Uiso   1.00
C444   C     0.26817   0.61733   0.04246   0.00000  Uiso   1.00
H445   H     0.25524   0.63453   0.07098   0.00000  Uiso   1.00
H446   H     0.24898   0.62810   0.01245   0.00000  Uiso   1.00
C447   C     0.31122   0.63669   0.03823   0.00000  Uiso   1.00
H448   H     0.32548   0.62082   0.00971   0.00000  Uiso   1.00
H449   H     0.31011   0.34125   0.03266   0.00000  Uiso   1.00
H450   H     0.33040   0.62987   0.06911   0.00000  Uiso   1.00
N451   N     0.05493   0.52571   0.03696   0.00000  Uiso   1.00
H452   H     0.03329   0.50105   0.02539   0.00000  Uiso   1.00
H453   H     0.04471   0.55806   0.02613   0.00000  Uiso   1.00
N454   N     0.27425   0.55568   0.45870   0.00000  Uiso   1.00
H455   H     0.30005   0.54550   0.47809   0.00000  Uiso   1.00
H456   H     0.27465   0.59150   0.45507   0.00000  Uiso   1.00
N457   N     0.03850   0.41538   0.23505   0.00000  Uiso   1.00
H458   H     0.05090   0.40681   0.26681   0.00000  Uiso   1.00
H459   H     0.01737   0.38875   0.22808   0.00000  Uiso   1.00
N460   N     0.29680   0.57531   0.29125   0.00000  Uiso   1.00
H461   H     0.28078   0.56162   0.31737   0.00000  Uiso   1.00
H462   H     0.27862   0.59488   0.26887   0.00000  Uiso   1.00
N463   N     0.28724   0.42989   0.20397   0.00000  Uiso   1.00
H464   H     0.26618   0.44778   0.18322   0.00000  Uiso   1.00
H465   H     0.30597   0.41627   0.18067   0.00000  Uiso   1.00
N466   N     0.04390   0.58025   0.28119   0.00000  Uiso   1.00
H467   H     0.05641   0.59715   0.25424   0.00000  Uiso   1.00
H468   H     0.06627   0.57253   0.30612   0.00000  Uiso   1.00
N469   N     0.12404   0.37919   0.18063   0.00000  Uiso   1.00
H470   H     0.14575   0.38792   0.15793   0.00000  Uiso   1.00
H471   H     0.10859   0.40778   0.19083   0.00000  Uiso   1.00
N472   N     0.20756   0.62074   0.32087   0.00000  Uiso   1.00
H473   H     0.22105   0.59090   0.31114   0.00000  Uiso   1.00
H474   H     0.18613   0.61341   0.34435   0.00000  Uiso   1.00
N475   N     0.21082   0.37969   0.31860   0.00000  Uiso   1.00
H476   H     0.19099   0.39044   0.34207   0.00000  Uiso   1.00
H477   H     0.22927   0.40597   0.30684   0.00000  Uiso   1.00
N478   N     0.12387   0.61987   0.18023   0.00000  Uiso   1.00
H479   H     0.10662   0.59174   0.19036   0.00000  Uiso   1.00
H480   H     0.14457   0.61085   0.15693   0.00000  Uiso   1.00
C481   C     0.42079   0.49970   0.25014   0.00000  Uiso   1.00
C482   C     0.57916   0.50039   0.25041   0.00000  Uiso   1.00
C483   C     0.42594   0.51717   0.01697   0.00000  Uiso   1.00
C484   C     0.57159   0.54190   0.48021   0.00000  Uiso   1.00
C485   C     0.35266   0.45950   0.23863   0.00000  Uiso   1.00
C486   C     0.64745   0.53797   0.26850   0.00000  Uiso   1.00
C487   C     0.64349   0.46323   0.23129   0.00000  Uiso   1.00
C488   C     0.35603   0.53889   0.26610   0.00000  Uiso   1.00
C489   C     0.62383   0.50085   0.24996   0.00000  Uiso   1.00
C490   C     0.37607   0.49936   0.25148   0.00000  Uiso   1.00
C491   C     0.47843   0.35744   0.21758   0.00000  Uiso   1.00
C492   C     0.52063   0.64244   0.28315   0.00000  Uiso   1.00
C493   C     0.52126   0.35780   0.28268   0.00000  Uiso   1.00
C494   C     0.47869   0.64200   0.21725   0.00000  Uiso   1.00
C495   C     0.50079   0.50067   0.16428   0.00000  Uiso   1.00
C496   C     0.50022   0.49985   0.33570   0.00000  Uiso   1.00
C497   C     0.53756   0.51557   0.40861   0.00000  Uiso   1.00
C498   C     0.46395   0.50194   0.08954   0.00000  Uiso   1.00
C499   C     0.50137   0.50049   0.38468   0.00000  Uiso   1.00
C500   C     0.50133   0.50478   0.11530   0.00000  Uiso   1.00
C501   C     0.46534   0.49295   0.40715   0.00000  Uiso   1.00
C502   C     0.53722   0.52136   0.09561   0.00000  Uiso   1.00
C503   C     0.46413   0.50818   0.45107   0.00000  Uiso   1.00
C504   C     0.53630   0.52961   0.04894   0.00000  Uiso   1.00
C505   C     0.50041   0.51857   0.47619   0.00000  Uiso   1.00
C506   C     0.49989   0.52068   0.02300   0.00000  Uiso   1.00
C507   C     0.53710   0.52480   0.45485   0.00000  Uiso   1.00
C508   C     0.46284   0.51294   0.04353   0.00000  Uiso   1.00
C509   C     0.42674   0.51507   0.47037   0.00000  Uiso   1.00
C510   C     0.57037   0.54698   0.02681   0.00000  Uiso   1.00
Cu511  Cu    0.50000   0.54689   0.25000   0.00000  Uiso   1.00
Cu512  Cu    0.50000   0.45311   0.25000   0.00000  Uiso   1.00
N513   N     0.50000   0.61736   0.25000   0.00000  Uiso   1.00
N514   N     0.50000   0.38264   0.25000   0.00000  Uiso   1.00
O515   O     0.43988   0.53958   0.24999   0.00000  Uiso   1.00
O516   O     0.56012   0.46042   0.25000   0.00000  Uiso   1.00
O517   O     0.56012   0.53958   0.25000   0.00000  Uiso   1.00
O518   O     0.43988   0.46042   0.24999   0.00000  Uiso   1.00
O519   O     0.49999   0.53960   0.18513   0.00000  Uiso   1.00
O520   O     0.50001   0.46040   0.31487   0.00000  Uiso   1.00
O521   O     0.50001   0.53960   0.31487   0.00000  Uiso   1.00
O522   O     0.49999   0.46040   0.18513   0.00000  Uiso   1.00
O523   O     0.57358   0.52039   0.38705   0.00000  Uiso   1.00
C524   C     0.58973   0.47635   0.37922   0.00000  Uiso   1.00
H525   H     0.61168   0.48016   0.35275   0.00000  Uiso   1.00
H526   H     0.56608   0.45136   0.36697   0.00000  Uiso   1.00
C527   C     0.61199   0.45574   0.42060   0.00000  Uiso   1.00
H528   H     0.59074   0.44976   0.44745   0.00000  Uiso   1.00
H529   H     0.62478   0.42198   0.41207   0.00000  Uiso   1.00
H530   H     0.63737   0.47884   0.43278   0.00000  Uiso   1.00
O531   O     0.42869   0.48943   0.11009   0.00000  Uiso   1.00
C532   C     0.41555   0.44480   0.09584   0.00000  Uiso   1.00
H533   H     0.43834   0.41882   0.10631   0.00000  Uiso   1.00
H534   H     0.41079   0.44195   0.05913   0.00000  Uiso   1.00
C535   C     0.37524   0.43276   0.11564   0.00000  Uiso   1.00
H536   H     0.35129   0.45661   0.10243   0.00000  Uiso   1.00
H537   H     0.36584   0.39677   0.10706   0.00000  Uiso   1.00
H538   H     0.37852   0.43609   0.15226   0.00000  Uiso   1.00
O539   O     0.43799   0.45774   0.39454   0.00000  Uiso   1.00
C540   C     0.41314   0.46923   0.35662   0.00000  Uiso   1.00
H541   H     0.42549   0.45270   0.32766   0.00000  Uiso   1.00
H542   H     0.41069   0.50701   0.35071   0.00000  Uiso   1.00
C543   C     0.37089   0.44835   0.36147   0.00000  Uiso   1.00
H544   H     0.35915   0.45952   0.39322   0.00000  Uiso   1.00
H545   H     0.34973   0.45970   0.33362   0.00000  Uiso   1.00
H546   H     0.37221   0.41009   0.36153   0.00000  Uiso   1.00
O547   O     0.57459   0.52009   0.11970   0.00000  Uiso   1.00
C548   C     0.58230   0.56173   0.14315   0.00000  Uiso   1.00
H549   H     0.56886   0.55977   0.17547   0.00000  Uiso   1.00
H550   H     0.56925   0.59245   0.12578   0.00000  Uiso   1.00
C551   C     0.62809   0.56874   0.15260   0.00000  Uiso   1.00
H552   H     0.64377   0.57459   0.12152   0.00000  Uiso   1.00
H553   H     0.63406   0.59895   0.17467   0.00000  Uiso   1.00
H554   H     0.64134   0.53770   0.16906   0.00000  Uiso   1.00
O555   O     0.39147   0.52303   0.44402   0.00000  Uiso   1.00
C556   C     0.39444   0.56792   0.42517   0.00000  Uiso   1.00
H557   H     0.42211   0.57226   0.40583   0.00000  Uiso   1.00
H558   H     0.39542   0.59457   0.45171   0.00000  Uiso   1.00
C559   C     0.35783   0.57687   0.39309   0.00000  Uiso   1.00
H560   H     0.66393   0.58268   0.41172   0.00000  Uiso   1.00
H561   H     0.36356   0.60838   0.37299   0.00000  Uiso   1.00
H562   H     0.35177   0.54727   0.37040   0.00000  Uiso   1.00
O563   O     0.60277   0.56878   0.05014   0.00000  Uiso   1.00
C564   C     0.60150   0.61733   0.04246   0.00000  Uiso   1.00
H565   H     0.58857   0.63453   0.07098   0.00000  Uiso   1.00
H566   H     0.58232   0.62810   0.01245   0.00000  Uiso   1.00
C567   C     0.64455   0.63669   0.03823   0.00000  Uiso   1.00
H568   H     0.65882   0.62082   0.00971   0.00000  Uiso   1.00
H569   H     0.64345   0.34125   0.03266   0.00000  Uiso   1.00
H570   H     0.66373   0.62987   0.06911   0.00000  Uiso   1.00
N571   N     0.38826   0.52571   0.03696   0.00000  Uiso   1.00
H572   H     0.36663   0.50105   0.02539   0.00000  Uiso   1.00
H573   H     0.37804   0.55806   0.02613   0.00000  Uiso   1.00
N574   N     0.60758   0.55568   0.45870   0.00000  Uiso   1.00
H575   H     0.63338   0.54550   0.47809   0.00000  Uiso   1.00
H576   H     0.60799   0.59150   0.45507   0.00000  Uiso   1.00
N577   N     0.37183   0.41538   0.23505   0.00000  Uiso   1.00
H578   H     0.38423   0.40681   0.26681   0.00000  Uiso   1.00
H579   H     0.35071   0.38875   0.22808   0.00000  Uiso   1.00
N580   N     0.63014   0.57531   0.29125   0.00000  Uiso   1.00
H581   H     0.61411   0.56162   0.31737   0.00000  Uiso   1.00
H582   H     0.61196   0.59488   0.26887   0.00000  Uiso   1.00
N583   N     0.62057   0.42989   0.20397   0.00000  Uiso   1.00
H584   H     0.59951   0.44778   0.18322   0.00000  Uiso   1.00
H585   H     0.63930   0.41627   0.18067   0.00000  Uiso   1.00
N586   N     0.37724   0.58025   0.28119   0.00000  Uiso   1.00
H587   H     0.38975   0.59715   0.25424   0.00000  Uiso   1.00
H588   H     0.39961   0.57253   0.30612   0.00000  Uiso   1.00
N589   N     0.45738   0.37919   0.18063   0.00000  Uiso   1.00
H590   H     0.47908   0.38792   0.15793   0.00000  Uiso   1.00
H591   H     0.44192   0.40778   0.19083   0.00000  Uiso   1.00
N592   N     0.54089   0.62074   0.32087   0.00000  Uiso   1.00
H593   H     0.55438   0.59090   0.31114   0.00000  Uiso   1.00
H594   H     0.51946   0.61341   0.34435   0.00000  Uiso   1.00
N595   N     0.54416   0.37969   0.31860   0.00000  Uiso   1.00
H596   H     0.52433   0.39044   0.34207   0.00000  Uiso   1.00
H597   H     0.56260   0.40597   0.30684   0.00000  Uiso   1.00
N598   N     0.45721   0.61987   0.18023   0.00000  Uiso   1.00
H599   H     0.43995   0.59174   0.19036   0.00000  Uiso   1.00
H600   H     0.47790   0.61085   0.15693   0.00000  Uiso   1.00
C601   C     0.75413   0.49970   0.25014   0.00000  Uiso   1.00
C602   C     0.91249   0.50039   0.25041   0.00000  Uiso   1.00
C603   C     0.75927   0.51717   0.01697   0.00000  Uiso   1.00
C604   C     0.90492   0.54190   0.48021   0.00000  Uiso   1.00
C605   C     0.68599   0.45950   0.23863   0.00000  Uiso   1.00
C606   C     0.98078   0.53797   0.26850   0.00000  Uiso   1.00
C607   C     0.97683   0.46323   0.23129   0.00000  Uiso   1.00
C608   C     0.68937   0.53889   0.26610   0.00000  Uiso   1.00
C609   C     0.95716   0.50085   0.24996   0.00000  Uiso   1.00
C610   C     0.70940   0.49936   0.25148   0.00000  Uiso   1.00
C611   C     0.81176   0.35744   0.21758   0.00000  Uiso   1.00
C612   C     0.85397   0.64244   0.28315   0.00000  Uiso   1.00
C613   C     0.85459   0.35780   0.28268   0.00000  Uiso   1.00
C614   C     0.81202   0.64200   0.21725   0.00000  Uiso   1.00
C615   C     0.83413   0.50067   0.16428   0.00000  Uiso   1.00
C616   C     0.83356   0.49985   0.33570   0.00000  Uiso   1.00
C617   C     0.87089   0.51557   0.40861   0.00000  Uiso   1.00
C618   C     0.79729   0.50194   0.08954   0.00000  Uiso   1.00
C619   C     0.83470   0.50049   0.38468   0.00000  Uiso   1.00
C620   C     0.83466   0.50478   0.11530   0.00000  Uiso   1.00
C621   C     0.79867   0.49295   0.40715   0.00000  Uiso   1.00
C622   C     0.87056   0.52136   0.09561   0.00000  Uiso   1.00
C623   C     0.79746   0.50818   0.45107   0.00000  Uiso   1.00
C624   C     0.86963   0.52961   0.04894   0.00000  Uiso   1.00
C625   C     0.83375   0.51857   0.47619   0.00000  Uiso   1.00
C626   C     0.83323   0.52068   0.02300   0.00000  Uiso   1.00
C627   C     0.87043   0.52480   0.45485   0.00000  Uiso   1.00
C628   C     0.79617   0.51294   0.04353   0.00000  Uiso   1.00
C629   C     0.76008   0.51507   0.47037   0.00000  Uiso   1.00
C630   C     0.90371   0.54698   0.02681   0.00000  Uiso   1.00
Cu631  Cu    0.83333   0.54689   0.25000   0.00000  Uiso   1.00
Cu632  Cu    0.83333   0.45311   0.25000   0.00000  Uiso   1.00
N633   N     0.83333   0.61736   0.25000   0.00000  Uiso   1.00
N634   N     0.83333   0.38264   0.25000   0.00000  Uiso   1.00
O635   O     0.77321   0.53958   0.24999   0.00000  Uiso   1.00
O636   O     0.89345   0.46042   0.25000   0.00000  Uiso   1.00
O637   O     0.89345   0.53958   0.25000   0.00000  Uiso   1.00
O638   O     0.77321   0.46042   0.24999   0.00000  Uiso   1.00
O639   O     0.83332   0.53960   0.18513   0.00000  Uiso   1.00
O640   O     0.83334   0.46040   0.31487   0.00000  Uiso   1.00
O641   O     0.83334   0.53960   0.31487   0.00000  Uiso   1.00
O642   O     0.83332   0.46040   0.18513   0.00000  Uiso   1.00
O643   O     0.90692   0.52039   0.38705   0.00000  Uiso   1.00
C644   C     0.92307   0.47635   0.37922   0.00000  Uiso   1.00
H645   H     0.94501   0.48016   0.35275   0.00000  Uiso   1.00
H646   H     0.89942   0.45136   0.36697   0.00000  Uiso   1.00
C647   C     0.94532   0.45574   0.42060   0.00000  Uiso   1.00
H648   H     0.92407   0.44976   0.44745   0.00000  Uiso   1.00
H649   H     0.95812   0.42198   0.41207   0.00000  Uiso   1.00
H650   H     0.97070   0.47884   0.43278   0.00000  Uiso   1.00
O651   O     0.76202   0.48943   0.11009   0.00000  Uiso   1.00
C652   C     0.74889   0.44480   0.09584   0.00000  Uiso   1.00
H653   H     0.77168   0.41882   0.10631   0.00000  Uiso   1.00
H654   H     0.74412   0.44195   0.05913   0.00000  Uiso   1.00
C655   C     0.70857   0.43276   0.11564   0.00000  Uiso   1.00
H656   H     0.68463   0.45661   0.10243   0.00000  Uiso   1.00
H657   H     0.69917   0.39677   0.10706   0.00000  Uiso   1.00
H658   H     0.71185   0.43609   0.15226   0.00000  Uiso   1.00
O659   O     0.77132   0.45774   0.39454   0.00000  Uiso   1.00
C660   C     0.74647   0.46923   0.35662   0.00000  Uiso   1.00
H661   H     0.75882   0.45270   0.32766   0.00000  Uiso   1.00
H662   H     0.74402   0.50701   0.35071   0.00000  Uiso   1.00
C663   C     0.70423   0.44835   0.36147   0.00000  Uiso   1.00
H664   H     0.69248   0.45952   0.39322   0.00000  Uiso   1.00
H665   H     0.68307   0.45970   0.33362   0.00000  Uiso   1.00
H666   H     0.70554   0.41009   0.36153   0.00000  Uiso   1.00
O667   O     0.90793   0.52009   0.11970   0.00000  Uiso   1.00
C668   C     0.91563   0.56173   0.14315   0.00000  Uiso   1.00
H669   H     0.90220   0.55977   0.17547   0.00000  Uiso   1.00
H670   H     0.90259   0.59245   0.12578   0.00000  Uiso   1.00
C671   C     0.96142   0.56874   0.15260   0.00000  Uiso   1.00
H672   H     0.97710   0.57459   0.12152   0.00000  Uiso   1.00
H673   H     0.96740   0.59895   0.17467   0.00000  Uiso   1.00
H674   H     0.97467   0.53770   0.16906   0.00000  Uiso   1.00
O675   O     0.72480   0.52303   0.44402   0.00000  Uiso   1.00
C676   C     0.72777   0.56792   0.42517   0.00000  Uiso   1.00
H677   H     0.75544   0.57226   0.40583   0.00000  Uiso   1.00
H678   H     0.72876   0.59457   0.45171   0.00000  Uiso   1.00
C679   C     0.69117   0.57687   0.39309   0.00000  Uiso   1.00
H680   H     0.99726   0.58268   0.41172   0.00000  Uiso   1.00
H681   H     0.69690   0.60838   0.37299   0.00000  Uiso   1.00
H682   H     0.68510   0.54727   0.37040   0.00000  Uiso   1.00
O683   O     0.93610   0.56878   0.05014   0.00000  Uiso   1.00
C684   C     0.93484   0.61733   0.04246   0.00000  Uiso   1.00
H685   H     0.92191   0.63453   0.07098   0.00000  Uiso   1.00
H686   H     0.91565   0.62810   0.01245   0.00000  Uiso   1.00
C687   C     0.97788   0.63669   0.03823   0.00000  Uiso   1.00
H688   H     0.99215   0.62082   0.00971   0.00000  Uiso   1.00
H689   H     0.97678   0.34125   0.03266   0.00000  Uiso   1.00
H690   H     0.99707   0.62987   0.06911   0.00000  Uiso   1.00
N691   N     0.72160   0.52571   0.03696   0.00000  Uiso   1.00
H692   H     0.69996   0.50105   0.02539   0.00000  Uiso   1.00
H693   H     0.71137   0.55806   0.02613   0.00000  Uiso   1.00
N694   N     0.94092   0.55568   0.45870   0.00000  Uiso   1.00
H695   H     0.96672   0.54550   0.47809   0.00000  Uiso   1.00
H696   H     0.94132   0.59150   0.45507   0.00000  Uiso   1.00
N697   N     0.70516   0.41538   0.23505   0.00000  Uiso   1.00
H698   H     0.71756   0.40681   0.26681   0.00000  Uiso   1.00
H699   H     0.68404   0.38875   0.22808   0.00000  Uiso   1.00
N700   N     0.96347   0.57531   0.29125   0.00000  Uiso   1.00
H701   H     0.94745   0.56162   0.31737   0.00000  Uiso   1.00
H702   H     0.94529   0.59488   0.26887   0.00000  Uiso   1.00
N703   N     0.95390   0.42989   0.20397   0.00000  Uiso   1.00
H704   H     0.93285   0.44778   0.18322   0.00000  Uiso   1.00
H705   H     0.97263   0.41627   0.18067   0.00000  Uiso   1.00
N706   N     0.71057   0.58025   0.28119   0.00000  Uiso   1.00
H707   H     0.72308   0.59715   0.25424   0.00000  Uiso   1.00
H708   H     0.73294   0.57253   0.30612   0.00000  Uiso   1.00
N709   N     0.79071   0.37919   0.18063   0.00000  Uiso   1.00
H710   H     0.81242   0.38792   0.15793   0.00000  Uiso   1.00
H711   H     0.77526   0.40778   0.19083   0.00000  Uiso   1.00
N712   N     0.87422   0.62074   0.32087   0.00000  Uiso   1.00
H713   H     0.88771   0.59090   0.31114   0.00000  Uiso   1.00
H714   H     0.85279   0.61341   0.34435   0.00000  Uiso   1.00
N715   N     0.87749   0.37969   0.31860   0.00000  Uiso   1.00
H716   H     0.85766   0.39044   0.34207   0.00000  Uiso   1.00
H717   H     0.89594   0.40597   0.30684   0.00000  Uiso   1.00
N718   N     0.79054   0.61987   0.18023   0.00000  Uiso   1.00
H719   H     0.77329   0.59174   0.19036   0.00000  Uiso   1.00
H720   H     0.81124   0.61085   0.15693   0.00000  Uiso   1.00
C721   C     0.08746   0.83303   0.25014   0.00000  Uiso   1.00
C722   C     0.24582   0.83372   0.25041   0.00000  Uiso   1.00
C723   C     0.09261   0.85050   0.01697   0.00000  Uiso   1.00
C724   C     0.23825   0.87523   0.48021   0.00000  Uiso   1.00
C725   C     0.01932   0.79284   0.23863   0.00000  Uiso   1.00
C726   C     0.31412   0.87131   0.26850   0.00000  Uiso   1.00
C727   C     0.31016   0.79656   0.23129   0.00000  Uiso   1.00
C728   C     0.02270   0.87223   0.26610   0.00000  Uiso   1.00
C729   C     0.29050   0.83418   0.24996   0.00000  Uiso   1.00
C730   C     0.04273   0.83269   0.25148   0.00000  Uiso   1.00
C731   C     0.14509   0.69078   0.21758   0.00000  Uiso   1.00
C732   C     0.18730   0.97578   0.28315   0.00000  Uiso   1.00
C733   C     0.18792   0.69113   0.28268   0.00000  Uiso   1.00
C734   C     0.14536   0.97533   0.21725   0.00000  Uiso   1.00
C735   C     0.16746   0.83401   0.16428   0.00000  Uiso   1.00
C736   C     0.16689   0.83318   0.33570   0.00000  Uiso   1.00
C737   C     0.20422   0.84890   0.40861   0.00000  Uiso   1.00
C738   C     0.13062   0.83527   0.08954   0.00000  Uiso   1.00
C739   C     0.16803   0.83382   0.38468   0.00000  Uiso   1.00
C740   C     0.16800   0.83811   0.11530   0.00000  Uiso   1.00
C741   C     0.13201   0.82628   0.40715   0.00000  Uiso   1.00
C742   C     0.20389   0.85469   0.09561   0.00000  Uiso   1.00
C743   C     0.13079   0.84151   0.45107   0.00000  Uiso   1.00
C744   C     0.20296   0.86294   0.04894   0.00000  Uiso   1.00
C745   C     0.16708   0.85190   0.47619   0.00000  Uiso   1.00
C746   C     0.16656   0.85401   0.02300   0.00000  Uiso   1.00
C747   C     0.20376   0.85813   0.45485   0.00000  Uiso   1.00
C748   C     0.12951   0.84628   0.04353   0.00000  Uiso   1.00
C749   C     0.09341   0.84840   0.47037   0.00000  Uiso   1.00
C750   C     0.23704   0.88031   0.02681   0.00000  Uiso   1.00
Cu751  Cu    0.16667   0.88022   0.25000   0.00000  Uiso   1.00
Cu752  Cu    0.16667   0.78645   0.25000   0.00000  Uiso   1.00
N753   N     0.16667   0.95069   0.25000   0.00000  Uiso   1.00
N754   N     0.16667   0.71598   0.25000   0.00000  Uiso   1.00
O755   O     0.10655   0.87291   0.24999   0.00000  Uiso   1.00
O756   O     0.22679   0.79375   0.25000   0.00000  Uiso   1.00
O757   O     0.22679   0.87291   0.25000   0.00000  Uiso   1.00
O758   O     0.10655   0.79375   0.24999   0.00000  Uiso   1.00
O759   O     0.16666   0.87293   0.18513   0.00000  Uiso   1.00
O760   O     0.16668   0.79373   0.31487   0.00000  Uiso   1.00
O761   O     0.16668   0.87293   0.31487   0.00000  Uiso   1.00
O762   O     0.16666   0.79373   0.18513   0.00000  Uiso   1.00
O763   O     0.24025   0.85373   0.38705   0.00000  Uiso   1.00
C764   C     0.25640   0.80968   0.37922   0.00000  Uiso   1.00
H765   H     0.27835   0.81350   0.35275   0.00000  Uiso   1.00
H766   H     0.23275   0.78470   0.36697   0.00000  Uiso   1.00
C767   C     0.27866   0.78907   0.42060   0.00000  Uiso   1.00
H768   H     0.25740   0.78309   0.44745   0.00000  Uiso   1.00
H769   H     0.29145   0.75531   0.41207   0.00000  Uiso   1.00
H770   H     0.30403   0.81217   0.43278   0.00000  Uiso   1.00
O771   O     0.09535   0.82276   0.11009   0.00000  Uiso   1.00
C772   C     0.08222   0.77813   0.09584   0.00000  Uiso   1.00
H773   H     0.10501   0.75215   0.10631   0.00000  Uiso   1.00
H774   H     0.07745   0.77528   0.05913   0.00000  Uiso   1.00
C775   C     0.04191   0.76609   0.11564   0.00000  Uiso   1.00
H776   H     0.01796   0.78994   0.10243   0.00000  Uiso   1.00
H777   H     0.03250   0.73010   0.10706   0.00000  Uiso   1.00
H778   H     0.04518   0.76942   0.15226   0.00000  Uiso   1.00
O779   O     0.10466   0.79108   0.39454   0.00000  Uiso   1.00
C780   C     0.07980   0.80256   0.35662   0.00000  Uiso   1.00
H781   H     0.09216   0.78603   0.32766   0.00000  Uiso   1.00
H782   H     0.07735   0.84034   0.35071   0.00000  Uiso   1.00
C783   C     0.03756   0.78169   0.36147   0.00000  Uiso   1.00
H784   H     0.02582   0.79285   0.39322   0.00000  Uiso   1.00
H785   H     0.01640   0.79303   0.33362   0.00000  Uiso   1.00
H786   H     0.03888   0.74342   0.36153   0.00000  Uiso   1.00
O787   O     0.24126   0.85342   0.11970   0.00000  Uiso   1.00
C788   C     0.24897   0.89507   0.14315   0.00000  Uiso   1.00
H789   H     0.23553   0.89311   0.17547   0.00000  Uiso   1.00
H790   H     0.23592   0.92579   0.12578   0.00000  Uiso   1.00
C791   C     0.29475   0.90208   0.15260   0.00000  Uiso   1.00
H792   H     0.31044   0.90792   0.12152   0.00000  Uiso   1.00
H793   H     0.30073   0.93228   0.17467   0.00000  Uiso   1.00
H794   H     0.30800   0.87103   0.16906   0.00000  Uiso   1.00
O795   O     0.05813   0.85636   0.44402   0.00000  Uiso   1.00
C796   C     0.06110   0.90126   0.42517   0.00000  Uiso   1.00
H797   H     0.08878   0.90559   0.40583   0.00000  Uiso   1.00
H798   H     0.06209   0.92790   0.45171   0.00000  Uiso   1.00
C799   C     0.02450   0.91020   0.39309   0.00000  Uiso   1.00
H800   H     0.33059   0.91601   0.41172   0.00000  Uiso   1.00
H801   H     0.03023   0.94172   0.37299   0.00000  Uiso   1.00
H802   H     0.01844   0.88060   0.37040   0.00000  Uiso   1.00
O803   O     0.26944   0.90211   0.05014   0.00000  Uiso   1.00
C804   C     0.26817   0.95066   0.04246   0.00000  Uiso   1.00
H805   H     0.25524   0.96786   0.07098   0.00000  Uiso   1.00
H806   H     0.24898   0.96143   0.01245   0.00000  Uiso   1.00
C807   C     0.31122   0.97002   0.03823   0.00000  Uiso   1.00
H808   H     0.32548   0.95415   0.00971   0.00000  Uiso   1.00
H809   H     0.31011   0.67459   0.03266   0.00000  Uiso   1.00
H810   H     0.33040   0.96321   0.06911   0.00000  Uiso   1.00
N811   N     0.05493   0.85904   0.03696   0.00000  Uiso   1.00
H812   H     0.03329   0.83438   0.02539   0.00000  Uiso   1.00
H813   H     0.04471   0.89139   0.02613   0.00000  Uiso   1.00
N814   N     0.27425   0.88901   0.45870   0.00000  Uiso   1.00
H815   H     0.30005   0.87883   0.47809   0.00000  Uiso   1.00
H816   H     0.27465   0.92484   0.45507   0.00000  Uiso   1.00
N817   N     0.03850   0.74872   0.23505   0.00000  Uiso   1.00
H818   H     0.05090   0.74014   0.26681   0.00000  Uiso   1.00
H819   H     0.01737   0.72208   0.22808   0.00000  Uiso   1.00
N820   N     0.29680   0.90864   0.29125   0.00000  Uiso   1.00
H821   H     0.28078   0.89496   0.31737   0.00000  Uiso   1.00
H822   H     0.27862   0.92821   0.26887   0.00000  Uiso   1.00
N823   N     0.28724   0.76322   0.20397   0.00000  Uiso   1.00
H824   H     0.26618   0.78111   0.18322   0.00000  Uiso   1.00
H825   H     0.30597   0.74961   0.18067   0.00000  Uiso   1.00
N826   N     0.04390   0.91358   0.28119   0.00000  Uiso   1.00
H827   H     0.05641   0.93049   0.25424   0.00000  Uiso   1.00
H828   H     0.06627   0.90586   0.30612   0.00000  Uiso   1.00
N829   N     0.12404   0.71252   0.18063   0.00000  Uiso   1.00
H830   H     0.14575   0.72125   0.15793   0.00000  Uiso   1.00
H831   H     0.10859   0.74111   0.19083   0.00000  Uiso   1.00
N832   N     0.20756   0.95407   0.32087   0.00000  Uiso   1.00
H833   H     0.22105   0.92423   0.31114   0.00000  Uiso   1.00
H834   H     0.18613   0.94675   0.34435   0.00000  Uiso   1.00
N835   N     0.21082   0.71302   0.31860   0.00000  Uiso   1.00
H836   H     0.19099   0.72377   0.34207   0.00000  Uiso   1.00
H837   H     0.22927   0.73930   0.30684   0.00000  Uiso   1.00
N838   N     0.12387   0.95321   0.18023   0.00000  Uiso   1.00
H839   H     0.10662   0.92507   0.19036   0.00000  Uiso   1.00
H840   H     0.14457   0.94418   0.15693   0.00000  Uiso   1.00
C841   C     0.42079   0.83303   0.25014   0.00000  Uiso   1.00
C842   C     0.57916   0.83372   0.25041   0.00000  Uiso   1.00
C843   C     0.42594   0.85050   0.01697   0.00000  Uiso   1.00
C844   C     0.57159   0.87523   0.48021   0.00000  Uiso   1.00
C845   C     0.35266   0.79284   0.23863   0.00000  Uiso   1.00
C846   C     0.64745   0.87131   0.26850   0.00000  Uiso   1.00
C847   C     0.64349   0.79656   0.23129   0.00000  Uiso   1.00
C848   C     0.35603   0.87223   0.26610   0.00000  Uiso   1.00
C849   C     0.62383   0.83418   0.24996   0.00000  Uiso   1.00
C850   C     0.37607   0.83269   0.25148   0.00000  Uiso   1.00
C851   C     0.47843   0.69078   0.21758   0.00000  Uiso   1.00
C852   C     0.52063   0.97578   0.28315   0.00000  Uiso   1.00
C853   C     0.52126   0.69113   0.28268   0.00000  Uiso   1.00
C854   C     0.47869   0.97533   0.21725   0.00000  Uiso   1.00
C855   C     0.50079   0.83401   0.16428   0.00000  Uiso   1.00
C856   C     0.50022   0.83318   0.33570   0.00000  Uiso   1.00
C857   C     0.53756   0.84890   0.40861   0.00000  Uiso   1.00
C858   C     0.46395   0.83527   0.08954   0.00000  Uiso   1.00
C859   C     0.50137   0.83382   0.38468   0.00000  Uiso   1.00
C860   C     0.50133   0.83811   0.11530   0.00000  Uiso   1.00
C861   C     0.46534   0.82628   0.40715   0.00000  Uiso   1.00
C862   C     0.53722   0.85469   0.09561   0.00000  Uiso   1.00
C863   C     0.46413   0.84151   0.45107   0.00000  Uiso   1.00
C864   C     0.53630   0.86294   0.04894   0.00000  Uiso   1.00
C865   C     0.50041   0.85190   0.47619   0.00000  Uiso   1.00
C866   C     0.49989   0.85401   0.02300   0.00000  Uiso   1.00
C867   C     0.53710   0.85813   0.45485   0.00000  Uiso   1.00
C868   C     0.46284   0.84628   0.04353   0.00000  Uiso   1.00
C869   C     0.42674   0.84840   0.47037   0.00000  Uiso   1.00
C870   C     0.57037   0.88031   0.02681   0.00000  Uiso   1.00
Cu871  Cu    0.50000   0.88022   0.25000   0.00000  Uiso   1.00
Cu872  Cu    0.50000   0.78645   0.25000   0.00000  Uiso   1.00
N873   N     0.50000   0.95069   0.25000   0.00000  Uiso   1.00
N874   N     0.50000   0.71598   0.25000   0.00000  Uiso   1.00
O875   O     0.43988   0.87291   0.24999   0.00000  Uiso   1.00
O876   O     0.56012   0.79375   0.25000   0.00000  Uiso   1.00
O877   O     0.56012   0.87291   0.25000   0.00000  Uiso   1.00
O878   O     0.43988   0.79375   0.24999   0.00000  Uiso   1.00
O879   O     0.49999   0.87293   0.18513   0.00000  Uiso   1.00
O880   O     0.50001   0.79373   0.31487   0.00000  Uiso   1.00
O881   O     0.50001   0.87293   0.31487   0.00000  Uiso   1.00
O882   O     0.49999   0.79373   0.18513   0.00000  Uiso   1.00
O883   O     0.57358   0.85373   0.38705   0.00000  Uiso   1.00
C884   C     0.58973   0.80968   0.37922   0.00000  Uiso   1.00
H885   H     0.61168   0.81350   0.35275   0.00000  Uiso   1.00
H886   H     0.56608   0.78470   0.36697   0.00000  Uiso   1.00
C887   C     0.61199   0.78907   0.42060   0.00000  Uiso   1.00
H888   H     0.59074   0.78309   0.44745   0.00000  Uiso   1.00
H889   H     0.62478   0.75531   0.41207   0.00000  Uiso   1.00
H890   H     0.63737   0.81217   0.43278   0.00000  Uiso   1.00
O891   O     0.42869   0.82276   0.11009   0.00000  Uiso   1.00
C892   C     0.41555   0.77813   0.09584   0.00000  Uiso   1.00
H893   H     0.43834   0.75215   0.10631   0.00000  Uiso   1.00
H894   H     0.41079   0.77528   0.05913   0.00000  Uiso   1.00
C895   C     0.37524   0.76609   0.11564   0.00000  Uiso   1.00
H896   H     0.35129   0.78994   0.10243   0.00000  Uiso   1.00
H897   H     0.36584   0.73010   0.10706   0.00000  Uiso   1.00
H898   H     0.37852   0.76942   0.15226   0.00000  Uiso   1.00
O899   O     0.43799   0.79108   0.39454   0.00000  Uiso   1.00
C900   C     0.41314   0.80256   0.35662   0.00000  Uiso   1.00
H901   H     0.42549   0.78603   0.32766   0.00000  Uiso   1.00
H902   H     0.41069   0.84034   0.35071   0.00000  Uiso   1.00
C903   C     0.37089   0.78169   0.36147   0.00000  Uiso   1.00
H904   H     0.35915   0.79285   0.39322   0.00000  Uiso   1.00
H905   H     0.34973   0.79303   0.33362   0.00000  Uiso   1.00
H906   H     0.37221   0.74342   0.36153   0.00000  Uiso   1.00
O907   O     0.57459   0.85342   0.11970   0.00000  Uiso   1.00
C908   C     0.58230   0.89507   0.14315   0.00000  Uiso   1.00
H909   H     0.56886   0.89311   0.17547   0.00000  Uiso   1.00
H910   H     0.56925   0.92579   0.12578   0.00000  Uiso   1.00
C911   C     0.62809   0.90208   0.15260   0.00000  Uiso   1.00
H912   H     0.64377   0.90792   0.12152   0.00000  Uiso   1.00
H913   H     0.63406   0.93228   0.17467   0.00000  Uiso   1.00
H914   H     0.64134   0.87103   0.16906   0.00000  Uiso   1.00
O915   O     0.39147   0.85636   0.44402   0.00000  Uiso   1.00
C916   C     0.39444   0.90126   0.42517   0.00000  Uiso   1.00
H917   H     0.42211   0.90559   0.40583   0.00000  Uiso   1.00
H918   H     0.39542   0.92790   0.45171   0.00000  Uiso   1.00
C919   C     0.35783   0.91020   0.39309   0.00000  Uiso   1.00
H920   H     0.66393   0.91601   0.41172   0.00000  Uiso   1.00
H921   H     0.36356   0.94172   0.37299   0.00000  Uiso   1.00
H922   H     0.35177   0.88060   0.37040   0.00000  Uiso   1.00
O923   O     0.60277   0.90211   0.05014   0.00000  Uiso   1.00
C924   C     0.60150   0.95066   0.04246   0.00000  Uiso   1.00
H925   H     0.58857   0.96786   0.07098   0.00000  Uiso   1.00
H926   H     0.58232   0.96143   0.01245   0.00000  Uiso   1.00
C927   C     0.64455   0.97002   0.03823   0.00000  Uiso   1.00
H928   H     0.65882   0.95415   0.00971   0.00000  Uiso   1.00
H929   H     0.64345   0.67459   0.03266   0.00000  Uiso   1.00
H930   H     0.66373   0.96321   0.06911   0.00000  Uiso   1.00
N931   N     0.38826   0.85904   0.03696   0.00000  Uiso   1.00
H932   H     0.36663   0.83438   0.02539   0.00000  Uiso   1.00
H933   H     0.37804   0.89139   0.02613   0.00000  Uiso   1.00
N934   N     0.60758   0.88901   0.45870   0.00000  Uiso   1.00
H935   H     0.63338   0.87883   0.47809   0.00000  Uiso   1.00
H936   H     0.60799   0.92484   0.45507   0.00000  Uiso   1.00
N937   N     0.37183   0.74872   0.23505   0.00000  Uiso   1.00
H938   H     0.38423   0.74014   0.26681   0.00000  Uiso   1.00
H939   H     0.35071   0.72208   0.22808   0.00000  Uiso   1.00
N940   N     0.63014   0.90864   0.29125   0.00000  Uiso   1.00
H941   H     0.61411   0.89496   0.31737   0.00000  Uiso   1.00
H942   H     0.61196   0.92821   0.26887   0.00000  Uiso   1.00
N943   N     0.62057   0.76322   0.20397   0.00000  Uiso   1.00
H944   H     0.59951   0.78111   0.18322   0.00000  Uiso   1.00
H945   H     0.63930   0.74961   0.18067   0.00000  Uiso   1.00
N946   N     0.37724   0.91358   0.28119   0.00000  Uiso   1.00
H947   H     0.38975   0.93049   0.25424   0.00000  Uiso   1.00
H948   H     0.39961   0.90586   0.30612   0.00000  Uiso   1.00
N949   N     0.45738   0.71252   0.18063   0.00000  Uiso   1.00
H950   H     0.47908   0.72125   0.15793   0.00000  Uiso   1.00
H951   H     0.44192   0.74111   0.19083   0.00000  Uiso   1.00
N952   N     0.54089   0.95407   0.32087   0.00000  Uiso   1.00
H953   H     0.55438   0.92423   0.31114   0.00000  Uiso   1.00
H954   H     0.51946   0.94675   0.34435   0.00000  Uiso   1.00
N955   N     0.54416   0.71302   0.31860   0.00000  Uiso   1.00
H956   H     0.52433   0.72377   0.34207   0.00000  Uiso   1.00
H957   H     0.56260   0.73930   0.30684   0.00000  Uiso   1.00
N958   N     0.45721   0.95321   0.18023   0.00000  Uiso   1.00
H959   H     0.43995   0.92507   0.19036   0.00000  Uiso   1.00
H960   H     0.47790   0.94418   0.15693   0.00000  Uiso   1.00
C961   C     0.75413   0.83303   0.25014   0.00000  Uiso   1.00
C962   C     0.91249   0.83372   0.25041   0.00000  Uiso   1.00
C963   C     0.75927   0.85050   0.01697   0.00000  Uiso   1.00
C964   C     0.90492   0.87523   0.48021   0.00000  Uiso   1.00
C965   C     0.68599   0.79284   0.23863   0.00000  Uiso   1.00
C966   C     0.98078   0.87131   0.26850   0.00000  Uiso   1.00
C967   C     0.97683   0.79656   0.23129   0.00000  Uiso   1.00
C968   C     0.68937   0.87223   0.26610   0.00000  Uiso   1.00
C969   C     0.95716   0.83418   0.24996   0.00000  Uiso   1.00
C970   C     0.70940   0.83269   0.25148   0.00000  Uiso   1.00
C971   C     0.81176   0.69078   0.21758   0.00000  Uiso   1.00
C972   C     0.85397   0.97578   0.28315   0.00000  Uiso   1.00
C973   C     0.85459   0.69113   0.28268   0.00000  Uiso   1.00
C974   C     0.81202   0.97533   0.21725   0.00000  Uiso   1.00
C975   C     0.83413   0.83401   0.16428   0.00000  Uiso   1.00
C976   C     0.83356   0.83318   0.33570   0.00000  Uiso   1.00
C977   C     0.87089   0.84890   0.40861   0.00000  Uiso   1.00
C978   C     0.79729   0.83527   0.08954   0.00000  Uiso   1.00
C979   C     0.83470   0.83382   0.38468   0.00000  Uiso   1.00
C980   C     0.83466   0.83811   0.11530   0.00000  Uiso   1.00
C981   C     0.79867   0.82628   0.40715   0.00000  Uiso   1.00
C982   C     0.87056   0.85469   0.09561   0.00000  Uiso   1.00
C983   C     0.79746   0.84151   0.45107   0.00000  Uiso   1.00
C984   C     0.86963   0.86294   0.04894   0.00000  Uiso   1.00
C985   C     0.83375   0.85190   0.47619   0.00000  Uiso   1.00
C986   C     0.83323   0.85401   0.02300   0.00000  Uiso   1.00
C987   C     0.87043   0.85813   0.45485   0.00000  Uiso   1.00
C988   C     0.79617   0.84628   0.04353   0.00000  Uiso   1.00
C989   C     0.76008   0.84840   0.47037   0.00000  Uiso   1.00
C990   C     0.90371   0.88031   0.02681   0.00000  Uiso   1.00
Cu991  Cu    0.83333   0.88022   0.25000   0.00000  Uiso   1.00
Cu992  Cu    0.83333   0.78645   0.25000   0.00000  Uiso   1.00
N993   N     0.83333   0.95069   0.25000   0.00000  Uiso   1.00
N994   N     0.83333   0.71598   0.25000   0.00000  Uiso   1.00
O995   O     0.77321   0.87291   0.24999   0.00000  Uiso   1.00
O996   O     0.89345   0.79375   0.25000   0.00000  Uiso   1.00
O997   O     0.89345   0.87291   0.25000   0.00000  Uiso   1.00
O998   O     0.77321   0.79375   0.24999   0.00000  Uiso   1.00
O999   O     0.83332   0.87293   0.18513   0.00000  Uiso   1.00
O1000  O     0.83334   0.79373   0.31487   0.00000  Uiso   1.00
O1001  O     0.83334   0.87293   0.31487   0.00000  Uiso   1.00
O1002  O     0.83332   0.79373   0.18513   0.00000  Uiso   1.00
O1003  O     0.90692   0.85373   0.38705   0.00000  Uiso   1.00
C1004  C     0.92307   0.80968   0.37922   0.00000  Uiso   1.00
H1005  H     0.94501   0.81350   0.35275   0.00000  Uiso   1.00
H1006  H     0.89942   0.78470   0.36697   0.00000  Uiso   1.00
C1007  C     0.94532   0.78907   0.42060   0.00000  Uiso   1.00
H1008  H     0.92407   0.78309   0.44745   0.00000  Uiso   1.00
H1009  H     0.95812   0.75531   0.41207   0.00000  Uiso   1.00
H1010  H     0.97070   0.81217   0.43278   0.00000  Uiso   1.00
O1011  O     0.76202   0.82276   0.11009   0.00000  Uiso   1.00
C1012  C     0.74889   0.77813   0.09584   0.00000  Uiso   1.00
H1013  H     0.77168   0.75215   0.10631   0.00000  Uiso   1.00
H1014  H     0.74412   0.77528   0.05913   0.00000  Uiso   1.00
C1015  C     0.70857   0.76609   0.11564   0.00000  Uiso   1.00
H1016  H     0.68463   0.78994   0.10243   0.00000  Uiso   1.00
H1017  H     0.69917   0.73010   0.10706   0.00000  Uiso   1.00
H1018  H     0.71185   0.76942   0.15226   0.00000  Uiso   1.00
O1019  O     0.77132   0.79108   0.39454   0.00000  Uiso   1.00
C1020  C     0.74647   0.80256   0.35662   0.00000  Uiso   1.00
H1021  H     0.75882   0.78603   0.32766   0.00000  Uiso   1.00
H1022  H     0.74402   0.84034   0.35071   0.00000  Uiso   1.00
C1023  C     0.70423   0.78169   0.36147   0.00000  Uiso   1.00
H1024  H     0.69248   0.79285   0.39322   0.00000  Uiso   1.00
H1025  H     0.68307   0.79303   0.33362   0.00000  Uiso   1.00
H1026  H     0.70554   0.74342   0.36153   0.00000  Uiso   1.00
O1027  O     0.90793   0.85342   0.11970   0.00000  Uiso   1.00
C1028  C     0.91563   0.89507   0.14315   0.00000  Uiso   1.00
H1029  H     0.90220   0.89311   0.17547   0.00000  Uiso   1.00
H1030  H     0.90259   0.92579   0.12578   0.00000  Uiso   1.00
C1031  C     0.96142   0.90208   0.15260   0.00000  Uiso   1.00
H1032  H     0.97710   0.90792   0.12152   0.00000  Uiso   1.00
H1033  H     0.96740   0.93228   0.17467   0.00000  Uiso   1.00
H1034  H     0.97467   0.87103   0.16906   0.00000  Uiso   1.00
O1035  O     0.72480   0.85636   0.44402   0.00000  Uiso   1.00
C1036  C     0.72777   0.90126   0.42517   0.00000  Uiso   1.00
H1037  H     0.75544   0.90559   0.40583   0.00000  Uiso   1.00
H1038  H     0.72876   0.92790   0.45171   0.00000  Uiso   1.00
C1039  C     0.69117   0.91020   0.39309   0.00000  Uiso   1.00
H1040  H     0.99726   0.91601   0.41172   0.00000  Uiso   1.00
H1041  H     0.69690   0.94172   0.37299   0.00000  Uiso   1.00
H1042  H     0.68510   0.88060   0.37040   0.00000  Uiso   1.00
O1043  O     0.93610   0.90211   0.05014   0.00000  Uiso   1.00
C1044  C     0.93484   0.95066   0.04246   0.00000  Uiso   1.00
H1045  H     0.92191   0.96786   0.07098   0.00000  Uiso   1.00
H1046  H     0.91565   0.96143   0.01245   0.00000  Uiso   1.00
C1047  C     0.97788   0.97002   0.03823   0.00000  Uiso   1.00
H1048  H     0.99215   0.95415   0.00971   0.00000  Uiso   1.00
H1049  H     0.97678   0.67459   0.03266   0.00000  Uiso   1.00
H1050  H     0.99707   0.96321   0.06911   0.00000  Uiso   1.00
N1051  N     0.72160   0.85904   0.03696   0.00000  Uiso   1.00
H1052  H     0.69996   0.83438   0.02539   0.00000  Uiso   1.00
H1053  H     0.71137   0.89139   0.02613   0.00000  Uiso   1.00
N1054  N     0.94092   0.88901   0.45870   0.00000  Uiso   1.00
H1055  H     0.96672   0.87883   0.47809   0.00000  Uiso   1.00
H1056  H     0.94132   0.92484   0.45507   0.00000  Uiso   1.00
N1057  N     0.70516   0.74872   0.23505   0.00000  Uiso   1.00
H1058  H     0.71756   0.74014   0.26681   0.00000  Uiso   1.00
H1059  H     0.68404   0.72208   0.22808   0.00000  Uiso   1.00
N1060  N     0.96347   0.90864   0.29125   0.00000  Uiso   1.00
H1061  H     0.94745   0.89496   0.31737   0.00000  Uiso   1.00
H1062  H     0.94529   0.92821   0.26887   0.00000  Uiso   1.00
N1063  N     0.95390   0.76322   0.20397   0.00000  Uiso   1.00
H1064  H     0.93285   0.78111   0.18322   0.00000  Uiso   1.00
H1065  H     0.97263   0.74961   0.18067   0.00000  Uiso   1.00
N1066  N     0.71057   0.91358   0.28119   0.00000  Uiso   1.00
H1067  H     0.72308   0.93049   0.25424   0.00000  Uiso   1.00
H1068  H     0.73294   0.90586   0.30612   0.00000  Uiso   1.00
N1069  N     0.79071   0.71252   0.18063   0.00000  Uiso   1.00
H1070  H     0.81242   0.72125   0.15793   0.00000  Uiso   1.00
H1071  H     0.77526   0.74111   0.19083   0.00000  Uiso   1.00
N1072  N     0.87422   0.95407   0.32087   0.00000  Uiso   1.00
H1073  H     0.88771   0.92423   0.31114   0.00000  Uiso   1.00
H1074  H     0.85279   0.94675   0.34435   0.00000  Uiso   1.00
N1075  N     0.87749   0.71302   0.31860   0.00000  Uiso   1.00
H1076  H     0.85766   0.72377   0.34207   0.00000  Uiso   1.00
H1077  H     0.89594   0.73930   0.30684   0.00000  Uiso   1.00
N1078  N     0.79054   0.95321   0.18023   0.00000  Uiso   1.00
H1079  H     0.77329   0.92507   0.19036   0.00000  Uiso   1.00
H1080  H     0.81124   0.94418   0.15693   0.00000  Uiso   1.00
C1081  C     0.08746   0.16637   0.75014   0.00000  Uiso   1.00
C1082  C     0.24582   0.16705   0.75041   0.00000  Uiso   1.00
C1083  C     0.09261   0.18383   0.51697   0.00000  Uiso   1.00
C1084  C     0.23825   0.20857   0.98021   0.00000  Uiso   1.00
C1085  C     0.01932   0.12617   0.73863   0.00000  Uiso   1.00
C1086  C     0.31412   0.20464   0.76850   0.00000  Uiso   1.00
C1087  C     0.31016   0.12990   0.73129   0.00000  Uiso   1.00
C1088  C     0.02270   0.20556   0.76610   0.00000  Uiso   1.00
C1089  C     0.29050   0.16751   0.74996   0.00000  Uiso   1.00
C1090  C     0.04273   0.16603   0.75148   0.00000  Uiso   1.00
C1091  C     0.14509   0.02411   0.71758   0.00000  Uiso   1.00
C1092  C     0.18730   0.30911   0.78315   0.00000  Uiso   1.00
C1093  C     0.18792   0.02447   0.78268   0.00000  Uiso   1.00
C1094  C     0.14536   0.30867   0.71725   0.00000  Uiso   1.00
C1095  C     0.16746   0.16734   0.66428   0.00000  Uiso   1.00
C1096  C     0.16689   0.16651   0.83570   0.00000  Uiso   1.00
C1097  C     0.20422   0.18224   0.90861   0.00000  Uiso   1.00
C1098  C     0.13062   0.16860   0.58954   0.00000  Uiso   1.00
C1099  C     0.16803   0.16716   0.88468   0.00000  Uiso   1.00
C1100  C     0.16800   0.17145   0.61530   0.00000  Uiso   1.00
C1101  C     0.13201   0.15962   0.90715   0.00000  Uiso   1.00
C1102  C     0.20389   0.18803   0.59561   0.00000  Uiso   1.00
C1103  C     0.13079   0.17485   0.95107   0.00000  Uiso   1.00
C1104  C     0.20296   0.19627   0.54894   0.00000  Uiso   1.00
C1105  C     0.16708   0.18524   0.97619   0.00000  Uiso   1.00
C1106  C     0.16656   0.18735   0.52300   0.00000  Uiso   1.00
C1107  C     0.20376   0.19147   0.95485   0.00000  Uiso   1.00
C1108  C     0.12951   0.17961   0.54353   0.00000  Uiso   1.00
C1109  C     0.09341   0.18173   0.97037   0.00000  Uiso   1.00
C1110  C     0.23704   0.21364   0.52681   0.00000  Uiso   1.00
Cu1111 Cu    0.16667   0.21355   0.75000   0.00000  Uiso   1.00
Cu1112 Cu    0.16667   0.11978   0.75000   0.00000  Uiso   1.00
N1113  N     0.16667   0.28402   0.75000   0.00000  Uiso   1.00
N1114  N     0.16667   0.04931   0.75000   0.00000  Uiso   1.00
O1115  O     0.10655   0.20625   0.74999   0.00000  Uiso   1.00
O1116  O     0.22679   0.12709   0.75000   0.00000  Uiso   1.00
O1117  O     0.22679   0.20625   0.75000   0.00000  Uiso   1.00
O1118  O     0.10655   0.12709   0.74999   0.00000  Uiso   1.00
O1119  O     0.16666   0.20627   0.68513   0.00000  Uiso   1.00
O1120  O     0.16668   0.12707   0.81487   0.00000  Uiso   1.00
O1121  O     0.16668   0.20627   0.81487   0.00000  Uiso   1.00
O1122  O     0.16666   0.12707   0.68513   0.00000  Uiso   1.00
O1123  O     0.24025   0.18706   0.88705   0.00000  Uiso   1.00
C1124  C     0.25640   0.14302   0.87922   0.00000  Uiso   1.00
H1125  H     0.27835   0.14683   0.85275   0.00000  Uiso   1.00
H1126  H     0.23275   0.11803   0.86697   0.00000  Uiso   1.00
C1127  C     0.27866   0.12241   0.92060   0.00000  Uiso   1.00
H1128  H     0.25740   0.11643   0.94745   0.00000  Uiso   1.00
H1129  H     0.29145   0.08864   0.91207   0.00000  Uiso   1.00
H1130  H     0.30403   0.14550   0.93278   0.00000  Uiso   1.00
O1131  O     0.09535   0.15610   0.61009   0.00000  Uiso   1.00
C1132  C     0.08222   0.11147   0.59584   0.00000  Uiso   1.00
H1133  H     0.10501   0.08549   0.60631   0.00000  Uiso   1.00
H1134  H     0.07745   0.10861   0.55913   0.00000  Uiso   1.00
C1135  C     0.04191   0.09943   0.61564   0.00000  Uiso   1.00
H1136  H     0.01796   0.12328   0.60243   0.00000  Uiso   1.00
H1137  H     0.03250   0.06344   0.60706   0.00000  Uiso   1.00
H1138  H     0.04518   0.10276   0.65226   0.00000  Uiso   1.00
O1139  O     0.10466   0.12441   0.89454   0.00000  Uiso   1.00
C1140  C     0.07980   0.13590   0.85662   0.00000  Uiso   1.00
H1141  H     0.09216   0.11937   0.82766   0.00000  Uiso   1.00
H1142  H     0.07735   0.17367   0.85071   0.00000  Uiso   1.00
C1143  C     0.03756   0.11502   0.86147   0.00000  Uiso   1.00
H1144  H     0.02582   0.12618   0.89322   0.00000  Uiso   1.00
H1145  H     0.01640   0.12636   0.83362   0.00000  Uiso   1.00
H1146  H     0.03888   0.07675   0.86153   0.00000  Uiso   1.00
O1147  O     0.24126   0.18675   0.61970   0.00000  Uiso   1.00
C1148  C     0.24897   0.22840   0.64315   0.00000  Uiso   1.00
H1149  H     0.23553   0.22644   0.67547   0.00000  Uiso   1.00
H1150  H     0.23592   0.25912   0.62578   0.00000  Uiso   1.00
C1151  C     0.29475   0.23541   0.65260   0.00000  Uiso   1.00
H1152  H     0.31044   0.24126   0.62152   0.00000  Uiso   1.00
H1153  H     0.30073   0.26562   0.67467   0.00000  Uiso   1.00
H1154  H     0.30800   0.20436   0.66906   0.00000  Uiso   1.00
O1155  O     0.05813   0.18970   0.94402   0.00000  Uiso   1.00
C1156  C     0.06110   0.23459   0.92517   0.00000  Uiso   1.00
H1157  H     0.08878   0.23893   0.90583   0.00000  Uiso   1.00
H1158  H     0.06209   0.26124   0.95171   0.00000  Uiso   1.00
C1159  C     0.02450   0.24353   0.89309   0.00000  Uiso   1.00
H1160  H     0.33059   0.24934   0.91172   0.00000  Uiso   1.00
H1161  H     0.03023   0.27505   0.87299   0.00000  Uiso   1.00
H1162  H     0.01844   0.21394   0.87040   0.00000  Uiso   1.00
O1163  O     0.26944   0.23544   0.55014   0.00000  Uiso   1.00
C1164  C     0.26817   0.28399   0.54246   0.00000  Uiso   1.00
H1165  H     0.25524   0.30120   0.57098   0.00000  Uiso   1.00
H1166  H     0.24898   0.29476   0.51245   0.00000  Uiso   1.00
C1167  C     0.31122   0.30336   0.53823   0.00000  Uiso   1.00
H1168  H     0.32548   0.28749   0.50971   0.00000  Uiso   1.00
H1169  H     0.31011   0.00792   0.53266   0.00000  Uiso   1.00
H1170  H     0.33040   0.29654   0.56911   0.00000  Uiso   1.00
N1171  N     0.05493   0.19237   0.53696   0.00000  Uiso   1.00
H1172  H     0.03329   0.16772   0.52539   0.00000  Uiso   1.00
H1173  H     0.04471   0.22472   0.52613   0.00000  Uiso   1.00
N1174  N     0.27425   0.22234   0.95870   0.00000  Uiso   1.00
H1175  H     0.30005   0.21216   0.97809   0.00000  Uiso   1.00
H1176  H     0.27465   0.25817   0.95507   0.00000  Uiso   1.00
N1177  N     0.03850   0.08205   0.73505   0.00000  Uiso   1.00
H1178  H     0.05090   0.07347   0.76681   0.00000  Uiso   1.00
H1179  H     0.01737   0.05542   0.72808   0.00000  Uiso   1.00
N1180  N     0.29680   0.24197   0.79125   0.00000  Uiso   1.00
H1181  H     0.28078   0.22829   0.81737   0.00000  Uiso   1.00
H1182  H     0.27862   0.26154   0.76887   0.00000  Uiso   1.00
N1183  N     0.28724   0.09655   0.70397   0.00000  Uiso   1.00
H1184  H     0.26618   0.11444   0.68322   0.00000  Uiso   1.00
H1185  H     0.30597   0.08294   0.68067   0.00000  Uiso   1.00
N1186  N     0.04390   0.24692   0.78119   0.00000  Uiso   1.00
H1187  H     0.05641   0.26382   0.75424   0.00000  Uiso   1.00
H1188  H     0.06627   0.23920   0.80612   0.00000  Uiso   1.00
N1189  N     0.12404   0.04586   0.68063   0.00000  Uiso   1.00
H1190  H     0.14575   0.05458   0.65793   0.00000  Uiso   1.00
H1191  H     0.10859   0.07444   0.69083   0.00000  Uiso   1.00
N1192  N     0.20756   0.28741   0.82087   0.00000  Uiso   1.00
H1193  H     0.22105   0.25756   0.81114   0.00000  Uiso   1.00
H1194  H     0.18613   0.28008   0.84435   0.00000  Uiso   1.00
N1195  N     0.21082   0.04636   0.81860   0.00000  Uiso   1.00
H1196  H     0.19099   0.05710   0.84207   0.00000  Uiso   1.00
H1197  H     0.22927   0.07263   0.80684   0.00000  Uiso   1.00
N1198  N     0.12387   0.28654   0.68023   0.00000  Uiso   1.00
H1199  H     0.10662   0.25840   0.69036   0.00000  Uiso   1.00
H1200  H     0.14457   0.27752   0.65693   0.00000  Uiso   1.00
C1201  C     0.42079   0.16637   0.75014   0.00000  Uiso   1.00
C1202  C     0.57916   0.16705   0.75041   0.00000  Uiso   1.00
C1203  C     0.42594   0.18383   0.51697   0.00000  Uiso   1.00
C1204  C     0.57159   0.20857   0.98021   0.00000  Uiso   1.00
C1205  C     0.35266   0.12617   0.73863   0.00000  Uiso   1.00
C1206  C     0.64745   0.20464   0.76850   0.00000  Uiso   1.00
C1207  C     0.64349   0.12990   0.73129   0.00000  Uiso   1.00
C1208  C     0.35603   0.20556   0.76610   0.00000  Uiso   1.00
C1209  C     0.62383   0.16751   0.74996   0.00000  Uiso   1.00
C1210  C     0.37607   0.16603   0.75148   0.00000  Uiso   1.00
C1211  C     0.47843   0.02411   0.71758   0.00000  Uiso   1.00
C1212  C     0.52063   0.30911   0.78315   0.00000  Uiso   1.00
C1213  C     0.52126   0.02447   0.78268   0.00000  Uiso   1.00
C1214  C     0.47869   0.30867   0.71725   0.00000  Uiso   1.00
C1215  C     0.50079   0.16734   0.66428   0.00000  Uiso   1.00
C1216  C     0.50022   0.16651   0.83570   0.00000  Uiso   1.00
C1217  C     0.53756   0.18224   0.90861   0.00000  Uiso   1.00
C1218  C     0.46395   0.16860   0.58954   0.00000  Uiso   1.00
C1219  C     0.50137   0.16716   0.88468   0.00000  Uiso   1.00
C1220  C     0.50133   0.17145   0.61530   0.00000  Uiso   1.00
C1221  C     0.46534   0.15962   0.90715   0.00000  Uiso   1.00
C1222  C     0.53722   0.18803   0.59561   0.00000  Uiso   1.00
C1223  C     0.46413   0.17485   0.95107   0.00000  Uiso   1.00
C1224  C     0.53630   0.19627   0.54894   0.00000  Uiso   1.00
C1225  C     0.50041   0.18524   0.97619   0.00000  Uiso   1.00
C1226  C     0.49989   0.18735   0.52300   0.00000  Uiso   1.00
C1227  C     0.53710   0.19147   0.95485   0.00000  Uiso   1.00
C1228  C     0.46284   0.17961   0.54353   0.00000  Uiso   1.00
C1229  C     0.42674   0.18173   0.97037   0.00000  Uiso   1.00
C1230  C     0.57037   0.21364   0.52681   0.00000  Uiso   1.00
Cu1231 Cu    0.50000   0.21355   0.75000   0.00000  Uiso   1.00
Cu1232 Cu    0.50000   0.11978   0.75000   0.00000  Uiso   1.00
N1233  N     0.50000   0.28402   0.75000   0.00000  Uiso   1.00
N1234  N     0.50000   0.04931   0.75000   0.00000  Uiso   1.00
O1235  O     0.43988   0.20625   0.74999   0.00000  Uiso   1.00
O1236  O     0.56012   0.12709   0.75000   0.00000  Uiso   1.00
O1237  O     0.56012   0.20625   0.75000   0.00000  Uiso   1.00
O1238  O     0.43988   0.12709   0.74999   0.00000  Uiso   1.00
O1239  O     0.49999   0.20627   0.68513   0.00000  Uiso   1.00
O1240  O     0.50001   0.12707   0.81487   0.00000  Uiso   1.00
O1241  O     0.50001   0.20627   0.81487   0.00000  Uiso   1.00
O1242  O     0.49999   0.12707   0.68513   0.00000  Uiso   1.00
O1243  O     0.57358   0.18706   0.88705   0.00000  Uiso   1.00
C1244  C     0.58973   0.14302   0.87922   0.00000  Uiso   1.00
H1245  H     0.61168   0.14683   0.85275   0.00000  Uiso   1.00
H1246  H     0.56608   0.11803   0.86697   0.00000  Uiso   1.00
C1247  C     0.61199   0.12241   0.92060   0.00000  Uiso   1.00
H1248  H     0.59074   0.11643   0.94745   0.00000  Uiso   1.00
H1249  H     0.62478   0.08864   0.91207   0.00000  Uiso   1.00
H1250  H     0.63737   0.14550   0.93278   0.00000  Uiso   1.00
O1251  O     0.42869   0.15610   0.61009   0.00000  Uiso   1.00
C1252  C     0.41555   0.11147   0.59584   0.00000  Uiso   1.00
H1253  H     0.43834   0.08549   0.60631   0.00000  Uiso   1.00
H1254  H     0.41079   0.10861   0.55913   0.00000  Uiso   1.00
C1255  C     0.37524   0.09943   0.61564   0.00000  Uiso   1.00
H1256  H     0.35129   0.12328   0.60243   0.00000  Uiso   1.00
H1257  H     0.36584   0.06344   0.60706   0.00000  Uiso   1.00
H1258  H     0.37852   0.10276   0.65226   0.00000  Uiso   1.00
O1259  O     0.43799   0.12441   0.89454   0.00000  Uiso   1.00
C1260  C     0.41314   0.13590   0.85662   0.00000  Uiso   1.00
H1261  H     0.42549   0.11937   0.82766   0.00000  Uiso   1.00
H1262  H     0.41069   0.17367   0.85071   0.00000  Uiso   1.00
C1263  C     0.37089   0.11502   0.86147   0.00000  Uiso   1.00
H1264  H     0.35915   0.12618   0.89322   0.00000  Uiso   1.00
H1265  H     0.34973   0.12636   0.83362   0.00000  Uiso   1.00
H1266  H     0.37221   0.07675   0.86153   0.00000  Uiso   1.00
O1267  O     0.57459   0.18675   0.61970   0.00000  Uiso   1.00
C1268  C     0.58230   0.22840   0.64315   0.00000  Uiso   1.00
H1269  H     0.56886   0.22644   0.67547   0.00000  Uiso   1.00
H1270  H     0.56925   0.25912   0.62578   0.00000  Uiso   1.00
C1271  C     0.62809   0.23541   0.65260   0.00000  Uiso   1.00
H1272  H     0.64377   0.24126   0.62152   0.00000  Uiso   1.00
H1273  H     0.63406   0.26562   0.67467   0.00000  Uiso   1.00
H1274  H     0.64134   0.20436   0.66906   0.00000  Uiso   1.00
O1275  O     0.39147   0.18970   0.94402   0.00000  Uiso   1.00
C1276  C     0.39444   0.23459   0.92517   0.00000  Uiso   1.00
H1277  H     0.42211   0.23893   0.90583   0.00000  Uiso   1.00
H1278  H     0.39542   0.26124   0.95171   0.00000  Uiso   1.00
C1279  C     0.35783   0.24353   0.89309   0.00000  Uiso   1.00
H1280  H     0.66393   0.24934   0.91172   0.00000  Uiso   1.00
H1281  H     0.36356   0.27505   0.87299   0.00000  Uiso   1.00
H1282  H     0.35177   0.21394   0.87040   0.00000  Uiso   1.00
O1283  O     0.60277   0.23544   0.55014   0.00000  Uiso   1.00
C1284  C     0.60150   0.28399   0.54246   0.00000  Uiso   1.00
H1285  H     0.58857   0.30120   0.57098   0.00000  Uiso   1.00
H1286  H     0.58232   0.29476   0.51245   0.00000  Uiso   1.00
C1287  C     0.64455   0.30336   0.53823   0.00000  Uiso   1.00
H1288  H     0.65882   0.28749   0.50971   0.00000  Uiso   1.00
H1289  H     0.64345   0.00792   0.53266   0.00000  Uiso   1.00
H1290  H     0.66373   0.29654   0.56911   0.00000  Uiso   1.00
N1291  N     0.38826   0.19237   0.53696   0.00000  Uiso   1.00
H1292  H     0.36663   0.16772   0.52539   0.00000  Uiso   1.00
H1293  H     0.37804   0.22472   0.52613   0.00000  Uiso   1.00
N1294  N     0.60758   0.22234   0.95870   0.00000  Uiso   1.00
H1295  H     0.63338   0.21216   0.97809   0.00000  Uiso   1.00
H1296  H     0.60799   0.25817   0.95507   0.00000  Uiso   1.00
N1297  N     0.37183   0.08205   0.73505   0.00000  Uiso   1.00
H1298  H     0.38423   0.07347   0.76681   0.00000  Uiso   1.00
H1299  H     0.35071   0.05542   0.72808   0.00000  Uiso   1.00
N1300  N     0.63014   0.24197   0.79125   0.00000  Uiso   1.00
H1301  H     0.61411   0.22829   0.81737   0.00000  Uiso   1.00
H1302  H     0.61196   0.26154   0.76887   0.00000  Uiso   1.00
N1303  N     0.62057   0.09655   0.70397   0.00000  Uiso   1.00
H1304  H     0.59951   0.11444   0.68322   0.00000  Uiso   1.00
H1305  H     0.63930   0.08294   0.68067   0.00000  Uiso   1.00
N1306  N     0.37724   0.24692   0.78119   0.00000  Uiso   1.00
H1307  H     0.38975   0.26382   0.75424   0.00000  Uiso   1.00
H1308  H     0.39961   0.23920   0.80612   0.00000  Uiso   1.00
N1309  N     0.45738   0.04586   0.68063   0.00000  Uiso   1.00
H1310  H     0.47908   0.05458   0.65793   0.00000  Uiso   1.00
H1311  H     0.44192   0.07444   0.69083   0.00000  Uiso   1.00
N1312  N     0.54089   0.28741   0.82087   0.00000  Uiso   1.00
H1313  H     0.55438   0.25756   0.81114   0.00000  Uiso   1.00
H1314  H     0.51946   0.28008   0.84435   0.00000  Uiso   1.00
N1315  N     0.54416   0.04636   0.81860   0.00000  Uiso   1.00
H1316  H     0.52433   0.05710   0.84207   0.00000  Uiso   1.00
H1317  H     0.56260   0.07263   0.80684   0.00000  Uiso   1.00
N1318  N     0.45721   0.28654   0.68023   0.00000  Uiso   1.00
H1319  H     0.43995   0.25840   0.69036   0.00000  Uiso   1.00
H1320  H     0.47790   0.27752   0.65693   0.00000  Uiso   1.00
C1321  C     0.75413   0.16637   0.75014   0.00000  Uiso   1.00
C1322  C     0.91249   0.16705   0.75041   0.00000  Uiso   1.00
C1323  C     0.75927   0.18383   0.51697   0.00000  Uiso   1.00
C1324  C     0.90492   0.20857   0.98021   0.00000  Uiso   1.00
C1325  C     0.68599   0.12617   0.73863   0.00000  Uiso   1.00
C1326  C     0.98078   0.20464   0.76850   0.00000  Uiso   1.00
C1327  C     0.97683   0.12990   0.73129   0.00000  Uiso   1.00
C1328  C     0.68937   0.20556   0.76610   0.00000  Uiso   1.00
C1329  C     0.95716   0.16751   0.74996   0.00000  Uiso   1.00
C1330  C     0.70940   0.16603   0.75148   0.00000  Uiso   1.00
C1331  C     0.81176   0.02411   0.71758   0.00000  Uiso   1.00
C1332  C     0.85397   0.30911   0.78315   0.00000  Uiso   1.00
C1333  C     0.85459   0.02447   0.78268   0.00000  Uiso   1.00
C1334  C     0.81202   0.30867   0.71725   0.00000  Uiso   1.00
C1335  C     0.83413   0.16734   0.66428   0.00000  Uiso   1.00
C1336  C     0.83356   0.16651   0.83570   0.00000  Uiso   1.00
C1337  C     0.87089   0.18224   0.90861   0.00000  Uiso   1.00
C1338  C     0.79729   0.16860   0.58954   0.00000  Uiso   1.00
C1339  C     0.83470   0.16716   0.88468   0.00000  Uiso   1.00
C1340  C     0.83466   0.17145   0.61530   0.00000  Uiso   1.00
C1341  C     0.79867   0.15962   0.90715   0.00000  Uiso   1.00
C1342  C     0.87056   0.18803   0.59561   0.00000  Uiso   1.00
C1343  C     0.79746   0.17485   0.95107   0.00000  Uiso   1.00
C1344  C     0.86963   0.19627   0.54894   0.00000  Uiso   1.00
C1345  C     0.83375   0.18524   0.97619   0.00000  Uiso   1.00
C1346  C     0.83323   0.18735   0.52300   0.00000  Uiso   1.00
C1347  C     0.87043   0.19147   0.95485   0.00000  Uiso   1.00
C1348  C     0.79617   0.17961   0.54353   0.00000  Uiso   1.00
C1349  C     0.76008   0.18173   0.97037   0.00000  Uiso   1.00
C1350  C     0.90371   0.21364   0.52681   0.00000  Uiso   1.00
Cu1351 Cu    0.83333   0.21355   0.75000   0.00000  Uiso   1.00
Cu1352 Cu    0.83333   0.11978   0.75000   0.00000  Uiso   1.00
N1353  N     0.83333   0.28402   0.75000   0.00000  Uiso   1.00
N1354  N     0.83333   0.04931   0.75000   0.00000  Uiso   1.00
O1355  O     0.77321   0.20625   0.74999   0.00000  Uiso   1.00
O1356  O     0.89345   0.12709   0.75000   0.00000  Uiso   1.00
O1357  O     0.89345   0.20625   0.75000   0.00000  Uiso   1.00
O1358  O     0.77321   0.12709   0.74999   0.00000  Uiso   1.00
O1359  O     0.83332   0.20627   0.68513   0.00000  Uiso   1.00
O1360  O     0.83334   0.12707   0.81487   0.00000  Uiso   1.00
O1361  O     0.83334   0.20627   0.81487   0.00000  Uiso   1.00
O1362  O     0.83332   0.12707   0.68513   0.00000  Uiso   1.00
O1363  O     0.90692   0.18706   0.88705   0.00000  Uiso   1.00
C1364  C     0.92307   0.14302   0.87922   0.00000  Uiso   1.00
H1365  H     0.94501   0.14683   0.85275   0.00000  Uiso   1.00
H1366  H     0.89942   0.11803   0.86697   0.00000  Uiso   1.00
C1367  C     0.94532   0.12241   0.92060   0.00000  Uiso   1.00
H1368  H     0.92407   0.11643   0.94745   0.00000  Uiso   1.00
H1369  H     0.95812   0.08864   0.91207   0.00000  Uiso   1.00
H1370  H     0.97070   0.14550   0.93278   0.00000  Uiso   1.00
O1371  O     0.76202   0.15610   0.61009   0.00000  Uiso   1.00
C1372  C     0.74889   0.11147   0.59584   0.00000  Uiso   1.00
H1373  H     0.77168   0.08549   0.60631   0.00000  Uiso   1.00
H1374  H     0.74412   0.10861   0.55913   0.00000  Uiso   1.00
C1375  C     0.70857   0.09943   0.61564   0.00000  Uiso   1.00
H1376  H     0.68463   0.12328   0.60243   0.00000  Uiso   1.00
H1377  H     0.69917   0.06344   0.60706   0.00000  Uiso   1.00
H1378  H     0.71185   0.10276   0.65226   0.00000  Uiso   1.00
O1379  O     0.77132   0.12441   0.89454   0.00000  Uiso   1.00
C1380  C     0.74647   0.13590   0.85662   0.00000  Uiso   1.00
H1381  H     0.75882   0.11937   0.82766   0.00000  Uiso   1.00
H1382  H     0.74402   0.17367   0.85071   0.00000  Uiso   1.00
C1383  C     0.70423   0.11502   0.86147   0.00000  Uiso   1.00
H1384  H     0.69248   0.12618   0.89322   0.00000  Uiso   1.00
H1385  H     0.68307   0.12636   0.83362   0.00000  Uiso   1.00
H1386  H     0.70554   0.07675   0.86153   0.00000  Uiso   1.00
O1387  O     0.90793   0.18675   0.61970   0.00000  Uiso   1.00
C1388  C     0.91563   0.22840   0.64315   0.00000  Uiso   1.00
H1389  H     0.90220   0.22644   0.67547   0.00000  Uiso   1.00
H1390  H     0.90259   0.25912   0.62578   0.00000  Uiso   1.00
C1391  C     0.96142   0.23541   0.65260   0.00000  Uiso   1.00
H1392  H     0.97710   0.24126   0.62152   0.00000  Uiso   1.00
H1393  H     0.96740   0.26562   0.67467   0.00000  Uiso   1.00
H1394  H     0.97467   0.20436   0.66906   0.00000  Uiso   1.00
O1395  O     0.72480   0.18970   0.94402   0.00000  Uiso   1.00
C1396  C     0.72777   0.23459   0.92517   0.00000  Uiso   1.00
H1397  H     0.75544   0.23893   0.90583   0.00000  Uiso   1.00
H1398  H     0.72876   0.26124   0.95171   0.00000  Uiso   1.00
C1399  C     0.69117   0.24353   0.89309   0.00000  Uiso   1.00
H1400  H     0.99726   0.24934   0.91172   0.00000  Uiso   1.00
H1401  H     0.69690   0.27505   0.87299   0.00000  Uiso   1.00
H1402  H     0.68510   0.21394   0.87040   0.00000  Uiso   1.00
O1403  O     0.93610   0.23544   0.55014   0.00000  Uiso   1.00
C1404  C     0.93484   0.28399   0.54246   0.00000  Uiso   1.00
H1405  H     0.92191   0.30120   0.57098   0.00000  Uiso   1.00
H1406  H     0.91565   0.29476   0.51245   0.00000  Uiso   1.00
C1407  C     0.97788   0.30336   0.53823   0.00000  Uiso   1.00
H1408  H     0.99215   0.28749   0.50971   0.00000  Uiso   1.00
H1409  H     0.97678   0.00792   0.53266   0.00000  Uiso   1.00
H1410  H     0.99707   0.29654   0.56911   0.00000  Uiso   1.00
N1411  N     0.72160   0.19237   0.53696   0.00000  Uiso   1.00
H1412  H     0.69996   0.16772   0.52539   0.00000  Uiso   1.00
H1413  H     0.71137   0.22472   0.52613   0.00000  Uiso   1.00
N1414  N     0.94092   0.22234   0.95870   0.00000  Uiso   1.00
H1415  H     0.96672   0.21216   0.97809   0.00000  Uiso   1.00
H1416  H     0.94132   0.25817   0.95507   0.00000  Uiso   1.00
N1417  N     0.70516   0.08205   0.73505   0.00000  Uiso   1.00
H1418  H     0.71756   0.07347   0.76681   0.00000  Uiso   1.00
H1419  H     0.68404   0.05542   0.72808   0.00000  Uiso   1.00
N1420  N     0.96347   0.24197   0.79125   0.00000  Uiso   1.00
H1421  H     0.94745   0.22829   0.81737   0.00000  Uiso   1.00
H1422  H     0.94529   0.26154   0.76887   0.00000  Uiso   1.00
N1423  N     0.95390   0.09655   0.70397   0.00000  Uiso   1.00
H1424  H     0.93285   0.11444   0.68322   0.00000  Uiso   1.00
H1425  H     0.97263   0.08294   0.68067   0.00000  Uiso   1.00
N1426  N     0.71057   0.24692   0.78119   0.00000  Uiso   1.00
H1427  H     0.72308   0.26382   0.75424   0.00000  Uiso   1.00
H1428  H     0.73294   0.23920   0.80612   0.00000  Uiso   1.00
N1429  N     0.79071   0.04586   0.68063   0.00000  Uiso   1.00
H1430  H     0.81242   0.05458   0.65793   0.00000  Uiso   1.00
H1431  H     0.77526   0.07444   0.69083   0.00000  Uiso   1.00
N1432  N     0.87422   0.28741   0.82087   0.00000  Uiso   1.00
H1433  H     0.88771   0.25756   0.81114   0.00000  Uiso   1.00
H1434  H     0.85279   0.28008   0.84435   0.00000  Uiso   1.00
N1435  N     0.87749   0.04636   0.81860   0.00000  Uiso   1.00
H1436  H     0.85766   0.05710   0.84207   0.00000  Uiso   1.00
H1437  H     0.89594   0.07263   0.80684   0.00000  Uiso   1.00
N1438  N     0.79054   0.28654   0.68023   0.00000  Uiso   1.00
H1439  H     0.77329   0.25840   0.69036   0.00000  Uiso   1.00
H1440  H     0.81124   0.27752   0.65693   0.00000  Uiso   1.00
C1441  C     0.08746   0.49970   0.75014   0.00000  Uiso   1.00
C1442  C     0.24582   0.50039   0.75041   0.00000  Uiso   1.00
C1443  C     0.09261   0.51717   0.51697   0.00000  Uiso   1.00
C1444  C     0.23825   0.54190   0.98021   0.00000  Uiso   1.00
C1445  C     0.01932   0.45950   0.73863   0.00000  Uiso   1.00
C1446  C     0.31412   0.53797   0.76850   0.00000  Uiso   1.00
C1447  C     0.31016   0.46323   0.73129   0.00000  Uiso   1.00
C1448  C     0.02270   0.53889   0.76610   0.00000  Uiso   1.00
C1449  C     0.29050   0.50085   0.74996   0.00000  Uiso   1.00
C1450  C     0.04273   0.49936   0.75148   0.00000  Uiso   1.00
C1451  C     0.14509   0.35744   0.71758   0.00000  Uiso   1.00
C1452  C     0.18730   0.64244   0.78315   0.00000  Uiso   1.00
C1453  C     0.18792   0.35780   0.78268   0.00000  Uiso   1.00
C1454  C     0.14536   0.64200   0.71725   0.00000  Uiso   1.00
C1455  C     0.16746   0.50067   0.66428   0.00000  Uiso   1.00
C1456  C     0.16689   0.49985   0.83570   0.00000  Uiso   1.00
C1457  C     0.20422   0.51557   0.90861   0.00000  Uiso   1.00
C1458  C     0.13062   0.50194   0.58954   0.00000  Uiso   1.00
C1459  C     0.16803   0.50049   0.88468   0.00000  Uiso   1.00
C1460  C     0.16800   0.50478   0.61530   0.00000  Uiso   1.00
C1461  C     0.13201   0.49295   0.90715   0.00000  Uiso   1.00
C1462  C     0.20389   0.52136   0.59561   0.00000  Uiso   1.00
C1463  C     0.13079   0.50818   0.95107   0.00000  Uiso   1.00
C1464  C     0.20296   0.52961   0.54894   0.00000  Uiso   1.00
C1465  C     0.16708   0.51857   0.97619   0.00000  Uiso   1.00
C1466  C     0.16656   0.52068   0.52300   0.00000  Uiso   1.00
C1467  C     0.20376   0.52480   0.95485   0.00000  Uiso   1.00
C1468  C     0.12951   0.51294   0.54353   0.00000  Uiso   1.00
C1469  C     0.09341   0.51507   0.97037   0.00000  Uiso   1.00
C1470  C     0.23704   0.54698   0.52681   0.00000  Uiso   1.00
Cu1471 Cu    0.16667   0.54689   0.75000   0.00000  Uiso   1.00
Cu1472 Cu    0.16667   0.45311   0.75000   0.00000  Uiso   1.00
N1473  N     0.16667   0.61736   0.75000   0.00000  Uiso   1.00
N1474  N     0.16667   0.38264   0.75000   0.00000  Uiso   1.00
O1475  O     0.10655   0.53958   0.74999   0.00000  Uiso   1.00
O1476  O     0.22679   0.46042   0.75000   0.00000  Uiso   1.00
O1477  O     0.22679   0.53958   0.75000   0.00000  Uiso   1.00
O1478  O     0.10655   0.46042   0.74999   0.00000  Uiso   1.00
O1479  O     0.16666   0.53960   0.68513   0.00000  Uiso   1.00
O1480  O     0.16668   0.46040   0.81487   0.00000  Uiso   1.00
O1481  O     0.16668   0.53960   0.81487   0.00000  Uiso   1.00
O1482  O     0.16666   0.46040   0.68513   0.00000  Uiso   1.00
O1483  O     0.24025   0.52039   0.88705   0.00000  Uiso   1.00
C1484  C     0.25640   0.47635   0.87922   0.00000  Uiso   1.00
H1485  H     0.27835   0.48016   0.85275   0.00000  Uiso   1.00
H1486  H     0.23275   0.45136   0.86697   0.00000  Uiso   1.00
C1487  C     0.27866   0.45574   0.92060   0.00000  Uiso   1.00
H1488  H     0.25740   0.44976   0.94745   0.00000  Uiso   1.00
H1489  H     0.29145   0.42198   0.91207   0.00000  Uiso   1.00
H1490  H     0.30403   0.47884   0.93278   0.00000  Uiso   1.00
O1491  O     0.09535   0.48943   0.61009   0.00000  Uiso   1.00
C1492  C     0.08222   0.44480   0.59584   0.00000  Uiso   1.00
H1493  H     0.10501   0.41882   0.60631   0.00000  Uiso   1.00
H1494  H     0.07745   0.44195   0.55913   0.00000  Uiso   1.00
C1495  C     0.04191   0.43276   0.61564   0.00000  Uiso   1.00
H1496  H     0.01796   0.45661   0.60243   0.00000  Uiso   1.00
H1497  H     0.03250   0.39677   0.60706   0.00000  Uiso   1.00
H1498  H     0.04518   0.43609   0.65226   0.00000  Uiso   1.00
O1499  O     0.10466   0.45774   0.89454   0.00000  Uiso   1.00
C1500  C     0.07980   0.46923   0.85662   0.00000  Uiso   1.00
H1501  H     0.09216   0.45270   0.82766   0.00000  Uiso   1.00
H1502  H     0.07735   0.50701   0.85071   0.00000  Uiso   1.00
C1503  C     0.03756   0.44835   0.86147   0.00000  Uiso   1.00
H1504  H     0.02582   0.45952   0.89322   0.00000  Uiso   1.00
H1505  H     0.01640   0.45970   0.83362   0.00000  Uiso   1.00
H1506  H     0.03888   0.41009   0.86153   0.00000  Uiso   1.00
O1507  O     0.24126   0.52009   0.61970   0.00000  Uiso   1.00
C1508  C     0.24897   0.56173   0.64315   0.00000  Uiso   1.00
H1509  H     0.23553   0.55977   0.67547   0.00000  Uiso   1.00
H1510  H     0.23592   0.59245   0.62578   0.00000  Uiso   1.00
C1511  C     0.29475   0.56874   0.65260   0.00000  Uiso   1.00
H1512  H     0.31044   0.57459   0.62152   0.00000  Uiso   1.00
H1513  H     0.30073   0.59895   0.67467   0.00000  Uiso   1.00
H1514  H     0.30800   0.53770   0.66906   0.00000  Uiso   1.00
O1515  O     0.05813   0.52303   0.94402   0.00000  Uiso   1.00
C1516  C     0.06110   0.56792   0.92517   0.00000  Uiso   1.00
H1517  H     0.08878   0.57226   0.90583   0.00000  Uiso   1.00
H1518  H     0.06209   0.59457   0.95171   0.00000  Uiso   1.00
C1519  C     0.02450   0.57687   0.89309   0.00000  Uiso   1.00
H1520  H     0.33059   0.58268   0.91172   0.00000  Uiso   1.00
H1521  H     0.03023   0.60838   0.87299   0.00000  Uiso   1.00
H1522  H     0.01844   0.54727   0.87040   0.00000  Uiso   1.00
O1523  O     0.26944   0.56878   0.55014   0.00000  Uiso   1.00
C1524  C     0.26817   0.61733   0.54246   0.00000  Uiso   1.00
H1525  H     0.25524   0.63453   0.57098   0.00000  Uiso   1.00
H1526  H     0.24898   0.62810   0.51245   0.00000  Uiso   1.00
C1527  C     0.31122   0.63669   0.53823   0.00000  Uiso   1.00
H1528  H     0.32548   0.62082   0.50971   0.00000  Uiso   1.00
H1529  H     0.31011   0.34125   0.53266   0.00000  Uiso   1.00
H1530  H     0.33040   0.62987   0.56911   0.00000  Uiso   1.00
N1531  N     0.05493   0.52571   0.53696   0.00000  Uiso   1.00
H1532  H     0.03329   0.50105   0.52539   0.00000  Uiso   1.00
H1533  H     0.04471   0.55806   0.52613   0.00000  Uiso   1.00
N1534  N     0.27425   0.55568   0.95870   0.00000  Uiso   1.00
H1535  H     0.30005   0.54550   0.97809   0.00000  Uiso   1.00
H1536  H     0.27465   0.59150   0.95507   0.00000  Uiso   1.00
N1537  N     0.03850   0.41538   0.73505   0.00000  Uiso   1.00
H1538  H     0.05090   0.40681   0.76681   0.00000  Uiso   1.00
H1539  H     0.01737   0.38875   0.72808   0.00000  Uiso   1.00
N1540  N     0.29680   0.57531   0.79125   0.00000  Uiso   1.00
H1541  H     0.28078   0.56162   0.81737   0.00000  Uiso   1.00
H1542  H     0.27862   0.59488   0.76887   0.00000  Uiso   1.00
N1543  N     0.28724   0.42989   0.70397   0.00000  Uiso   1.00
H1544  H     0.26618   0.44778   0.68322   0.00000  Uiso   1.00
H1545  H     0.30597   0.41627   0.68067   0.00000  Uiso   1.00
N1546  N     0.04390   0.58025   0.78119   0.00000  Uiso   1.00
H1547  H     0.05641   0.59715   0.75424   0.00000  Uiso   1.00
H1548  H     0.06627   0.57253   0.80612   0.00000  Uiso   1.00
N1549  N     0.12404   0.37919   0.68063   0.00000  Uiso   1.00
H1550  H     0.14575   0.38792   0.65793   0.00000  Uiso   1.00
H1551  H     0.10859   0.40778   0.69083   0.00000  Uiso   1.00
N1552  N     0.20756   0.62074   0.82087   0.00000  Uiso   1.00
H1553  H     0.22105   0.59090   0.81114   0.00000  Uiso   1.00
H1554  H     0.18613   0.61341   0.84435   0.00000  Uiso   1.00
N1555  N     0.21082   0.37969   0.81860   0.00000  Uiso   1.00
H1556  H     0.19099   0.39044   0.84207   0.00000  Uiso   1.00
H1557  H     0.22927   0.40597   0.80684   0.00000  Uiso   1.00
N1558  N     0.12387   0.61987   0.68023   0.00000  Uiso   1.00
H1559  H     0.10662   0.59174   0.69036   0.00000  Uiso   1.00
H1560  H     0.14457   0.61085   0.65693   0.00000  Uiso   1.00
C1561  C     0.42079   0.49970   0.75014   0.00000  Uiso   1.00
C1562  C     0.57916   0.50039   0.75041   0.00000  Uiso   1.00
C1563  C     0.42594   0.51717   0.51697   0.00000  Uiso   1.00
C1564  C     0.57159   0.54190   0.98021   0.00000  Uiso   1.00
C1565  C     0.35266   0.45950   0.73863   0.00000  Uiso   1.00
C1566  C     0.64745   0.53797   0.76850   0.00000  Uiso   1.00
C1567  C     0.64349   0.46323   0.73129   0.00000  Uiso   1.00
C1568  C     0.35603   0.53889   0.76610   0.00000  Uiso   1.00
C1569  C     0.62383   0.50085   0.74996   0.00000  Uiso   1.00
C1570  C     0.37607   0.49936   0.75148   0.00000  Uiso   1.00
C1571  C     0.47843   0.35744   0.71758   0.00000  Uiso   1.00
C1572  C     0.52063   0.64244   0.78315   0.00000  Uiso   1.00
C1573  C     0.52126   0.35780   0.78268   0.00000  Uiso   1.00
C1574  C     0.47869   0.64200   0.71725   0.00000  Uiso   1.00
C1575  C     0.50079   0.50067   0.66428   0.00000  Uiso   1.00
C1576  C     0.50022   0.49985   0.83570   0.00000  Uiso   1.00
C1577  C     0.53756   0.51557   0.90861   0.00000  Uiso   1.00
C1578  C     0.46395   0.50194   0.58954   0.00000  Uiso   1.00
C1579  C     0.50137   0.50049   0.88468   0.00000  Uiso   1.00
C1580  C     0.50133   0.50478   0.61530   0.00000  Uiso   1.00
C1581  C     0.46534   0.49295   0.90715   0.00000  Uiso   1.00
C1582  C     0.53722   0.52136   0.59561   0.00000  Uiso   1.00
C1583  C     0.46413   0.50818   0.95107   0.00000  Uiso   1.00
C1584  C     0.53630   0.52961   0.54894   0.00000  Uiso   1.00
C1585  C     0.50041   0.51857   0.97619   0.00000  Uiso   1.00
C1586  C     0.49989   0.52068   0.52300   0.00000  Uiso   1.00
C1587  C     0.53710   0.52480   0.95485   0.00000  Uiso   1.00
C1588  C     0.46284   0.51294   0.54353   0.00000  Uiso   1.00
C1589  C     0.42674   0.51507   0.97037   0.00000  Uiso   1.00
C1590  C     0.57037   0.54698   0.52681   0.00000  Uiso   1.00
Cu1591 Cu    0.50000   0.54689   0.75000   0.00000  Uiso   1.00
Cu1592 Cu    0.50000   0.45311   0.75000   0.00000  Uiso   1.00
N1593  N     0.50000   0.61736   0.75000   0.00000  Uiso   1.00
N1594  N     0.50000   0.38264   0.75000   0.00000  Uiso   1.00
O1595  O     0.43988   0.53958   0.74999   0.00000  Uiso   1.00
O1596  O     0.56012   0.46042   0.75000   0.00000  Uiso   1.00
O1597  O     0.56012   0.53958   0.75000   0.00000  Uiso   1.00
O1598  O     0.43988   0.46042   0.74999   0.00000  Uiso   1.00
O1599  O     0.49999   0.53960   0.68513   0.00000  Uiso   1.00
O1600  O     0.50001   0.46040   0.81487   0.00000  Uiso   1.00
O1601  O     0.50001   0.53960   0.81487   0.00000  Uiso   1.00
O1602  O     0.49999   0.46040   0.68513   0.00000  Uiso   1.00
O1603  O     0.57358   0.52039   0.88705   0.00000  Uiso   1.00
C1604  C     0.58973   0.47635   0.87922   0.00000  Uiso   1.00
H1605  H     0.61168   0.48016   0.85275   0.00000  Uiso   1.00
H1606  H     0.56608   0.45136   0.86697   0.00000  Uiso   1.00
C1607  C     0.61199   0.45574   0.92060   0.00000  Uiso   1.00
H1608  H     0.59074   0.44976   0.94745   0.00000  Uiso   1.00
H1609  H     0.62478   0.42198   0.91207   0.00000  Uiso   1.00
H1610  H     0.63737   0.47884   0.93278   0.00000  Uiso   1.00
O1611  O     0.42869   0.48943   0.61009   0.00000  Uiso   1.00
C1612  C     0.41555   0.44480   0.59584   0.00000  Uiso   1.00
H1613  H     0.43834   0.41882   0.60631   0.00000  Uiso   1.00
H1614  H     0.41079   0.44195   0.55913   0.00000  Uiso   1.00
C1615  C     0.37524   0.43276   0.61564   0.00000  Uiso   1.00
H1616  H     0.35129   0.45661   0.60243   0.00000  Uiso   1.00
H1617  H     0.36584   0.39677   0.60706   0.00000  Uiso   1.00
H1618  H     0.37852   0.43609   0.65226   0.00000  Uiso   1.00
O1619  O     0.43799   0.45774   0.89454   0.00000  Uiso   1.00
C1620  C     0.41314   0.46923   0.85662   0.00000  Uiso   1.00
H1621  H     0.42549   0.45270   0.82766   0.00000  Uiso   1.00
H1622  H     0.41069   0.50701   0.85071   0.00000  Uiso   1.00
C1623  C     0.37089   0.44835   0.86147   0.00000  Uiso   1.00
H1624  H     0.35915   0.45952   0.89322   0.00000  Uiso   1.00
H1625  H     0.34973   0.45970   0.83362   0.00000  Uiso   1.00
H1626  H     0.37221   0.41009   0.86153   0.00000  Uiso   1.00
O1627  O     0.57459   0.52009   0.61970   0.00000  Uiso   1.00
C1628  C     0.58230   0.56173   0.64315   0.00000  Uiso   1.00
H1629  H     0.56886   0.55977   0.67547   0.00000  Uiso   1.00
H1630  H     0.56925   0.59245   0.62578   0.00000  Uiso   1.00
C1631  C     0.62809   0.56874   0.65260   0.00000  Uiso   1.00
H1632  H     0.64377   0.57459   0.62152   0.00000  Uiso   1.00
H1633  H     0.63406   0.59895   0.67467   0.00000  Uiso   1.00
H1634  H     0.64134   0.53770   0.66906   0.00000  Uiso   1.00
O1635  O     0.39147   0.52303   0.94402   0.00000  Uiso   1.00
C1636  C     0.39444   0.56792   0.92517   0.00000  Uiso   1.00
H1637  H     0.42211   0.57226   0.90583   0.00000  Uiso   1.00
H1638  H     0.39542   0.59457   0.95171   0.00000  Uiso   1.00
C1639  C     0.35783   0.57687   0.89309   0.00000  Uiso   1.00
H1640  H     0.66393   0.58268   0.91172   0.00000  Uiso   1.00
H1641  H     0.36356   0.60838   0.87299   0.00000  Uiso   1.00
H1642  H     0.35177   0.54727   0.87040   0.00000  Uiso   1.00
O1643  O     0.60277   0.56878   0.55014   0.00000  Uiso   1.00
C1644  C     0.60150   0.61733   0.54246   0.00000  Uiso   1.00
H1645  H     0.58857   0.63453   0.57098   0.00000  Uiso   1.00
H1646  H     0.58232   0.62810   0.51245   0.00000  Uiso   1.00
C1647  C     0.64455   0.63669   0.53823   0.00000  Uiso   1.00
H1648  H     0.65882   0.62082   0.50971   0.00000  Uiso   1.00
H1649  H     0.64345   0.34125   0.53266   0.00000  Uiso   1.00
H1650  H     0.66373   0.62987   0.56911   0.00000  Uiso   1.00
N1651  N     0.38826   0.52571   0.53696   0.00000  Uiso   1.00
H1652  H     0.36663   0.50105   0.52539   0.00000  Uiso   1.00
H1653  H     0.37804   0.55806   0.52613   0.00000  Uiso   1.00
N1654  N     0.60758   0.55568   0.95870   0.00000  Uiso   1.00
H1655  H     0.63338   0.54550   0.97809   0.00000  Uiso   1.00
H1656  H     0.60799   0.59150   0.95507   0.00000  Uiso   1.00
N1657  N     0.37183   0.41538   0.73505   0.00000  Uiso   1.00
H1658  H     0.38423   0.40681   0.76681   0.00000  Uiso   1.00
H1659  H     0.35071   0.38875   0.72808   0.00000  Uiso   1.00
N1660  N     0.63014   0.57531   0.79125   0.00000  Uiso   1.00
H1661  H     0.61411   0.56162   0.81737   0.00000  Uiso   1.00
H1662  H     0.61196   0.59488   0.76887   0.00000  Uiso   1.00
N1663  N     0.62057   0.42989   0.70397   0.00000  Uiso   1.00
H1664  H     0.59951   0.44778   0.68322   0.00000  Uiso   1.00
H1665  H     0.63930   0.41627   0.68067   0.00000  Uiso   1.00
N1666  N     0.37724   0.58025   0.78119   0.00000  Uiso   1.00
H1667  H     0.38975   0.59715   0.75424   0.00000  Uiso   1.00
H1668  H     0.39961   0.57253   0.80612   0.00000  Uiso   1.00
N1669  N     0.45738   0.37919   0.68063   0.00000  Uiso   1.00
H1670  H     0.47908   0.38792   0.65793   0.00000  Uiso   1.00
H1671  H     0.44192   0.40778   0.69083   0.00000  Uiso   1.00
N1672  N     0.54089   0.62074   0.82087   0.00000  Uiso   1.00
H1673  H     0.55438   0.59090   0.81114   0.00000  Uiso   1.00
H1674  H     0.51946   0.61341   0.84435   0.00000  Uiso   1.00
N1675  N     0.54416   0.37969   0.81860   0.00000  Uiso   1.00
H1676  H     0.52433   0.39044   0.84207   0.00000  Uiso   1.00
H1677  H     0.56260   0.40597   0.80684   0.00000  Uiso   1.00
N1678  N     0.45721   0.61987   0.68023   0.00000  Uiso   1.00
H1679  H     0.43995   0.59174   0.69036   0.00000  Uiso   1.00
H1680  H     0.47790   0.61085   0.65693   0.00000  Uiso   1.00
C1681  C     0.75413   0.49970   0.75014   0.00000  Uiso   1.00
C1682  C     0.91249   0.50039   0.75041   0.00000  Uiso   1.00
C1683  C     0.75927   0.51717   0.51697   0.00000  Uiso   1.00
C1684  C     0.90492   0.54190   0.98021   0.00000  Uiso   1.00
C1685  C     0.68599   0.45950   0.73863   0.00000  Uiso   1.00
C1686  C     0.98078   0.53797   0.76850   0.00000  Uiso   1.00
C1687  C     0.97683   0.46323   0.73129   0.00000  Uiso   1.00
C1688  C     0.68937   0.53889   0.76610   0.00000  Uiso   1.00
C1689  C     0.95716   0.50085   0.74996   0.00000  Uiso   1.00
C1690  C     0.70940   0.49936   0.75148   0.00000  Uiso   1.00
C1691  C     0.81176   0.35744   0.71758   0.00000  Uiso   1.00
C1692  C     0.85397   0.64244   0.78315   0.00000  Uiso   1.00
C1693  C     0.85459   0.35780   0.78268   0.00000  Uiso   1.00
C1694  C     0.81202   0.64200   0.71725   0.00000  Uiso   1.00
C1695  C     0.83413   0.50067   0.66428   0.00000  Uiso   1.00
C1696  C     0.83356   0.49985   0.83570   0.00000  Uiso   1.00
C1697  C     0.87089   0.51557   0.90861   0.00000  Uiso   1.00
C1698  C     0.79729   0.50194   0.58954   0.00000  Uiso   1.00
C1699  C     0.83470   0.50049   0.88468   0.00000  Uiso   1.00
C1700  C     0.83466   0.50478   0.61530   0.00000  Uiso   1.00
C1701  C     0.79867   0.49295   0.90715   0.00000  Uiso   1.00
C1702  C     0.87056   0.52136   0.59561   0.00000  Uiso   1.00
C1703  C     0.79746   0.50818   0.95107   0.00000  Uiso   1.00
C1704  C     0.86963   0.52961   0.54894   0.00000  Uiso   1.00
C1705  C     0.83375   0.51857   0.97619   0.00000  Uiso   1.00
C1706  C     0.83323   0.52068   0.52300   0.00000  Uiso   1.00
C1707  C     0.87043   0.52480   0.95485   0.00000  Uiso   1.00
C1708  C     0.79617   0.51294   0.54353   0.00000  Uiso   1.00
C1709  C     0.76008   0.51507   0.97037   0.00000  Uiso   1.00
C1710  C     0.90371   0.54698   0.52681   0.00000  Uiso   1.00
Cu1711 Cu    0.83333   0.54689   0.75000   0.00000  Uiso   1.00
Cu1712 Cu    0.83333   0.45311   0.75000   0.00000  Uiso   1.00
N1713  N     0.83333   0.61736   0.75000   0.00000  Uiso   1.00
N1714  N     0.83333   0.38264   0.75000   0.00000  Uiso   1.00
O1715  O     0.77321   0.53958   0.74999   0.00000  Uiso   1.00
O1716  O     0.89345   0.46042   0.75000   0.00000  Uiso   1.00
O1717  O     0.89345   0.53958   0.75000   0.00000  Uiso   1.00
O1718  O     0.77321   0.46042   0.74999   0.00000  Uiso   1.00
O1719  O     0.83332   0.53960   0.68513   0.00000  Uiso   1.00
O1720  O     0.83334   0.46040   0.81487   0.00000  Uiso   1.00
O1721  O     0.83334   0.53960   0.81487   0.00000  Uiso   1.00
O1722  O     0.83332   0.46040   0.68513   0.00000  Uiso   1.00
O1723  O     0.90692   0.52039   0.88705   0.00000  Uiso   1.00
C1724  C     0.92307   0.47635   0.87922   0.00000  Uiso   1.00
H1725  H     0.94501   0.48016   0.85275   0.00000  Uiso   1.00
H1726  H     0.89942   0.45136   0.86697   0.00000  Uiso   1.00
C1727  C     0.94532   0.45574   0.92060   0.00000  Uiso   1.00
H1728  H     0.92407   0.44976   0.94745   0.00000  Uiso   1.00
H1729  H     0.95812   0.42198   0.91207   0.00000  Uiso   1.00
H1730  H     0.97070   0.47884   0.93278   0.00000  Uiso   1.00
O1731  O     0.76202   0.48943   0.61009   0.00000  Uiso   1.00
C1732  C     0.74889   0.44480   0.59584   0.00000  Uiso   1.00
H1733  H     0.77168   0.41882   0.60631   0.00000  Uiso   1.00
H1734  H     0.74412   0.44195   0.55913   0.00000  Uiso   1.00
C1735  C     0.70857   0.43276   0.61564   0.00000  Uiso   1.00
H1736  H     0.68463   0.45661   0.60243   0.00000  Uiso   1.00
H1737  H     0.69917   0.39677   0.60706   0.00000  Uiso   1.00
H1738  H     0.71185   0.43609   0.65226   0.00000  Uiso   1.00
O1739  O     0.77132   0.45774   0.89454   0.00000  Uiso   1.00
C1740  C     0.74647   0.46923   0.85662   0.00000  Uiso   1.00
H1741  H     0.75882   0.45270   0.82766   0.00000  Uiso   1.00
H1742  H     0.74402   0.50701   0.85071   0.00000  Uiso   1.00
C1743  C     0.70423   0.44835   0.86147   0.00000  Uiso   1.00
H1744  H     0.69248   0.45952   0.89322   0.00000  Uiso   1.00
H1745  H     0.68307   0.45970   0.83362   0.00000  Uiso   1.00
H1746  H     0.70554   0.41009   0.86153   0.00000  Uiso   1.00
O1747  O     0.90793   0.52009   0.61970   0.00000  Uiso   1.00
C1748  C     0.91563   0.56173   0.64315   0.00000  Uiso   1.00
H1749  H     0.90220   0.55977   0.67547   0.00000  Uiso   1.00
H1750  H     0.90259   0.59245   0.62578   0.00000  Uiso   1.00
C1751  C     0.96142   0.56874   0.65260   0.00000  Uiso   1.00
H1752  H     0.97710   0.57459   0.62152   0.00000  Uiso   1.00
H1753  H     0.96740   0.59895   0.67467   0.00000  Uiso   1.00
H1754  H     0.97467   0.53770   0.66906   0.00000  Uiso   1.00
O1755  O     0.72480   0.52303   0.94402   0.00000  Uiso   1.00
C1756  C     0.72777   0.56792   0.92517   0.00000  Uiso   1.00
H1757  H     0.75544   0.57226   0.90583   0.00000  Uiso   1.00
H1758  H     0.72876   0.59457   0.95171   0.00000  Uiso   1.00
C1759  C     0.69117   0.57687   0.89309   0.00000  Uiso   1.00
H1760  H     0.99726   0.58268   0.91172   0.00000  Uiso   1.00
H1761  H     0.69690   0.60838   0.87299   0.00000  Uiso   1.00
H1762  H     0.68510   0.54727   0.87040   0.00000  Uiso   1.00
O1763  O     0.93610   0.56878   0.55014   0.00000  Uiso   1.00
C1764  C     0.93484   0.61733   0.54246   0.00000  Uiso   1.00
H1765  H     0.92191   0.63453   0.57098   0.00000  Uiso   1.00
H1766  H     0.91565   0.62810   0.51245   0.00000  Uiso   1.00
C1767  C     0.97788   0.63669   0.53823   0.00000  Uiso   1.00
H1768  H     0.99215   0.62082   0.50971   0.00000  Uiso   1.00
H1769  H     0.97678   0.34125   0.53266   0.00000  Uiso   1.00
H1770  H     0.99707   0.62987   0.56911   0.00000  Uiso   1.00
N1771  N     0.72160   0.52571   0.53696   0.00000  Uiso   1.00
H1772  H     0.69996   0.50105   0.52539   0.00000  Uiso   1.00
H1773  H     0.71137   0.55806   0.52613   0.00000  Uiso   1.00
N1774  N     0.94092   0.55568   0.95870   0.00000  Uiso   1.00
H1775  H     0.96672   0.54550   0.97809   0.00000  Uiso   1.00
H1776  H     0.94132   0.59150   0.95507   0.00000  Uiso   1.00
N1777  N     0.70516   0.41538   0.73505   0.00000  Uiso   1.00
H1778  H     0.71756   0.40681   0.76681   0.00000  Uiso   1.00
H1779  H     0.68404   0.38875   0.72808   0.00000  Uiso   1.00
N1780  N     0.96347   0.57531   0.79125   0.00000  Uiso   1.00
H1781  H     0.94745   0.56162   0.81737   0.00000  Uiso   1.00
H1782  H     0.94529   0.59488   0.76887   0.00000  Uiso   1.00
N1783  N     0.95390   0.42989   0.70397   0.00000  Uiso   1.00
H1784  H     0.93285   0.44778   0.68322   0.00000  Uiso   1.00
H1785  H     0.97263   0.41627   0.68067   0.00000  Uiso   1.00
N1786  N     0.71057   0.58025   0.78119   0.00000  Uiso   1.00
H1787  H     0.72308   0.59715   0.75424   0.00000  Uiso   1.00
H1788  H     0.73294   0.57253   0.80612   0.00000  Uiso   1.00
N1789  N     0.79071   0.37919   0.68063   0.00000  Uiso   1.00
H1790  H     0.81242   0.38792   0.65793   0.00000  Uiso   1.00
H1791  H     0.77526   0.40778   0.69083   0.00000  Uiso   1.00
N1792  N     0.87422   0.62074   0.82087   0.00000  Uiso   1.00
H1793  H     0.88771   0.59090   0.81114   0.00000  Uiso   1.00
H1794  H     0.85279   0.61341   0.84435   0.00000  Uiso   1.00
N1795  N     0.87749   0.37969   0.81860   0.00000  Uiso   1.00
H1796  H     0.85766   0.39044   0.84207   0.00000  Uiso   1.00
H1797  H     0.89594   0.40597   0.80684   0.00000  Uiso   1.00
N1798  N     0.79054   0.61987   0.68023   0.00000  Uiso   1.00
H1799  H     0.77329   0.59174   0.69036   0.00000  Uiso   1.00
H1800  H     0.81124   0.61085   0.65693   0.00000  Uiso   1.00
C1801  C     0.08746   0.83303   0.75014   0.00000  Uiso   1.00
C1802  C     0.24582   0.83372   0.75041   0.00000  Uiso   1.00
C1803  C     0.09261   0.85050   0.51697   0.00000  Uiso   1.00
C1804  C     0.23825   0.87523   0.98021   0.00000  Uiso   1.00
C1805  C     0.01932   0.79284   0.73863   0.00000  Uiso   1.00
C1806  C     0.31412   0.87131   0.76850   0.00000  Uiso   1.00
C1807  C     0.31016   0.79656   0.73129   0.00000  Uiso   1.00
C1808  C     0.02270   0.87223   0.76610   0.00000  Uiso   1.00
C1809  C     0.29050   0.83418   0.74996   0.00000  Uiso   1.00
C1810  C     0.04273   0.83269   0.75148   0.00000  Uiso   1.00
C1811  C     0.14509   0.69078   0.71758   0.00000  Uiso   1.00
C1812  C     0.18730   0.97578   0.78315   0.00000  Uiso   1.00
C1813  C     0.18792   0.69113   0.78268   0.00000  Uiso   1.00
C1814  C     0.14536   0.97533   0.71725   0.00000  Uiso   1.00
C1815  C     0.16746   0.83401   0.66428   0.00000  Uiso   1.00
C1816  C     0.16689   0.83318   0.83570   0.00000  Uiso   1.00
C1817  C     0.20422   0.84890   0.90861   0.00000  Uiso   1.00
C1818  C     0.13062   0.83527   0.58954   0.00000  Uiso   1.00
C1819  C     0.16803   0.83382   0.88468   0.00000  Uiso   1.00
C1820  C     0.16800   0.83811   0.61530   0.00000  Uiso   1.00
C1821  C     0.13201   0.82628   0.90715   0.00000  Uiso   1.00
C1822  C     0.20389   0.85469   0.59561   0.00000  Uiso   1.00
C1823  C     0.13079   0.84151   0.95107   0.00000  Uiso   1.00
C1824  C     0.20296   0.86294   0.54894   0.00000  Uiso   1.00
C1825  C     0.16708   0.85190   0.97619   0.00000  Uiso   1.00
C1826  C     0.16656   0.85401   0.52300   0.00000  Uiso   1.00
C1827  C     0.20376   0.85813   0.95485   0.00000  Uiso   1.00
C1828  C     0.12951   0.84628   0.54353   0.00000  Uiso   1.00
C1829  C     0.09341   0.84840   0.97037   0.00000  Uiso   1.00
C1830  C     0.23704   0.88031   0.52681   0.00000  Uiso   1.00
Cu1831 Cu    0.16667   0.88022   0.75000   0.00000  Uiso   1.00
Cu1832 Cu    0.16667   0.78645   0.75000   0.00000  Uiso   1.00
N1833  N     0.16667   0.95069   0.75000   0.00000  Uiso   1.00
N1834  N     0.16667   0.71598   0.75000   0.00000  Uiso   1.00
O1835  O     0.10655   0.87291   0.74999   0.00000  Uiso   1.00
O1836  O     0.22679   0.79375   0.75000   0.00000  Uiso   1.00
O1837  O     0.22679   0.87291   0.75000   0.00000  Uiso   1.00
O1838  O     0.10655   0.79375   0.74999   0.00000  Uiso   1.00
O1839  O     0.16666   0.87293   0.68513   0.00000  Uiso   1.00
O1840  O     0.16668   0.79373   0.81487   0.00000  Uiso   1.00
O1841  O     0.16668   0.87293   0.81487   0.00000  Uiso   1.00
O1842  O     0.16666   0.79373   0.68513   0.00000  Uiso   1.00
O1843  O     0.24025   0.85373   0.88705   0.00000  Uiso   1.00
C1844  C     0.25640   0.80968   0.87922   0.00000  Uiso   1.00
H1845  H     0.27835   0.81350   0.85275   0.00000  Uiso   1.00
H1846  H     0.23275   0.78470   0.86697   0.00000  Uiso   1.00
C1847  C     0.27866   0.78907   0.92060   0.00000  Uiso   1.00
H1848  H     0.25740   0.78309   0.94745   0.00000  Uiso   1.00
H1849  H     0.29145   0.75531   0.91207   0.00000  Uiso   1.00
H1850  H     0.30403   0.81217   0.93278   0.00000  Uiso   1.00
O1851  O     0.09535   0.82276   0.61009   0.00000  Uiso   1.00
C1852  C     0.08222   0.77813   0.59584   0.00000  Uiso   1.00
H1853  H     0.10501   0.75215   0.60631   0.00000  Uiso   1.00
H1854  H     0.07745   0.77528   0.55913   0.00000  Uiso   1.00
C1855  C     0.04191   0.76609   0.61564   0.00000  Uiso   1.00
H1856  H     0.01796   0.78994   0.60243   0.00000  Uiso   1.00
H1857  H     0.03250   0.73010   0.60706   0.00000  Uiso   1.00
H1858  H     0.04518   0.76942   0.65226   0.00000  Uiso   1.00
O1859  O     0.10466   0.79108   0.89454   0.00000  Uiso   1.00
C1860  C     0.07980   0.80256   0.85662   0.00000  Uiso   1.00
H1861  H     0.09216   0.78603   0.82766   0.00000  Uiso   1.00
H1862  H     0.07735   0.84034   0.85071   0.00000  Uiso   1.00
C1863  C     0.03756   0.78169   0.86147   0.00000  Uiso   1.00
H1864  H     0.02582   0.79285   0.89322   0.00000  Uiso   1.00
H1865  H     0.01640   0.79303   0.83362   0.00000  Uiso   1.00
H1866  H     0.03888   0.74342   0.86153   0.00000  Uiso   1.00
O1867  O     0.24126   0.85342   0.61970   0.00000  Uiso   1.00
C1868  C     0.24897   0.89507   0.64315   0.00000  Uiso   1.00
H1869  H     0.23553   0.89311   0.67547   0.00000  Uiso   1.00
H1870  H     0.23592   0.92579   0.62578   0.00000  Uiso   1.00
C1871  C     0.29475   0.90208   0.65260   0.00000  Uiso   1.00
H1872  H     0.31044   0.90792   0.62152   0.00000  Uiso   1.00
H1873  H     0.30073   0.93228   0.67467   0.00000  Uiso   1.00
H1874  H     0.30800   0.87103   0.66906   0.00000  Uiso   1.00
O1875  O     0.05813   0.85636   0.94402   0.00000  Uiso   1.00
C1876  C     0.06110   0.90126   0.92517   0.00000  Uiso   1.00
H1877  H     0.08878   0.90559   0.90583   0.00000  Uiso   1.00
H1878  H     0.06209   0.92790   0.95171   0.00000  Uiso   1.00
C1879  C     0.02450   0.91020   0.89309   0.00000  Uiso   1.00
H1880  H     0.33059   0.91601   0.91172   0.00000  Uiso   1.00
H1881  H     0.03023   0.94172   0.87299   0.00000  Uiso   1.00
H1882  H     0.01844   0.88060   0.87040   0.00000  Uiso   1.00
O1883  O     0.26944   0.90211   0.55014   0.00000  Uiso   1.00
C1884  C     0.26817   0.95066   0.54246   0.00000  Uiso   1.00
H1885  H     0.25524   0.96786   0.57098   0.00000  Uiso   1.00
H1886  H     0.24898   0.96143   0.51245   0.00000  Uiso   1.00
C1887  C     0.31122   0.97002   0.53823   0.00000  Uiso   1.00
H1888  H     0.32548   0.95415   0.50971   0.00000  Uiso   1.00
H1889  H     0.31011   0.67459   0.53266   0.00000  Uiso   1.00
H1890  H     0.33040   0.96321   0.56911   0.00000  Uiso   1.00
N1891  N     0.05493   0.85904   0.53696   0.00000  Uiso   1.00
H1892  H     0.03329   0.83438   0.52539   0.00000  Uiso   1.00
H1893  H     0.04471   0.89139   0.52613   0.00000  Uiso   1.00
N1894  N     0.27425   0.88901   0.95870   0.00000  Uiso   1.00
H1895  H     0.30005   0.87883   0.97809   0.00000  Uiso   1.00
H1896  H     0.27465   0.92484   0.95507   0.00000  Uiso   1.00
N1897  N     0.03850   0.74872   0.73505   0.00000  Uiso   1.00
H1898  H     0.05090   0.74014   0.76681   0.00000  Uiso   1.00
H1899  H     0.01737   0.72208   0.72808   0.00000  Uiso   1.00
N1900  N     0.29680   0.90864   0.79125   0.00000  Uiso   1.00
H1901  H     0.28078   0.89496   0.81737   0.00000  Uiso   1.00
H1902  H     0.27862   0.92821   0.76887   0.00000  Uiso   1.00
N1903  N     0.28724   0.76322   0.70397   0.00000  Uiso   1.00
H1904  H     0.26618   0.78111   0.68322   0.00000  Uiso   1.00
H1905  H     0.30597   0.74961   0.68067   0.00000  Uiso   1.00
N1906  N     0.04390   0.91358   0.78119   0.00000  Uiso   1.00
H1907  H     0.05641   0.93049   0.75424   0.00000  Uiso   1.00
H1908  H     0.06627   0.90586   0.80612   0.00000  Uiso   1.00
N1909  N     0.12404   0.71252   0.68063   0.00000  Uiso   1.00
H1910  H     0.14575   0.72125   0.65793   0.00000  Uiso   1.00
H1911  H     0.10859   0.74111   0.69083   0.00000  Uiso   1.00
N1912  N     0.20756   0.95407   0.82087   0.00000  Uiso   1.00
H1913  H     0.22105   0.92423   0.81114   0.00000  Uiso   1.00
H1914  H     0.18613   0.94675   0.84435   0.00000  Uiso   1.00
N1915  N     0.21082   0.71302   0.81860   0.00000  Uiso   1.00
H1916  H     0.19099   0.72377   0.84207   0.00000  Uiso   1.00
H1917  H     0.22927   0.73930   0.80684   0.00000  Uiso   1.00
N1918  N     0.12387   0.95321   0.68023   0.00000  Uiso   1.00
H1919  H     0.10662   0.92507   0.69036   0.00000  Uiso   1.00
H1920  H     0.14457   0.94418   0.65693   0.00000  Uiso   1.00
C1921  C     0.42079   0.83303   0.75014   0.00000  Uiso   1.00
C1922  C     0.57916   0.83372   0.75041   0.00000  Uiso   1.00
C1923  C     0.42594   0.85050   0.51697   0.00000  Uiso   1.00
C1924  C     0.57159   0.87523   0.98021   0.00000  Uiso   1.00
C1925  C     0.35266   0.79284   0.73863   0.00000  Uiso   1.00
C1926  C     0.64745   0.87131   0.76850   0.00000  Uiso   1.00
C1927  C     0.64349   0.79656   0.73129   0.00000  Uiso   1.00
C1928  C     0.35603   0.87223   0.76610   0.00000  Uiso   1.00
C1929  C     0.62383   0.83418   0.74996   0.00000  Uiso   1.00
C1930  C     0.37607   0.83269   0.75148   0.00000  Uiso   1.00
C1931  C     0.47843   0.69078   0.71758   0.00000  Uiso   1.00
C1932  C     0.52063   0.97578   0.78315   0.00000  Uiso   1.00
C1933  C     0.52126   0.69113   0.78268   0.00000  Uiso   1.00
C1934  C     0.47869   0.97533   0.71725   0.00000  Uiso   1.00
C1935  C     0.50079   0.83401   0.66428   0.00000  Uiso   1.00
C1936  C     0.50022   0.83318   0.83570   0.00000  Uiso   1.00
C1937  C     0.53756   0.84890   0.90861   0.00000  Uiso   1.00
C1938  C     0.46395   0.83527   0.58954   0.00000  Uiso   1.00
C1939  C     0.50137   0.83382   0.88468   0.00000  Uiso   1.00
C1940  C     0.50133   0.83811   0.61530   0.00000  Uiso   1.00
C1941  C     0.46534   0.82628   0.90715   0.00000  Uiso   1.00
C1942  C     0.53722   0.85469   0.59561   0.00000  Uiso   1.00
C1943  C     0.46413   0.84151   0.95107   0.00000  Uiso   1.00
C1944  C     0.53630   0.86294   0.54894   0.00000  Uiso   1.00
C1945  C     0.50041   0.85190   0.97619   0.00000  Uiso   1.00
C1946  C     0.49989   0.85401   0.52300   0.00000  Uiso   1.00
C1947  C     0.53710   0.85813   0.95485   0.00000  Uiso   1.00
C1948  C     0.46284   0.84628   0.54353   0.00000  Uiso   1.00
C1949  C     0.42674   0.84840   0.97037   0.00000  Uiso   1.00
C1950  C     0.57037   0.88031   0.52681   0.00000  Uiso   1.00
Cu1951 Cu    0.50000   0.88022   0.75000   0.00000  Uiso   1.00
Cu1952 Cu    0.50000   0.78645   0.75000   0.00000  Uiso   1.00
N1953  N     0.50000   0.95069   0.75000   0.00000  Uiso   1.00
N1954  N     0.50000   0.71598   0.75000   0.00000  Uiso   1.00
O1955  O     0.43988   0.87291   0.74999   0.00000  Uiso   1.00
O1956  O     0.56012   0.79375   0.75000   0.00000  Uiso   1.00
O1957  O     0.56012   0.87291   0.75000   0.00000  Uiso   1.00
O1958  O     0.43988   0.79375   0.74999   0.00000  Uiso   1.00
O1959  O     0.49999   0.87293   0.68513   0.00000  Uiso   1.00
O1960  O     0.50001   0.79373   0.81487   0.00000  Uiso   1.00
O1961  O     0.50001   0.87293   0.81487   0.00000  Uiso   1.00
O1962  O     0.49999   0.79373   0.68513   0.00000  Uiso   1.00
O1963  O     0.57358   0.85373   0.88705   0.00000  Uiso   1.00
C1964  C     0.58973   0.80968   0.87922   0.00000  Uiso   1.00
H1965  H     0.61168   0.81350   0.85275   0.00000  Uiso   1.00
H1966  H     0.56608   0.78470   0.86697   0.00000  Uiso   1.00
C1967  C     0.61199   0.78907   0.92060   0.00000  Uiso   1.00
H1968  H     0.59074   0.78309   0.94745   0.00000  Uiso   1.00
H1969  H     0.62478   0.75531   0.91207   0.00000  Uiso   1.00
H1970  H     0.63737   0.81217   0.93278   0.00000  Uiso   1.00
O1971  O     0.42869   0.82276   0.61009   0.00000  Uiso   1.00
C1972  C     0.41555   0.77813   0.59584   0.00000  Uiso   1.00
H1973  H     0.43834   0.75215   0.60631   0.00000  Uiso   1.00
H1974  H     0.41079   0.77528   0.55913   0.00000  Uiso   1.00
C1975  C     0.37524   0.76609   0.61564   0.00000  Uiso   1.00
H1976  H     0.35129   0.78994   0.60243   0.00000  Uiso   1.00
H1977  H     0.36584   0.73010   0.60706   0.00000  Uiso   1.00
H1978  H     0.37852   0.76942   0.65226   0.00000  Uiso   1.00
O1979  O     0.43799   0.79108   0.89454   0.00000  Uiso   1.00
C1980  C     0.41314   0.80256   0.85662   0.00000  Uiso   1.00
H1981  H     0.42549   0.78603   0.82766   0.00000  Uiso   1.00
H1982  H     0.41069   0.84034   0.85071   0.00000  Uiso   1.00
C1983  C     0.37089   0.78169   0.86147   0.00000  Uiso   1.00
H1984  H     0.35915   0.79285   0.89322   0.00000  Uiso   1.00
H1985  H     0.34973   0.79303   0.83362   0.00000  Uiso   1.00
H1986  H     0.37221   0.74342   0.86153   0.00000  Uiso   1.00
O1987  O     0.57459   0.85342   0.61970   0.00000  Uiso   1.00
C1988  C     0.58230   0.89507   0.64315   0.00000  Uiso   1.00
H1989  H     0.56886   0.89311   0.67547   0.00000  Uiso   1.00
H1990  H     0.56925   0.92579   0.62578   0.00000  Uiso   1.00
C1991  C     0.62809   0.90208   0.65260   0.00000  Uiso   1.00
H1992  H     0.64377   0.90792   0.62152   0.00000  Uiso   1.00
H1993  H     0.63406   0.93228   0.67467   0.00000  Uiso   1.00
H1994  H     0.64134   0.87103   0.66906   0.00000  Uiso   1.00
O1995  O     0.39147   0.85636   0.94402   0.00000  Uiso   1.00
C1996  C     0.39444   0.90126   0.92517   0.00000  Uiso   1.00
H1997  H     0.42211   0.90559   0.90583   0.00000  Uiso   1.00
H1998  H     0.39542   0.92790   0.95171   0.00000  Uiso   1.00
C1999  C     0.35783   0.91020   0.89309   0.00000  Uiso   1.00
H2000  H     0.66393   0.91601   0.91172   0.00000  Uiso   1.00
H2001  H     0.36356   0.94172   0.87299   0.00000  Uiso   1.00
H2002  H     0.35177   0.88060   0.87040   0.00000  Uiso   1.00
O2003  O     0.60277   0.90211   0.55014   0.00000  Uiso   1.00
C2004  C     0.60150   0.95066   0.54246   0.00000  Uiso   1.00
H2005  H     0.58857   0.96786   0.57098   0.00000  Uiso   1.00
H2006  H     0.58232   0.96143   0.51245   0.00000  Uiso   1.00
C2007  C     0.64455   0.97002   0.53823   0.00000  Uiso   1.00
H2008  H     0.65882   0.95415   0.50971   0.00000  Uiso   1.00
H2009  H     0.64345   0.67459   0.53266   0.00000  Uiso   1.00
H2010  H     0.66373   0.96321   0.56911   0.00000  Uiso   1.00
N2011  N     0.38826   0.85904   0.53696   0.00000  Uiso   1.00
H2012  H     0.36663   0.83438   0.52539   0.00000  Uiso   1.00
H2013  H     0.37804   0.89139   0.52613   0.00000  Uiso   1.00
N2014  N     0.60758   0.88901   0.95870   0.00000  Uiso   1.00
H2015  H     0.63338   0.87883   0.97809   0.00000  Uiso   1.00
H2016  H     0.60799   0.92484   0.95507   0.00000  Uiso   1.00
N2017  N     0.37183   0.74872   0.73505   0.00000  Uiso   1.00
H2018  H     0.38423   0.74014   0.76681   0.00000  Uiso   1.00
H2019  H     0.35071   0.72208   0.72808   0.00000  Uiso   1.00
N2020  N     0.63014   0.90864   0.79125   0.00000  Uiso   1.00
H2021  H     0.61411   0.89496   0.81737   0.00000  Uiso   1.00
H2022  H     0.61196   0.92821   0.76887   0.00000  Uiso   1.00
N2023  N     0.62057   0.76322   0.70397   0.00000  Uiso   1.00
H2024  H     0.59951   0.78111   0.68322   0.00000  Uiso   1.00
H2025  H     0.63930   0.74961   0.68067   0.00000  Uiso   1.00
N2026  N     0.37724   0.91358   0.78119   0.00000  Uiso   1.00
H2027  H     0.38975   0.93049   0.75424   0.00000  Uiso   1.00
H2028  H     0.39961   0.90586   0.80612   0.00000  Uiso   1.00
N2029  N     0.45738   0.71252   0.68063   0.00000  Uiso   1.00
H2030  H     0.47908   0.72125   0.65793   0.00000  Uiso   1.00
H2031  H     0.44192   0.74111   0.69083   0.00000  Uiso   1.00
N2032  N     0.54089   0.95407   0.82087   0.00000  Uiso   1.00
H2033  H     0.55438   0.92423   0.81114   0.00000  Uiso   1.00
H2034  H     0.51946   0.94675   0.84435   0.00000  Uiso   1.00
N2035  N     0.54416   0.71302   0.81860   0.00000  Uiso   1.00
H2036  H     0.52433   0.72377   0.84207   0.00000  Uiso   1.00
H2037  H     0.56260   0.73930   0.80684   0.00000  Uiso   1.00
N2038  N     0.45721   0.95321   0.68023   0.00000  Uiso   1.00
H2039  H     0.43995   0.92507   0.69036   0.00000  Uiso   1.00
H2040  H     0.47790   0.94418   0.65693   0.00000  Uiso   1.00
C2041  C     0.75413   0.83303   0.75014   0.00000  Uiso   1.00
C2042  C     0.91249   0.83372   0.75041   0.00000  Uiso   1.00
C2043  C     0.75927   0.85050   0.51697   0.00000  Uiso   1.00
C2044  C     0.90492   0.87523   0.98021   0.00000  Uiso   1.00
C2045  C     0.68599   0.79284   0.73863   0.00000  Uiso   1.00
C2046  C     0.98078   0.87131   0.76850   0.00000  Uiso   1.00
C2047  C     0.97683   0.79656   0.73129   0.00000  Uiso   1.00
C2048  C     0.68937   0.87223   0.76610   0.00000  Uiso   1.00
C2049  C     0.95716   0.83418   0.74996   0.00000  Uiso   1.00
C2050  C     0.70940   0.83269   0.75148   0.00000  Uiso   1.00
C2051  C     0.81176   0.69078   0.71758   0.00000  Uiso   1.00
C2052  C     0.85397   0.97578   0.78315   0.00000  Uiso   1.00
C2053  C     0.85459   0.69113   0.78268   0.00000  Uiso   1.00
C2054  C     0.81202   0.97533   0.71725   0.00000  Uiso   1.00
C2055  C     0.83413   0.83401   0.66428   0.00000  Uiso   1.00
C2056  C     0.83356   0.83318   0.83570   0.00000  Uiso   1.00
C2057  C     0.87089   0.84890   0.90861   0.00000  Uiso   1.00
C2058  C     0.79729   0.83527   0.58954   0.00000  Uiso   1.00
C2059  C     0.83470   0.83382   0.88468   0.00000  Uiso   1.00
C2060  C     0.83466   0.83811   0.61530   0.00000  Uiso   1.00
C2061  C     0.79867   0.82628   0.90715   0.00000  Uiso   1.00
C2062  C     0.87056   0.85469   0.59561   0.00000  Uiso   1.00
C2063  C     0.79746   0.84151   0.95107   0.00000  Uiso   1.00
C2064  C     0.86963   0.86294   0.54894   0.00000  Uiso   1.00
C2065  C     0.83375   0.85190   0.97619   0.00000  Uiso   1.00
C2066  C     0.83323   0.85401   0.52300   0.00000  Uiso   1.00
C2067  C     0.87043   0.85813   0.95485   0.00000  Uiso   1.00
C2068  C     0.79617   0.84628   0.54353   0.00000  Uiso   1.00
C2069  C     0.76008   0.84840   0.97037   0.00000  Uiso   1.00
C2070  C     0.90371   0.88031   0.52681   0.00000  Uiso   1.00
Cu2071 Cu    0.83333   0.88022   0.75000   0.00000  Uiso   1.00
Cu2072 Cu    0.83333   0.78645   0.75000   0.00000  Uiso   1.00
N2073  N     0.83333   0.95069   0.75000   0.00000  Uiso   1.00
N2074  N     0.83333   0.71598   0.75000   0.00000  Uiso   1.00
O2075  O     0.77321   0.87291   0.74999   0.00000  Uiso   1.00
O2076  O     0.89345   0.79375   0.75000   0.00000  Uiso   1.00
O2077  O     0.89345   0.87291   0.75000   0.00000  Uiso   1.00
O2078  O     0.77321   0.79375   0.74999   0.00000  Uiso   1.00
O2079  O     0.83332   0.87293   0.68513   0.00000  Uiso   1.00
O2080  O     0.83334   0.79373   0.81487   0.00000  Uiso   1.00
O2081  O     0.83334   0.87293   0.81487   0.00000  Uiso   1.00
O2082  O     0.83332   0.79373   0.68513   0.00000  Uiso   1.00
O2083  O     0.90692   0.85373   0.88705   0.00000  Uiso   1.00
C2084  C     0.92307   0.80968   0.87922   0.00000  Uiso   1.00
H2085  H     0.94501   0.81350   0.85275   0.00000  Uiso   1.00
H2086  H     0.89942   0.78470   0.86697   0.00000  Uiso   1.00
C2087  C     0.94532   0.78907   0.92060   0.00000  Uiso   1.00
H2088  H     0.92407   0.78309   0.94745   0.00000  Uiso   1.00
H2089  H     0.95812   0.75531   0.91207   0.00000  Uiso   1.00
H2090  H     0.97070   0.81217   0.93278   0.00000  Uiso   1.00
O2091  O     0.76202   0.82276   0.61009   0.00000  Uiso   1.00
C2092  C     0.74889   0.77813   0.59584   0.00000  Uiso   1.00
H2093  H     0.77168   0.75215   0.60631   0.00000  Uiso   1.00
H2094  H     0.74412   0.77528   0.55913   0.00000  Uiso   1.00
C2095  C     0.70857   0.76609   0.61564   0.00000  Uiso   1.00
H2096  H     0.68463   0.78994   0.60243   0.00000  Uiso   1.00
H2097  H     0.69917   0.73010   0.60706   0.00000  Uiso   1.00
H2098  H     0.71185   0.76942   0.65226   0.00000  Uiso   1.00
O2099  O     0.77132   0.79108   0.89454   0.00000  Uiso   1.00
C2100  C     0.74647   0.80256   0.85662   0.00000  Uiso   1.00
H2101  H     0.75882   0.78603   0.82766   0.00000  Uiso   1.00
H2102  H     0.74402   0.84034   0.85071   0.00000  Uiso   1.00
C2103  C     0.70423   0.78169   0.86147   0.00000  Uiso   1.00
H2104  H     0.69248   0.79285   0.89322   0.00000  Uiso   1.00
H2105  H     0.68307   0.79303   0.83362   0.00000  Uiso   1.00
H2106  H     0.70554   0.74342   0.86153   0.00000  Uiso   1.00
O2107  O     0.90793   0.85342   0.61970   0.00000  Uiso   1.00
C2108  C     0.91563   0.89507   0.64315   0.00000  Uiso   1.00
H2109  H     0.90220   0.89311   0.67547   0.00000  Uiso   1.00
H2110  H     0.90259   0.92579   0.62578   0.00000  Uiso   1.00
C2111  C     0.96142   0.90208   0.65260   0.00000  Uiso   1.00
H2112  H     0.97710   0.90792   0.62152   0.00000  Uiso   1.00
H2113  H     0.96740   0.93228   0.67467   0.00000  Uiso   1.00
H2114  H     0.97467   0.87103   0.66906   0.00000  Uiso   1.00
O2115  O     0.72480   0.85636   0.94402   0.00000  Uiso   1.00
C2116  C     0.72777   0.90126   0.92517   0.00000  Uiso   1.00
H2117  H     0.75544   0.90559   0.90583   0.00000  Uiso   1.00
H2118  H     0.72876   0.92790   0.95171   0.00000  Uiso   1.00
C2119  C     0.69117   0.91020   0.89309   0.00000  Uiso   1.00
H2120  H     0.99726   0.91601   0.91172   0.00000  Uiso   1.00
H2121  H     0.69690   0.94172   0.87299   0.00000  Uiso   1.00
H2122  H     0.68510   0.88060   0.87040   0.00000  Uiso   1.00
O2123  O     0.93610   0.90211   0.55014   0.00000  Uiso   1.00
C2124  C     0.93484   0.95066   0.54246   0.00000  Uiso   1.00
H2125  H     0.92191   0.96786   0.57098   0.00000  Uiso   1.00
H2126  H     0.91565   0.96143   0.51245   0.00000  Uiso   1.00
C2127  C     0.97788   0.97002   0.53823   0.00000  Uiso   1.00
H2128  H     0.99215   0.95415   0.50971   0.00000  Uiso   1.00
H2129  H     0.97678   0.67459   0.53266   0.00000  Uiso   1.00
H2130  H     0.99707   0.96321   0.56911   0.00000  Uiso   1.00
N2131  N     0.72160   0.85904   0.53696   0.00000  Uiso   1.00
H2132  H     0.69996   0.83438   0.52539   0.00000  Uiso   1.00
H2133  H     0.71137   0.89139   0.52613   0.00000  Uiso   1.00
N2134  N     0.94092   0.88901   0.95870   0.00000  Uiso   1.00
H2135  H     0.96672   0.87883   0.97809   0.00000  Uiso   1.00
H2136  H     0.94132   0.92484   0.95507   0.00000  Uiso   1.00
N2137  N     0.70516   0.74872   0.73505   0.00000  Uiso   1.00
H2138  H     0.71756   0.74014   0.76681   0.00000  Uiso   1.00
H2139  H     0.68404   0.72208   0.72808   0.00000  Uiso   1.00
N2140  N     0.96347   0.90864   0.79125   0.00000  Uiso   1.00
H2141  H     0.94745   0.89496   0.81737   0.00000  Uiso   1.00
H2142  H     0.94529   0.92821   0.76887   0.00000  Uiso   1.00
N2143  N     0.95390   0.76322   0.70397   0.00000  Uiso   1.00
H2144  H     0.93285   0.78111   0.68322   0.00000  Uiso   1.00
H2145  H     0.97263   0.74961   0.68067   0.00000  Uiso   1.00
N2146  N     0.71057   0.91358   0.78119   0.00000  Uiso   1.00
H2147  H     0.72308   0.93049   0.75424   0.00000  Uiso   1.00
H2148  H     0.73294   0.90586   0.80612   0.00000  Uiso   1.00
N2149  N     0.79071   0.71252   0.68063   0.00000  Uiso   1.00
H2150  H     0.81242   0.72125   0.65793   0.00000  Uiso   1.00
H2151  H     0.77526   0.74111   0.69083   0.00000  Uiso   1.00
N2152  N     0.87422   0.95407   0.82087   0.00000  Uiso   1.00
H2153  H     0.88771   0.92423   0.81114   0.00000  Uiso   1.00
H2154  H     0.85279   0.94675   0.84435   0.00000  Uiso   1.00
N2155  N     0.87749   0.71302   0.81860   0.00000  Uiso   1.00
H2156  H     0.85766   0.72377   0.84207   0.00000  Uiso   1.00
H2157  H     0.89594   0.73930   0.80684   0.00000  Uiso   1.00
N2158  N     0.79054   0.95321   0.68023   0.00000  Uiso   1.00
H2159  H     0.77329   0.92507   0.69036   0.00000  Uiso   1.00
H2160  H     0.81124   0.94418   0.65693   0.00000  Uiso   1.00
loop_
_geom_bond_atom_site_label_1
_geom_bond_atom_site_label_2
_geom_bond_distance
_geom_bond_site_symmetry_2
_ccdc_geom_bond_type
C1     O38     1.310   .     A
C1     O35     1.305   .     A
C1     C10     1.473   .     S
C2     O36     1.306   .     A
C2     O37     1.307   .     A
C2     C9      1.470   .     S
C3     C28     1.419   .     A
C3     N91     1.435   .     S
C3     C1109   1.405   1_554 S
C4     N94     1.431   .     S
C4     C27     1.412   .     A
C4     C1110   1.413   .     S
C5     N97     1.444   .     S
C5     C10     1.419   .     A
C5     C247    1.408   1_455 S
C6     C9      1.414   .     A
C6     N100    1.430   .     S
C6     C128    1.384   .     S
C7     N103    1.445   .     S
C7     C9      1.415   .     A
C7     C125    1.408   .     S
C8     N106    1.438   .     S
C8     C10     1.418   .     A
C8     C246    1.384   1_455 S
C11    N109    1.422   .     S
C11    N34     1.377   .     A
C11    C734    1.414   1_545 S
C12    N112    1.428   .     S
C12    N33     1.377   .     A
C12    C373    1.411   .     S
C13    N115    1.426   .     S
C13    N34     1.377   .     A
C13    C732    1.411   1_545 S
C14    N118    1.432   .     S
C14    N33     1.376   .     A
C14    C371    1.414   .     S
C15    C20     1.478   .     S
C15    O39     1.297   .     A
C15    O42     1.321   .     A
C16    C19     1.471   .     S
C16    O40     1.308   .     A
C16    O41     1.307   .     A
C17    C27     1.419   .     A
C17    O43     1.388   .     S
C17    C19     1.417   .     A
C18    C20     1.414   .     A
C18    O51     1.387   .     S
C18    C28     1.416   .     A
C19    C21     1.411   .     A
C20    C22     1.426   .     A
C21    O59     1.388   .     S
C21    C23     1.399   .     A
C22    C24     1.420   .     A
C22    O67     1.389   .     S
C23    C25     1.403   .     A
C23    C29     1.409   .     A
C24    C26     1.410   .     A
C24    C30     1.419   .     A
C25    C27     1.408   .     A
C25    C1106   1.411   .     S
C26    C28     1.412   .     A
C26    C1105   1.411   1_554 S
C29    O75     1.387   .     S
C29    C1083   1.405   .     S
C30    O83     1.385   .     S
C30    C1084   1.413   1_554 S
Cu31   N33     2.042   .     S
Cu31   Cu32    2.718   .     S
Cu31   O35     1.984   .     S
Cu31   O41     1.960   .     S
Cu31   O39     1.964   .     S
Cu31   O37     1.992   .     S
Cu32   O36     1.984   .     S
Cu32   O38     1.992   .     S
Cu32   O40     1.964   .     S
Cu32   O42     1.960   .     S
Cu32   N34     2.042   .     S
O43    C44     1.419   .     S
C44    H45     1.110   .     S
C44    H46     1.102   .     S
C44    C47     1.528   .     S
C47    H49     1.110   .     S
C47    H50     1.107   .     S
C47    H48     1.110   .     S
O51    C52     1.418   .     S
C52    H54     1.109   .     S
C52    H53     1.103   .     S
C52    C55     1.519   .     S
C55    H56     1.111   .     S
C55    H57     1.111   .     S
C55    H58     1.105   .     S
O59    C60     1.404   .     S
C60    C63     1.519   .     S
C60    H62     1.111   .     S
C60    H61     1.100   .     S
C63    H65     1.108   .     S
C63    H66     1.111   .     S
C63    H64     1.104   .     S
O67    C68     1.414   .     S
C68    H69     1.092   .     S
C68    H70     1.109   .     S
C68    C71     1.525   .     S
C71    H74     1.107   .     S
C71    H72     1.104   .     S
C71    H73     1.111   .     S
O75    C76     1.419   .     S
C76    C79     1.521   .     S
C76    H77     1.114   .     S
C76    H78     1.114   .     S
C79    H81     1.110   .     S
C79    H82     1.108   .     S
C79    H320    1.101   1_455 S
H80    C199    1.101   .     S
O83    C84     1.425   .     S
C84    C87     1.525   .     S
C84    H85     1.106   .     S
C84    H86     1.115   .     S
C87    H88     1.109   .     S
C87    H90     1.109   .     S
C87    H449    1.111   .     S
H89    C807    1.111   1_545 S
N91    H92     1.046   .     S
N91    H93     1.045   .     S
N94    H96     1.043   .     S
N94    H95     1.046   .     S
N97    H98     1.045   .     S
N97    H99     1.043   .     S
N100   H102    1.044   .     S
N100   H101    1.043   .     S
N103   H105    1.045   .     S
N103   H104    1.046   .     S
N106   H107    1.045   .     S
N106   H108    1.044   .     S
N109   H111    1.038   .     S
N109   H110    1.043   .     S
N112   H114    1.045   .     S
N112   H113    1.032   .     S
N115   H116    1.043   .     S
N115   H117    1.038   .     S
N118   H119    1.039   .     S
N118   H120    1.044   .     S
C121   O158    1.310   .     A
C121   O155    1.305   .     A
C121   C130    1.473   .     S
C122   O156    1.306   .     A
C122   O157    1.307   .     A
C122   C129    1.470   .     S
C123   C148    1.419   .     A
C123   N211    1.435   .     S
C123   C1229   1.405   1_554 S
C124   N214    1.431   .     S
C124   C147    1.412   .     A
C124   C1230   1.413   .     S
C125   N217    1.444   .     S
C125   C130    1.419   .     A
C126   C129    1.414   .     A
C126   N220    1.430   .     S
C126   C248    1.384   .     S
C127   N223    1.445   .     S
C127   C129    1.415   .     A
C127   C245    1.408   .     S
C128   N226    1.438   .     S
C128   C130    1.418   .     A
C131   N229    1.422   .     S
C131   N154    1.377   .     A
C131   C854    1.414   1_545 S
C132   N232    1.428   .     S
C132   N153    1.377   .     A
C132   C493    1.411   .     S
C133   N235    1.426   .     S
C133   N154    1.377   .     A
C133   C852    1.411   1_545 S
C134   N238    1.432   .     S
C134   N153    1.376   .     A
C134   C491    1.414   .     S
C135   C140    1.478   .     S
C135   O159    1.297   .     A
C135   O162    1.321   .     A
C136   C139    1.471   .     S
C136   O160    1.308   .     A
C136   O161    1.307   .     A
C137   C147    1.419   .     A
C137   O163    1.388   .     S
C137   C139    1.417   .     A
C138   C140    1.414   .     A
C138   O171    1.387   .     S
C138   C148    1.416   .     A
C139   C141    1.411   .     A
C140   C142    1.426   .     A
C141   O179    1.388   .     S
C141   C143    1.399   .     A
C142   C144    1.420   .     A
C142   O187    1.389   .     S
C143   C145    1.403   .     A
C143   C149    1.409   .     A
C144   C146    1.410   .     A
C144   C150    1.419   .     A
C145   C147    1.408   .     A
C145   C1226   1.411   .     S
C146   C148    1.412   .     A
C146   C1225   1.411   1_554 S
C149   O195    1.387   .     S
C149   C1203   1.405   .     S
C150   O203    1.385   .     S
C150   C1204   1.413   1_554 S
Cu151  N153    2.042   .     S
Cu151  Cu152   2.718   .     S
Cu151  O155    1.984   .     S
Cu151  O161    1.960   .     S
Cu151  O159    1.964   .     S
Cu151  O157    1.992   .     S
Cu152  O156    1.984   .     S
Cu152  O158    1.992   .     S
Cu152  O160    1.964   .     S
Cu152  O162    1.960   .     S
Cu152  N154    2.042   .     S
O163   C164    1.419   .     S
C164   H165    1.110   .     S
C164   H166    1.102   .     S
C164   C167    1.528   .     S
C167   H169    1.110   .     S
C167   H170    1.107   .     S
C167   H168    1.110   .     S
O171   C172    1.418   .     S
C172   H174    1.109   .     S
C172   H173    1.103   .     S
C172   C175    1.519   .     S
C175   H176    1.111   .     S
C175   H177    1.111   .     S
C175   H178    1.105   .     S
O179   C180    1.404   .     S
C180   C183    1.519   .     S
C180   H182    1.111   .     S
C180   H181    1.100   .     S
C183   H185    1.108   .     S
C183   H186    1.111   .     S
C183   H184    1.104   .     S
O187   C188    1.414   .     S
C188   H189    1.092   .     S
C188   H190    1.109   .     S
C188   C191    1.525   .     S
C191   H194    1.107   .     S
C191   H192    1.104   .     S
C191   H193    1.111   .     S
O195   C196    1.419   .     S
C196   C199    1.521   .     S
C196   H197    1.114   .     S
C196   H198    1.114   .     S
C199   H201    1.110   .     S
C199   H202    1.108   .     S
H200   C319    1.101   .     S
O203   C204    1.425   .     S
C204   C207    1.525   .     S
C204   H205    1.106   .     S
C204   H206    1.115   .     S
C207   H208    1.109   .     S
C207   H210    1.109   .     S
C207   H569    1.111   .     S
H209   C927    1.111   1_545 S
N211   H212    1.046   .     S
N211   H213    1.045   .     S
N214   H216    1.043   .     S
N214   H215    1.046   .     S
N217   H218    1.045   .     S
N217   H219    1.043   .     S
N220   H222    1.044   .     S
N220   H221    1.043   .     S
N223   H225    1.045   .     S
N223   H224    1.046   .     S
N226   H227    1.045   .     S
N226   H228    1.044   .     S
N229   H231    1.038   .     S
N229   H230    1.043   .     S
N232   H234    1.045   .     S
N232   H233    1.032   .     S
N235   H236    1.043   .     S
N235   H237    1.038   .     S
N238   H239    1.039   .     S
N238   H240    1.044   .     S
C241   O278    1.310   .     A
C241   O275    1.305   .     A
C241   C250    1.473   .     S
C242   O276    1.306   .     A
C242   O277    1.307   .     A
C242   C249    1.470   .     S
C243   C268    1.419   .     A
C243   N331    1.435   .     S
C243   C1349   1.405   1_554 S
C244   N334    1.431   .     S
C244   C267    1.412   .     A
C244   C1350   1.413   .     S
C245   N337    1.444   .     S
C245   C250    1.419   .     A
C246   C249    1.414   .     A
C246   N340    1.430   .     S
C246   C8      1.384   1_655 S
C247   N343    1.445   .     S
C247   C249    1.415   .     A
C247   C5      1.408   1_655 S
C248   N346    1.438   .     S
C248   C250    1.418   .     A
C251   N349    1.422   .     S
C251   N274    1.377   .     A
C251   C974    1.414   1_545 S
C252   N352    1.428   .     S
C252   N273    1.377   .     A
C252   C613    1.411   .     S
C253   N355    1.426   .     S
C253   N274    1.377   .     A
C253   C972    1.411   1_545 S
C254   N358    1.432   .     S
C254   N273    1.376   .     A
C254   C611    1.414   .     S
C255   C260    1.478   .     S
C255   O279    1.297   .     A
C255   O282    1.321   .     A
C256   C259    1.471   .     S
C256   O280    1.308   .     A
C256   O281    1.307   .     A
C257   C267    1.419   .     A
C257   O283    1.388   .     S
C257   C259    1.417   .     A
C258   C260    1.414   .     A
C258   O291    1.387   .     S
C258   C268    1.416   .     A
C259   C261    1.411   .     A
C260   C262    1.426   .     A
C261   O299    1.388   .     S
C261   C263    1.399   .     A
C262   C264    1.420   .     A
C262   O307    1.389   .     S
C263   C265    1.403   .     A
C263   C269    1.409   .     A
C264   C266    1.410   .     A
C264   C270    1.419   .     A
C265   C267    1.408   .     A
C265   C1346   1.411   .     S
C266   C268    1.412   .     A
C266   C1345   1.411   1_554 S
C269   O315    1.387   .     S
C269   C1323   1.405   .     S
C270   O323    1.385   .     S
C270   C1324   1.413   1_554 S
Cu271  N273    2.042   .     S
Cu271  Cu272   2.718   .     S
Cu271  O275    1.984   .     S
Cu271  O281    1.960   .     S
Cu271  O279    1.964   .     S
Cu271  O277    1.992   .     S
Cu272  O276    1.984   .     S
Cu272  O278    1.992   .     S
Cu272  O280    1.964   .     S
Cu272  O282    1.960   .     S
Cu272  N274    2.042   .     S
O283   C284    1.419   .     S
C284   H285    1.110   .     S
C284   H286    1.102   .     S
C284   C287    1.528   .     S
C287   H289    1.110   .     S
C287   H290    1.107   .     S
C287   H288    1.110   .     S
O291   C292    1.418   .     S
C292   H294    1.109   .     S
C292   H293    1.103   .     S
C292   C295    1.519   .     S
C295   H296    1.111   .     S
C295   H297    1.111   .     S
C295   H298    1.105   .     S
O299   C300    1.404   .     S
C300   C303    1.519   .     S
C300   H302    1.111   .     S
C300   H301    1.100   .     S
C303   H305    1.108   .     S
C303   H306    1.111   .     S
C303   H304    1.104   .     S
O307   C308    1.414   .     S
C308   H309    1.092   .     S
C308   H310    1.109   .     S
C308   C311    1.525   .     S
C311   H314    1.107   .     S
C311   H312    1.104   .     S
C311   H313    1.111   .     S
O315   C316    1.419   .     S
C316   C319    1.521   .     S
C316   H317    1.114   .     S
C316   H318    1.114   .     S
C319   H321    1.110   .     S
C319   H322    1.108   .     S
H320   C79     1.101   1_655 S
O323   C324    1.425   .     S
C324   C327    1.525   .     S
C324   H325    1.106   .     S
C324   H326    1.115   .     S
C327   H328    1.109   .     S
C327   H330    1.109   .     S
C327   H689    1.111   .     S
H329   C1047   1.111   1_545 S
N331   H332    1.046   .     S
N331   H333    1.045   .     S
N334   H336    1.043   .     S
N334   H335    1.046   .     S
N337   H338    1.045   .     S
N337   H339    1.043   .     S
N340   H342    1.044   .     S
N340   H341    1.043   .     S
N343   H345    1.045   .     S
N343   H344    1.046   .     S
N346   H347    1.045   .     S
N346   H348    1.044   .     S
N349   H351    1.038   .     S
N349   H350    1.043   .     S
N352   H354    1.045   .     S
N352   H353    1.032   .     S
N355   H356    1.043   .     S
N355   H357    1.038   .     S
N358   H359    1.039   .     S
N358   H360    1.044   .     S
C361   O398    1.310   .     A
C361   O395    1.305   .     A
C361   C370    1.473   .     S
C362   O396    1.306   .     A
C362   O397    1.307   .     A
C362   C369    1.470   .     S
C363   C388    1.419   .     A
C363   N451    1.435   .     S
C363   C1469   1.405   1_554 S
C364   N454    1.431   .     S
C364   C387    1.412   .     A
C364   C1470   1.413   .     S
C365   N457    1.444   .     S
C365   C370    1.419   .     A
C365   C607    1.408   1_455 S
C366   C369    1.414   .     A
C366   N460    1.430   .     S
C366   C488    1.384   .     S
C367   N463    1.445   .     S
C367   C369    1.415   .     A
C367   C485    1.408   .     S
C368   N466    1.438   .     S
C368   C370    1.418   .     A
C368   C606    1.384   1_455 S
C371   N469    1.422   .     S
C371   N394    1.377   .     A
C372   N472    1.428   .     S
C372   N393    1.377   .     A
C372   C733    1.411   .     S
C373   N475    1.426   .     S
C373   N394    1.377   .     A
C374   N478    1.432   .     S
C374   N393    1.376   .     A
C374   C731    1.414   .     S
C375   C380    1.478   .     S
C375   O399    1.297   .     A
C375   O402    1.321   .     A
C376   C379    1.471   .     S
C376   O400    1.308   .     A
C376   O401    1.307   .     A
C377   C387    1.419   .     A
C377   O403    1.388   .     S
C377   C379    1.417   .     A
C378   C380    1.414   .     A
C378   O411    1.387   .     S
C378   C388    1.416   .     A
C379   C381    1.411   .     A
C380   C382    1.426   .     A
C381   O419    1.388   .     S
C381   C383    1.399   .     A
C382   C384    1.420   .     A
C382   O427    1.389   .     S
C383   C385    1.403   .     A
C383   C389    1.409   .     A
C384   C386    1.410   .     A
C384   C390    1.419   .     A
C385   C387    1.408   .     A
C385   C1466   1.411   .     S
C386   C388    1.412   .     A
C386   C1465   1.411   1_554 S
C389   O435    1.387   .     S
C389   C1443   1.405   .     S
C390   O443    1.385   .     S
C390   C1444   1.413   1_554 S
Cu391  N393    2.042   .     S
Cu391  Cu392   2.718   .     S
Cu391  O395    1.984   .     S
Cu391  O401    1.960   .     S
Cu391  O399    1.964   .     S
Cu391  O397    1.992   .     S
Cu392  O396    1.984   .     S
Cu392  O398    1.992   .     S
Cu392  O400    1.964   .     S
Cu392  O402    1.960   .     S
Cu392  N394    2.042   .     S
O403   C404    1.419   .     S
C404   H405    1.110   .     S
C404   H406    1.102   .     S
C404   C407    1.528   .     S
C407   H409    1.110   .     S
C407   H410    1.107   .     S
C407   H408    1.110   .     S
O411   C412    1.418   .     S
C412   H414    1.109   .     S
C412   H413    1.103   .     S
C412   C415    1.519   .     S
C415   H416    1.111   .     S
C415   H417    1.111   .     S
C415   H418    1.105   .     S
O419   C420    1.404   .     S
C420   C423    1.519   .     S
C420   H422    1.111   .     S
C420   H421    1.100   .     S
C423   H425    1.108   .     S
C423   H426    1.111   .     S
C423   H424    1.104   .     S
O427   C428    1.414   .     S
C428   H429    1.092   .     S
C428   H430    1.109   .     S
C428   C431    1.525   .     S
C431   H434    1.107   .     S
C431   H432    1.104   .     S
C431   H433    1.111   .     S
O435   C436    1.419   .     S
C436   C439    1.521   .     S
C436   H437    1.114   .     S
C436   H438    1.114   .     S
C439   H441    1.110   .     S
C439   H442    1.108   .     S
C439   H680    1.101   1_455 S
H440   C559    1.101   .     S
O443   C444    1.425   .     S
C444   C447    1.525   .     S
C444   H445    1.106   .     S
C444   H446    1.115   .     S
C447   H448    1.109   .     S
C447   H450    1.109   .     S
C447   H809    1.111   .     S
N451   H452    1.046   .     S
N451   H453    1.045   .     S
N454   H456    1.043   .     S
N454   H455    1.046   .     S
N457   H458    1.045   .     S
N457   H459    1.043   .     S
N460   H462    1.044   .     S
N460   H461    1.043   .     S
N463   H465    1.045   .     S
N463   H464    1.046   .     S
N466   H467    1.045   .     S
N466   H468    1.044   .     S
N469   H471    1.038   .     S
N469   H470    1.043   .     S
N472   H474    1.045   .     S
N472   H473    1.032   .     S
N475   H476    1.043   .     S
N475   H477    1.038   .     S
N478   H479    1.039   .     S
N478   H480    1.044   .     S
C481   O518    1.310   .     A
C481   O515    1.305   .     A
C481   C490    1.473   .     S
C482   O516    1.306   .     A
C482   O517    1.307   .     A
C482   C489    1.470   .     S
C483   C508    1.419   .     A
C483   N571    1.435   .     S
C483   C1589   1.405   1_554 S
C484   N574    1.431   .     S
C484   C507    1.412   .     A
C484   C1590   1.413   .     S
C485   N577    1.444   .     S
C485   C490    1.419   .     A
C486   C489    1.414   .     A
C486   N580    1.430   .     S
C486   C608    1.384   .     S
C487   N583    1.445   .     S
C487   C489    1.415   .     A
C487   C605    1.408   .     S
C488   N586    1.438   .     S
C488   C490    1.418   .     A
C491   N589    1.422   .     S
C491   N514    1.377   .     A
C492   N592    1.428   .     S
C492   N513    1.377   .     A
C492   C853    1.411   .     S
C493   N595    1.426   .     S
C493   N514    1.377   .     A
C494   N598    1.432   .     S
C494   N513    1.376   .     A
C494   C851    1.414   .     S
C495   C500    1.478   .     S
C495   O519    1.297   .     A
C495   O522    1.321   .     A
C496   C499    1.471   .     S
C496   O520    1.308   .     A
C496   O521    1.307   .     A
C497   C507    1.419   .     A
C497   O523    1.388   .     S
C497   C499    1.417   .     A
C498   C500    1.414   .     A
C498   O531    1.387   .     S
C498   C508    1.416   .     A
C499   C501    1.411   .     A
C500   C502    1.426   .     A
C501   O539    1.388   .     S
C501   C503    1.399   .     A
C502   C504    1.420   .     A
C502   O547    1.389   .     S
C503   C505    1.403   .     A
C503   C509    1.409   .     A
C504   C506    1.410   .     A
C504   C510    1.419   .     A
C505   C507    1.408   .     A
C505   C1586   1.411   .     S
C506   C508    1.412   .     A
C506   C1585   1.411   1_554 S
C509   O555    1.387   .     S
C509   C1563   1.405   .     S
C510   O563    1.385   .     S
C510   C1564   1.413   1_554 S
Cu511  N513    2.042   .     S
Cu511  Cu512   2.718   .     S
Cu511  O515    1.984   .     S
Cu511  O521    1.960   .     S
Cu511  O519    1.964   .     S
Cu511  O517    1.992   .     S
Cu512  O516    1.984   .     S
Cu512  O518    1.992   .     S
Cu512  O520    1.964   .     S
Cu512  O522    1.960   .     S
Cu512  N514    2.042   .     S
O523   C524    1.419   .     S
C524   H525    1.110   .     S
C524   H526    1.102   .     S
C524   C527    1.528   .     S
C527   H529    1.110   .     S
C527   H530    1.107   .     S
C527   H528    1.110   .     S
O531   C532    1.418   .     S
C532   H534    1.109   .     S
C532   H533    1.103   .     S
C532   C535    1.519   .     S
C535   H536    1.111   .     S
C535   H537    1.111   .     S
C535   H538    1.105   .     S
O539   C540    1.404   .     S
C540   C543    1.519   .     S
C540   H542    1.111   .     S
C540   H541    1.100   .     S
C543   H545    1.108   .     S
C543   H546    1.111   .     S
C543   H544    1.104   .     S
O547   C548    1.414   .     S
C548   H549    1.092   .     S
C548   H550    1.109   .     S
C548   C551    1.525   .     S
C551   H554    1.107   .     S
C551   H552    1.104   .     S
C551   H553    1.111   .     S
O555   C556    1.419   .     S
C556   C559    1.521   .     S
C556   H557    1.114   .     S
C556   H558    1.114   .     S
C559   H561    1.110   .     S
C559   H562    1.108   .     S
H560   C679    1.101   .     S
O563   C564    1.425   .     S
C564   C567    1.525   .     S
C564   H565    1.106   .     S
C564   H566    1.115   .     S
C567   H568    1.109   .     S
C567   H570    1.109   .     S
C567   H929    1.111   .     S
N571   H572    1.046   .     S
N571   H573    1.045   .     S
N574   H576    1.043   .     S
N574   H575    1.046   .     S
N577   H578    1.045   .     S
N577   H579    1.043   .     S
N580   H582    1.044   .     S
N580   H581    1.043   .     S
N583   H585    1.045   .     S
N583   H584    1.046   .     S
N586   H587    1.045   .     S
N586   H588    1.044   .     S
N589   H591    1.038   .     S
N589   H590    1.043   .     S
N592   H594    1.045   .     S
N592   H593    1.032   .     S
N595   H596    1.043   .     S
N595   H597    1.038   .     S
N598   H599    1.039   .     S
N598   H600    1.044   .     S
C601   O638    1.310   .     A
C601   O635    1.305   .     A
C601   C610    1.473   .     S
C602   O636    1.306   .     A
C602   O637    1.307   .     A
C602   C609    1.470   .     S
C603   C628    1.419   .     A
C603   N691    1.435   .     S
C603   C1709   1.405   1_554 S
C604   N694    1.431   .     S
C604   C627    1.412   .     A
C604   C1710   1.413   .     S
C605   N697    1.444   .     S
C605   C610    1.419   .     A
C606   C609    1.414   .     A
C606   N700    1.430   .     S
C606   C368    1.384   1_655 S
C607   N703    1.445   .     S
C607   C609    1.415   .     A
C607   C365    1.408   1_655 S
C608   N706    1.438   .     S
C608   C610    1.418   .     A
C611   N709    1.422   .     S
C611   N634    1.377   .     A
C612   N712    1.428   .     S
C612   N633    1.377   .     A
C612   C973    1.411   .     S
C613   N715    1.426   .     S
C613   N634    1.377   .     A
C614   N718    1.432   .     S
C614   N633    1.376   .     A
C614   C971    1.414   .     S
C615   C620    1.478   .     S
C615   O639    1.297   .     A
C615   O642    1.321   .     A
C616   C619    1.471   .     S
C616   O640    1.308   .     A
C616   O641    1.307   .     A
C617   C627    1.419   .     A
C617   O643    1.388   .     S
C617   C619    1.417   .     A
C618   C620    1.414   .     A
C618   O651    1.387   .     S
C618   C628    1.416   .     A
C619   C621    1.411   .     A
C620   C622    1.426   .     A
C621   O659    1.388   .     S
C621   C623    1.399   .     A
C622   C624    1.420   .     A
C622   O667    1.389   .     S
C623   C625    1.403   .     A
C623   C629    1.409   .     A
C624   C626    1.410   .     A
C624   C630    1.419   .     A
C625   C627    1.408   .     A
C625   C1706   1.411   .     S
C626   C628    1.412   .     A
C626   C1705   1.411   1_554 S
C629   O675    1.387   .     S
C629   C1683   1.405   .     S
C630   O683    1.385   .     S
C630   C1684   1.413   1_554 S
Cu631  N633    2.042   .     S
Cu631  Cu632   2.718   .     S
Cu631  O635    1.984   .     S
Cu631  O641    1.960   .     S
Cu631  O639    1.964   .     S
Cu631  O637    1.992   .     S
Cu632  O636    1.984   .     S
Cu632  O638    1.992   .     S
Cu632  O640    1.964   .     S
Cu632  O642    1.960   .     S
Cu632  N634    2.042   .     S
O643   C644    1.419   .     S
C644   H645    1.110   .     S
C644   H646    1.102   .     S
C644   C647    1.528   .     S
C647   H649    1.110   .     S
C647   H650    1.107   .     S
C647   H648    1.110   .     S
O651   C652    1.418   .     S
C652   H654    1.109   .     S
C652   H653    1.103   .     S
C652   C655    1.519   .     S
C655   H656    1.111   .     S
C655   H657    1.111   .     S
C655   H658    1.105   .     S
O659   C660    1.404   .     S
C660   C663    1.519   .     S
C660   H662    1.111   .     S
C660   H661    1.100   .     S
C663   H665    1.108   .     S
C663   H666    1.111   .     S
C663   H664    1.104   .     S
O667   C668    1.414   .     S
C668   H669    1.092   .     S
C668   H670    1.109   .     S
C668   C671    1.525   .     S
C671   H674    1.107   .     S
C671   H672    1.104   .     S
C671   H673    1.111   .     S
O675   C676    1.419   .     S
C676   C679    1.521   .     S
C676   H677    1.114   .     S
C676   H678    1.114   .     S
C679   H681    1.110   .     S
C679   H682    1.108   .     S
H680   C439    1.101   1_655 S
O683   C684    1.425   .     S
C684   C687    1.525   .     S
C684   H685    1.106   .     S
C684   H686    1.115   .     S
C687   H688    1.109   .     S
C687   H690    1.109   .     S
C687   H1049   1.111   .     S
N691   H692    1.046   .     S
N691   H693    1.045   .     S
N694   H696    1.043   .     S
N694   H695    1.046   .     S
N697   H698    1.045   .     S
N697   H699    1.043   .     S
N700   H702    1.044   .     S
N700   H701    1.043   .     S
N703   H705    1.045   .     S
N703   H704    1.046   .     S
N706   H707    1.045   .     S
N706   H708    1.044   .     S
N709   H711    1.038   .     S
N709   H710    1.043   .     S
N712   H714    1.045   .     S
N712   H713    1.032   .     S
N715   H716    1.043   .     S
N715   H717    1.038   .     S
N718   H719    1.039   .     S
N718   H720    1.044   .     S
C721   O758    1.310   .     A
C721   O755    1.305   .     A
C721   C730    1.473   .     S
C722   O756    1.306   .     A
C722   O757    1.307   .     A
C722   C729    1.470   .     S
C723   C748    1.419   .     A
C723   N811    1.435   .     S
C723   C1829   1.405   1_554 S
C724   N814    1.431   .     S
C724   C747    1.412   .     A
C724   C1830   1.413   .     S
C725   N817    1.444   .     S
C725   C730    1.419   .     A
C725   C967    1.408   1_455 S
C726   C729    1.414   .     A
C726   N820    1.430   .     S
C726   C848    1.384   .     S
C727   N823    1.445   .     S
C727   C729    1.415   .     A
C727   C845    1.408   .     S
C728   N826    1.438   .     S
C728   C730    1.418   .     A
C728   C966    1.384   1_455 S
C731   N829    1.422   .     S
C731   N754    1.377   .     A
C732   N832    1.428   .     S
C732   N753    1.377   .     A
C732   C13     1.411   1_565 S
C733   N835    1.426   .     S
C733   N754    1.377   .     A
C734   N838    1.432   .     S
C734   N753    1.376   .     A
C734   C11     1.414   1_565 S
C735   C740    1.478   .     S
C735   O759    1.297   .     A
C735   O762    1.321   .     A
C736   C739    1.471   .     S
C736   O760    1.308   .     A
C736   O761    1.307   .     A
C737   C747    1.419   .     A
C737   O763    1.388   .     S
C737   C739    1.417   .     A
C738   C740    1.414   .     A
C738   O771    1.387   .     S
C738   C748    1.416   .     A
C739   C741    1.411   .     A
C740   C742    1.426   .     A
C741   O779    1.388   .     S
C741   C743    1.399   .     A
C742   C744    1.420   .     A
C742   O787    1.389   .     S
C743   C745    1.403   .     A
C743   C749    1.409   .     A
C744   C746    1.410   .     A
C744   C750    1.419   .     A
C745   C747    1.408   .     A
C745   C1826   1.411   .     S
C746   C748    1.412   .     A
C746   C1825   1.411   1_554 S
C749   O795    1.387   .     S
C749   C1803   1.405   .     S
C750   O803    1.385   .     S
C750   C1804   1.413   1_554 S
Cu751  N753    2.042   .     S
Cu751  Cu752   2.718   .     S
Cu751  O755    1.984   .     S
Cu751  O761    1.960   .     S
Cu751  O759    1.964   .     S
Cu751  O757    1.992   .     S
Cu752  O756    1.984   .     S
Cu752  O758    1.992   .     S
Cu752  O760    1.964   .     S
Cu752  O762    1.960   .     S
Cu752  N754    2.042   .     S
O763   C764    1.419   .     S
C764   H765    1.110   .     S
C764   H766    1.102   .     S
C764   C767    1.528   .     S
C767   H769    1.110   .     S
C767   H770    1.107   .     S
C767   H768    1.110   .     S
O771   C772    1.418   .     S
C772   H774    1.109   .     S
C772   H773    1.103   .     S
C772   C775    1.519   .     S
C775   H776    1.111   .     S
C775   H777    1.111   .     S
C775   H778    1.105   .     S
O779   C780    1.404   .     S
C780   C783    1.519   .     S
C780   H782    1.111   .     S
C780   H781    1.100   .     S
C783   H785    1.108   .     S
C783   H786    1.111   .     S
C783   H784    1.104   .     S
O787   C788    1.414   .     S
C788   H789    1.092   .     S
C788   H790    1.109   .     S
C788   C791    1.525   .     S
C791   H794    1.107   .     S
C791   H792    1.104   .     S
C791   H793    1.111   .     S
O795   C796    1.419   .     S
C796   C799    1.521   .     S
C796   H797    1.114   .     S
C796   H798    1.114   .     S
C799   H801    1.110   .     S
C799   H802    1.108   .     S
C799   H1040   1.101   1_455 S
H800   C919    1.101   .     S
O803   C804    1.425   .     S
C804   C807    1.525   .     S
C804   H805    1.106   .     S
C804   H806    1.115   .     S
C807   H808    1.109   .     S
C807   H810    1.109   .     S
C807   H89     1.111   1_565 S
N811   H812    1.046   .     S
N811   H813    1.045   .     S
N814   H816    1.043   .     S
N814   H815    1.046   .     S
N817   H818    1.045   .     S
N817   H819    1.043   .     S
N820   H822    1.044   .     S
N820   H821    1.043   .     S
N823   H825    1.045   .     S
N823   H824    1.046   .     S
N826   H827    1.045   .     S
N826   H828    1.044   .     S
N829   H831    1.038   .     S
N829   H830    1.043   .     S
N832   H834    1.045   .     S
N832   H833    1.032   .     S
N835   H836    1.043   .     S
N835   H837    1.038   .     S
N838   H839    1.039   .     S
N838   H840    1.044   .     S
C841   O878    1.310   .     A
C841   O875    1.305   .     A
C841   C850    1.473   .     S
C842   O876    1.306   .     A
C842   O877    1.307   .     A
C842   C849    1.470   .     S
C843   C868    1.419   .     A
C843   N931    1.435   .     S
C843   C1949   1.405   1_554 S
C844   N934    1.431   .     S
C844   C867    1.412   .     A
C844   C1950   1.413   .     S
C845   N937    1.444   .     S
C845   C850    1.419   .     A
C846   C849    1.414   .     A
C846   N940    1.430   .     S
C846   C968    1.384   .     S
C847   N943    1.445   .     S
C847   C849    1.415   .     A
C847   C965    1.408   .     S
C848   N946    1.438   .     S
C848   C850    1.418   .     A
C851   N949    1.422   .     S
C851   N874    1.377   .     A
C852   N952    1.428   .     S
C852   N873    1.377   .     A
C852   C133    1.411   1_565 S
C853   N955    1.426   .     S
C853   N874    1.377   .     A
C854   N958    1.432   .     S
C854   N873    1.376   .     A
C854   C131    1.414   1_565 S
C855   C860    1.478   .     S
C855   O879    1.297   .     A
C855   O882    1.321   .     A
C856   C859    1.471   .     S
C856   O880    1.308   .     A
C856   O881    1.307   .     A
C857   C867    1.419   .     A
C857   O883    1.388   .     S
C857   C859    1.417   .     A
C858   C860    1.414   .     A
C858   O891    1.387   .     S
C858   C868    1.416   .     A
C859   C861    1.411   .     A
C860   C862    1.426   .     A
C861   O899    1.388   .     S
C861   C863    1.399   .     A
C862   C864    1.420   .     A
C862   O907    1.389   .     S
C863   C865    1.403   .     A
C863   C869    1.409   .     A
C864   C866    1.410   .     A
C864   C870    1.419   .     A
C865   C867    1.408   .     A
C865   C1946   1.411   .     S
C866   C868    1.412   .     A
C866   C1945   1.411   1_554 S
C869   O915    1.387   .     S
C869   C1923   1.405   .     S
C870   O923    1.385   .     S
C870   C1924   1.413   1_554 S
Cu871  N873    2.042   .     S
Cu871  Cu872   2.718   .     S
Cu871  O875    1.984   .     S
Cu871  O881    1.960   .     S
Cu871  O879    1.964   .     S
Cu871  O877    1.992   .     S
Cu872  O876    1.984   .     S
Cu872  O878    1.992   .     S
Cu872  O880    1.964   .     S
Cu872  O882    1.960   .     S
Cu872  N874    2.042   .     S
O883   C884    1.419   .     S
C884   H885    1.110   .     S
C884   H886    1.102   .     S
C884   C887    1.528   .     S
C887   H889    1.110   .     S
C887   H890    1.107   .     S
C887   H888    1.110   .     S
O891   C892    1.418   .     S
C892   H894    1.109   .     S
C892   H893    1.103   .     S
C892   C895    1.519   .     S
C895   H896    1.111   .     S
C895   H897    1.111   .     S
C895   H898    1.105   .     S
O899   C900    1.404   .     S
C900   C903    1.519   .     S
C900   H902    1.111   .     S
C900   H901    1.100   .     S
C903   H905    1.108   .     S
C903   H906    1.111   .     S
C903   H904    1.104   .     S
O907   C908    1.414   .     S
C908   H909    1.092   .     S
C908   H910    1.109   .     S
C908   C911    1.525   .     S
C911   H914    1.107   .     S
C911   H912    1.104   .     S
C911   H913    1.111   .     S
O915   C916    1.419   .     S
C916   C919    1.521   .     S
C916   H917    1.114   .     S
C916   H918    1.114   .     S
C919   H921    1.110   .     S
C919   H922    1.108   .     S
H920   C1039   1.101   .     S
O923   C924    1.425   .     S
C924   C927    1.525   .     S
C924   H925    1.106   .     S
C924   H926    1.115   .     S
C927   H928    1.109   .     S
C927   H930    1.109   .     S
C927   H209    1.111   1_565 S
N931   H932    1.046   .     S
N931   H933    1.045   .     S
N934   H936    1.043   .     S
N934   H935    1.046   .     S
N937   H938    1.045   .     S
N937   H939    1.043   .     S
N940   H942    1.044   .     S
N940   H941    1.043   .     S
N943   H945    1.045   .     S
N943   H944    1.046   .     S
N946   H947    1.045   .     S
N946   H948    1.044   .     S
N949   H951    1.038   .     S
N949   H950    1.043   .     S
N952   H954    1.045   .     S
N952   H953    1.032   .     S
N955   H956    1.043   .     S
N955   H957    1.038   .     S
N958   H959    1.039   .     S
N958   H960    1.044   .     S
C961   O998    1.310   .     A
C961   O995    1.305   .     A
C961   C970    1.473   .     S
C962   O996    1.306   .     A
C962   O997    1.307   .     A
C962   C969    1.470   .     S
C963   C988    1.419   .     A
C963   N1051   1.435   .     S
C963   C2069   1.405   1_554 S
C964   N1054   1.431   .     S
C964   C987    1.412   .     A
C964   C2070   1.413   .     S
C965   N1057   1.444   .     S
C965   C970    1.419   .     A
C966   C969    1.414   .     A
C966   N1060   1.430   .     S
C966   C728    1.384   1_655 S
C967   N1063   1.445   .     S
C967   C969    1.415   .     A
C967   C725    1.408   1_655 S
C968   N1066   1.438   .     S
C968   C970    1.418   .     A
C971   N1069   1.422   .     S
C971   N994    1.377   .     A
C972   N1072   1.428   .     S
C972   N993    1.377   .     A
C972   C253    1.411   1_565 S
C973   N1075   1.426   .     S
C973   N994    1.377   .     A
C974   N1078   1.432   .     S
C974   N993    1.376   .     A
C974   C251    1.414   1_565 S
C975   C980    1.478   .     S
C975   O999    1.297   .     A
C975   O1002   1.321   .     A
C976   C979    1.471   .     S
C976   O1000   1.308   .     A
C976   O1001   1.307   .     A
C977   C987    1.419   .     A
C977   O1003   1.388   .     S
C977   C979    1.417   .     A
C978   C980    1.414   .     A
C978   O1011   1.387   .     S
C978   C988    1.416   .     A
C979   C981    1.411   .     A
C980   C982    1.426   .     A
C981   O1019   1.388   .     S
C981   C983    1.399   .     A
C982   C984    1.420   .     A
C982   O1027   1.389   .     S
C983   C985    1.403   .     A
C983   C989    1.409   .     A
C984   C986    1.410   .     A
C984   C990    1.419   .     A
C985   C987    1.408   .     A
C985   C2066   1.411   .     S
C986   C988    1.412   .     A
C986   C2065   1.411   1_554 S
C989   O1035   1.387   .     S
C989   C2043   1.405   .     S
C990   O1043   1.385   .     S
C990   C2044   1.413   1_554 S
Cu991  N993    2.042   .     S
Cu991  Cu992   2.718   .     S
Cu991  O995    1.984   .     S
Cu991  O1001   1.960   .     S
Cu991  O999    1.964   .     S
Cu991  O997    1.992   .     S
Cu992  O996    1.984   .     S
Cu992  O998    1.992   .     S
Cu992  O1000   1.964   .     S
Cu992  O1002   1.960   .     S
Cu992  N994    2.042   .     S
O1003  C1004   1.419   .     S
C1004  H1005   1.110   .     S
C1004  H1006   1.102   .     S
C1004  C1007   1.528   .     S
C1007  H1009   1.110   .     S
C1007  H1010   1.107   .     S
C1007  H1008   1.110   .     S
O1011  C1012   1.418   .     S
C1012  H1014   1.109   .     S
C1012  H1013   1.103   .     S
C1012  C1015   1.519   .     S
C1015  H1016   1.111   .     S
C1015  H1017   1.111   .     S
C1015  H1018   1.105   .     S
O1019  C1020   1.404   .     S
C1020  C1023   1.519   .     S
C1020  H1022   1.111   .     S
C1020  H1021   1.100   .     S
C1023  H1025   1.108   .     S
C1023  H1026   1.111   .     S
C1023  H1024   1.104   .     S
O1027  C1028   1.414   .     S
C1028  H1029   1.092   .     S
C1028  H1030   1.109   .     S
C1028  C1031   1.525   .     S
C1031  H1034   1.107   .     S
C1031  H1032   1.104   .     S
C1031  H1033   1.111   .     S
O1035  C1036   1.419   .     S
C1036  C1039   1.521   .     S
C1036  H1037   1.114   .     S
C1036  H1038   1.114   .     S
C1039  H1041   1.110   .     S
C1039  H1042   1.108   .     S
H1040  C799    1.101   1_655 S
O1043  C1044   1.425   .     S
C1044  C1047   1.525   .     S
C1044  H1045   1.106   .     S
C1044  H1046   1.115   .     S
C1047  H1048   1.109   .     S
C1047  H1050   1.109   .     S
C1047  H329    1.111   1_565 S
N1051  H1052   1.046   .     S
N1051  H1053   1.045   .     S
N1054  H1056   1.043   .     S
N1054  H1055   1.046   .     S
N1057  H1058   1.045   .     S
N1057  H1059   1.043   .     S
N1060  H1062   1.044   .     S
N1060  H1061   1.043   .     S
N1063  H1065   1.045   .     S
N1063  H1064   1.046   .     S
N1066  H1067   1.045   .     S
N1066  H1068   1.044   .     S
N1069  H1071   1.038   .     S
N1069  H1070   1.043   .     S
N1072  H1074   1.045   .     S
N1072  H1073   1.032   .     S
N1075  H1076   1.043   .     S
N1075  H1077   1.038   .     S
N1078  H1079   1.039   .     S
N1078  H1080   1.044   .     S
C1081  O1118   1.310   .     A
C1081  O1115   1.305   .     A
C1081  C1090   1.473   .     S
C1082  O1116   1.306   .     A
C1082  O1117   1.307   .     A
C1082  C1089   1.470   .     S
C1083  C1108   1.419   .     A
C1083  N1171   1.435   .     S
C1084  N1174   1.431   .     S
C1084  C1107   1.412   .     A
C1084  C30     1.413   1_556 S
C1085  N1177   1.444   .     S
C1085  C1090   1.419   .     A
C1085  C1327   1.408   1_455 S
C1086  C1089   1.414   .     A
C1086  N1180   1.430   .     S
C1086  C1208   1.384   .     S
C1087  N1183   1.445   .     S
C1087  C1089   1.415   .     A
C1087  C1205   1.408   .     S
C1088  N1186   1.438   .     S
C1088  C1090   1.418   .     A
C1088  C1326   1.384   1_455 S
C1091  N1189   1.422   .     S
C1091  N1114   1.377   .     A
C1091  C1814   1.414   1_545 S
C1092  N1192   1.428   .     S
C1092  N1113   1.377   .     A
C1092  C1453   1.411   .     S
C1093  N1195   1.426   .     S
C1093  N1114   1.377   .     A
C1093  C1812   1.411   1_545 S
C1094  N1198   1.432   .     S
C1094  N1113   1.376   .     A
C1094  C1451   1.414   .     S
C1095  C1100   1.478   .     S
C1095  O1119   1.297   .     A
C1095  O1122   1.321   .     A
C1096  C1099   1.471   .     S
C1096  O1120   1.308   .     A
C1096  O1121   1.307   .     A
C1097  C1107   1.419   .     A
C1097  O1123   1.388   .     S
C1097  C1099   1.417   .     A
C1098  C1100   1.414   .     A
C1098  O1131   1.387   .     S
C1098  C1108   1.416   .     A
C1099  C1101   1.411   .     A
C1100  C1102   1.426   .     A
C1101  O1139   1.388   .     S
C1101  C1103   1.399   .     A
C1102  C1104   1.420   .     A
C1102  O1147   1.389   .     S
C1103  C1105   1.403   .     A
C1103  C1109   1.409   .     A
C1104  C1106   1.410   .     A
C1104  C1110   1.419   .     A
C1105  C1107   1.408   .     A
C1105  C26     1.411   1_556 S
C1106  C1108   1.412   .     A
C1109  O1155   1.387   .     S
C1109  C3      1.405   1_556 S
C1110  O1163   1.385   .     S
Cu1111 N1113   2.042   .     S
Cu1111 Cu1112  2.718   .     S
Cu1111 O1115   1.984   .     S
Cu1111 O1121   1.960   .     S
Cu1111 O1119   1.964   .     S
Cu1111 O1117   1.992   .     S
Cu1112 O1116   1.984   .     S
Cu1112 O1118   1.992   .     S
Cu1112 O1120   1.964   .     S
Cu1112 O1122   1.960   .     S
Cu1112 N1114   2.042   .     S
O1123  C1124   1.419   .     S
C1124  H1125   1.110   .     S
C1124  H1126   1.102   .     S
C1124  C1127   1.528   .     S
C1127  H1129   1.110   .     S
C1127  H1130   1.107   .     S
C1127  H1128   1.110   .     S
O1131  C1132   1.418   .     S
C1132  H1134   1.109   .     S
C1132  H1133   1.103   .     S
C1132  C1135   1.519   .     S
C1135  H1136   1.111   .     S
C1135  H1137   1.111   .     S
C1135  H1138   1.105   .     S
O1139  C1140   1.404   .     S
C1140  C1143   1.519   .     S
C1140  H1142   1.111   .     S
C1140  H1141   1.100   .     S
C1143  H1145   1.108   .     S
C1143  H1146   1.111   .     S
C1143  H1144   1.104   .     S
O1147  C1148   1.414   .     S
C1148  H1149   1.092   .     S
C1148  H1150   1.109   .     S
C1148  C1151   1.525   .     S
C1151  H1154   1.107   .     S
C1151  H1152   1.104   .     S
C1151  H1153   1.111   .     S
O1155  C1156   1.419   .     S
C1156  C1159   1.521   .     S
C1156  H1157   1.114   .     S
C1156  H1158   1.114   .     S
C1159  H1161   1.110   .     S
C1159  H1162   1.108   .     S
C1159  H1400   1.101   1_455 S
H1160  C1279   1.101   .     S
O1163  C1164   1.425   .     S
C1164  C1167   1.525   .     S
C1164  H1165   1.106   .     S
C1164  H1166   1.115   .     S
C1167  H1168   1.109   .     S
C1167  H1170   1.109   .     S
C1167  H1529   1.111   .     S
H1169  C1887   1.111   1_545 S
N1171  H1172   1.046   .     S
N1171  H1173   1.045   .     S
N1174  H1176   1.043   .     S
N1174  H1175   1.046   .     S
N1177  H1178   1.045   .     S
N1177  H1179   1.043   .     S
N1180  H1182   1.044   .     S
N1180  H1181   1.043   .     S
N1183  H1185   1.045   .     S
N1183  H1184   1.046   .     S
N1186  H1187   1.045   .     S
N1186  H1188   1.044   .     S
N1189  H1191   1.038   .     S
N1189  H1190   1.043   .     S
N1192  H1194   1.045   .     S
N1192  H1193   1.032   .     S
N1195  H1196   1.043   .     S
N1195  H1197   1.038   .     S
N1198  H1199   1.039   .     S
N1198  H1200   1.044   .     S
C1201  O1238   1.310   .     A
C1201  O1235   1.305   .     A
C1201  C1210   1.473   .     S
C1202  O1236   1.306   .     A
C1202  O1237   1.307   .     A
C1202  C1209   1.470   .     S
C1203  C1228   1.419   .     A
C1203  N1291   1.435   .     S
C1204  N1294   1.431   .     S
C1204  C1227   1.412   .     A
C1204  C150    1.413   1_556 S
C1205  N1297   1.444   .     S
C1205  C1210   1.419   .     A
C1206  C1209   1.414   .     A
C1206  N1300   1.430   .     S
C1206  C1328   1.384   .     S
C1207  N1303   1.445   .     S
C1207  C1209   1.415   .     A
C1207  C1325   1.408   .     S
C1208  N1306   1.438   .     S
C1208  C1210   1.418   .     A
C1211  N1309   1.422   .     S
C1211  N1234   1.377   .     A
C1211  C1934   1.414   1_545 S
C1212  N1312   1.428   .     S
C1212  N1233   1.377   .     A
C1212  C1573   1.411   .     S
C1213  N1315   1.426   .     S
C1213  N1234   1.377   .     A
C1213  C1932   1.411   1_545 S
C1214  N1318   1.432   .     S
C1214  N1233   1.376   .     A
C1214  C1571   1.414   .     S
C1215  C1220   1.478   .     S
C1215  O1239   1.297   .     A
C1215  O1242   1.321   .     A
C1216  C1219   1.471   .     S
C1216  O1240   1.308   .     A
C1216  O1241   1.307   .     A
C1217  C1227   1.419   .     A
C1217  O1243   1.388   .     S
C1217  C1219   1.417   .     A
C1218  C1220   1.414   .     A
C1218  O1251   1.387   .     S
C1218  C1228   1.416   .     A
C1219  C1221   1.411   .     A
C1220  C1222   1.426   .     A
C1221  O1259   1.388   .     S
C1221  C1223   1.399   .     A
C1222  C1224   1.420   .     A
C1222  O1267   1.389   .     S
C1223  C1225   1.403   .     A
C1223  C1229   1.409   .     A
C1224  C1226   1.410   .     A
C1224  C1230   1.419   .     A
C1225  C1227   1.408   .     A
C1225  C146    1.411   1_556 S
C1226  C1228   1.412   .     A
C1229  O1275   1.387   .     S
C1229  C123    1.405   1_556 S
C1230  O1283   1.385   .     S
Cu1231 N1233   2.042   .     S
Cu1231 Cu1232  2.718   .     S
Cu1231 O1235   1.984   .     S
Cu1231 O1241   1.960   .     S
Cu1231 O1239   1.964   .     S
Cu1231 O1237   1.992   .     S
Cu1232 O1236   1.984   .     S
Cu1232 O1238   1.992   .     S
Cu1232 O1240   1.964   .     S
Cu1232 O1242   1.960   .     S
Cu1232 N1234   2.042   .     S
O1243  C1244   1.419   .     S
C1244  H1245   1.110   .     S
C1244  H1246   1.102   .     S
C1244  C1247   1.528   .     S
C1247  H1249   1.110   .     S
C1247  H1250   1.107   .     S
C1247  H1248   1.110   .     S
O1251  C1252   1.418   .     S
C1252  H1254   1.109   .     S
C1252  H1253   1.103   .     S
C1252  C1255   1.519   .     S
C1255  H1256   1.111   .     S
C1255  H1257   1.111   .     S
C1255  H1258   1.105   .     S
O1259  C1260   1.404   .     S
C1260  C1263   1.519   .     S
C1260  H1262   1.111   .     S
C1260  H1261   1.100   .     S
C1263  H1265   1.108   .     S
C1263  H1266   1.111   .     S
C1263  H1264   1.104   .     S
O1267  C1268   1.414   .     S
C1268  H1269   1.092   .     S
C1268  H1270   1.109   .     S
C1268  C1271   1.525   .     S
C1271  H1274   1.107   .     S
C1271  H1272   1.104   .     S
C1271  H1273   1.111   .     S
O1275  C1276   1.419   .     S
C1276  C1279   1.521   .     S
C1276  H1277   1.114   .     S
C1276  H1278   1.114   .     S
C1279  H1281   1.110   .     S
C1279  H1282   1.108   .     S
H1280  C1399   1.101   .     S
O1283  C1284   1.425   .     S
C1284  C1287   1.525   .     S
C1284  H1285   1.106   .     S
C1284  H1286   1.115   .     S
C1287  H1288   1.109   .     S
C1287  H1290   1.109   .     S
C1287  H1649   1.111   .     S
H1289  C2007   1.111   1_545 S
N1291  H1292   1.046   .     S
N1291  H1293   1.045   .     S
N1294  H1296   1.043   .     S
N1294  H1295   1.046   .     S
N1297  H1298   1.045   .     S
N1297  H1299   1.043   .     S
N1300  H1302   1.044   .     S
N1300  H1301   1.043   .     S
N1303  H1305   1.045   .     S
N1303  H1304   1.046   .     S
N1306  H1307   1.045   .     S
N1306  H1308   1.044   .     S
N1309  H1311   1.038   .     S
N1309  H1310   1.043   .     S
N1312  H1314   1.045   .     S
N1312  H1313   1.032   .     S
N1315  H1316   1.043   .     S
N1315  H1317   1.038   .     S
N1318  H1319   1.039   .     S
N1318  H1320   1.044   .     S
C1321  O1358   1.310   .     A
C1321  O1355   1.305   .     A
C1321  C1330   1.473   .     S
C1322  O1356   1.306   .     A
C1322  O1357   1.307   .     A
C1322  C1329   1.470   .     S
C1323  C1348   1.419   .     A
C1323  N1411   1.435   .     S
C1324  N1414   1.431   .     S
C1324  C1347   1.412   .     A
C1324  C270    1.413   1_556 S
C1325  N1417   1.444   .     S
C1325  C1330   1.419   .     A
C1326  C1329   1.414   .     A
C1326  N1420   1.430   .     S
C1326  C1088   1.384   1_655 S
C1327  N1423   1.445   .     S
C1327  C1329   1.415   .     A
C1327  C1085   1.408   1_655 S
C1328  N1426   1.438   .     S
C1328  C1330   1.418   .     A
C1331  N1429   1.422   .     S
C1331  N1354   1.377   .     A
C1331  C2054   1.414   1_545 S
C1332  N1432   1.428   .     S
C1332  N1353   1.377   .     A
C1332  C1693   1.411   .     S
C1333  N1435   1.426   .     S
C1333  N1354   1.377   .     A
C1333  C2052   1.411   1_545 S
C1334  N1438   1.432   .     S
C1334  N1353   1.376   .     A
C1334  C1691   1.414   .     S
C1335  C1340   1.478   .     S
C1335  O1359   1.297   .     A
C1335  O1362   1.321   .     A
C1336  C1339   1.471   .     S
C1336  O1360   1.308   .     A
C1336  O1361   1.307   .     A
C1337  C1347   1.419   .     A
C1337  O1363   1.388   .     S
C1337  C1339   1.417   .     A
C1338  C1340   1.414   .     A
C1338  O1371   1.387   .     S
C1338  C1348   1.416   .     A
C1339  C1341   1.411   .     A
C1340  C1342   1.426   .     A
C1341  O1379   1.388   .     S
C1341  C1343   1.399   .     A
C1342  C1344   1.420   .     A
C1342  O1387   1.389   .     S
C1343  C1345   1.403   .     A
C1343  C1349   1.409   .     A
C1344  C1346   1.410   .     A
C1344  C1350   1.419   .     A
C1345  C1347   1.408   .     A
C1345  C266    1.411   1_556 S
C1346  C1348   1.412   .     A
C1349  O1395   1.387   .     S
C1349  C243    1.405   1_556 S
C1350  O1403   1.385   .     S
Cu1351 N1353   2.042   .     S
Cu1351 Cu1352  2.718   .     S
Cu1351 O1355   1.984   .     S
Cu1351 O1361   1.960   .     S
Cu1351 O1359   1.964   .     S
Cu1351 O1357   1.992   .     S
Cu1352 O1356   1.984   .     S
Cu1352 O1358   1.992   .     S
Cu1352 O1360   1.964   .     S
Cu1352 O1362   1.960   .     S
Cu1352 N1354   2.042   .     S
O1363  C1364   1.419   .     S
C1364  H1365   1.110   .     S
C1364  H1366   1.102   .     S
C1364  C1367   1.528   .     S
C1367  H1369   1.110   .     S
C1367  H1370   1.107   .     S
C1367  H1368   1.110   .     S
O1371  C1372   1.418   .     S
C1372  H1374   1.109   .     S
C1372  H1373   1.103   .     S
C1372  C1375   1.519   .     S
C1375  H1376   1.111   .     S
C1375  H1377   1.111   .     S
C1375  H1378   1.105   .     S
O1379  C1380   1.404   .     S
C1380  C1383   1.519   .     S
C1380  H1382   1.111   .     S
C1380  H1381   1.100   .     S
C1383  H1385   1.108   .     S
C1383  H1386   1.111   .     S
C1383  H1384   1.104   .     S
O1387  C1388   1.414   .     S
C1388  H1389   1.092   .     S
C1388  H1390   1.109   .     S
C1388  C1391   1.525   .     S
C1391  H1394   1.107   .     S
C1391  H1392   1.104   .     S
C1391  H1393   1.111   .     S
O1395  C1396   1.419   .     S
C1396  C1399   1.521   .     S
C1396  H1397   1.114   .     S
C1396  H1398   1.114   .     S
C1399  H1401   1.110   .     S
C1399  H1402   1.108   .     S
H1400  C1159   1.101   1_655 S
O1403  C1404   1.425   .     S
C1404  C1407   1.525   .     S
C1404  H1405   1.106   .     S
C1404  H1406   1.115   .     S
C1407  H1408   1.109   .     S
C1407  H1410   1.109   .     S
C1407  H1769   1.111   .     S
H1409  C2127   1.111   1_545 S
N1411  H1412   1.046   .     S
N1411  H1413   1.045   .     S
N1414  H1416   1.043   .     S
N1414  H1415   1.046   .     S
N1417  H1418   1.045   .     S
N1417  H1419   1.043   .     S
N1420  H1422   1.044   .     S
N1420  H1421   1.043   .     S
N1423  H1425   1.045   .     S
N1423  H1424   1.046   .     S
N1426  H1427   1.045   .     S
N1426  H1428   1.044   .     S
N1429  H1431   1.038   .     S
N1429  H1430   1.043   .     S
N1432  H1434   1.045   .     S
N1432  H1433   1.032   .     S
N1435  H1436   1.043   .     S
N1435  H1437   1.038   .     S
N1438  H1439   1.039   .     S
N1438  H1440   1.044   .     S
C1441  O1478   1.310   .     A
C1441  O1475   1.305   .     A
C1441  C1450   1.473   .     S
C1442  O1476   1.306   .     A
C1442  O1477   1.307   .     A
C1442  C1449   1.470   .     S
C1443  C1468   1.419   .     A
C1443  N1531   1.435   .     S
C1444  N1534   1.431   .     S
C1444  C1467   1.412   .     A
C1444  C390    1.413   1_556 S
C1445  N1537   1.444   .     S
C1445  C1450   1.419   .     A
C1445  C1687   1.408   1_455 S
C1446  C1449   1.414   .     A
C1446  N1540   1.430   .     S
C1446  C1568   1.384   .     S
C1447  N1543   1.445   .     S
C1447  C1449   1.415   .     A
C1447  C1565   1.408   .     S
C1448  N1546   1.438   .     S
C1448  C1450   1.418   .     A
C1448  C1686   1.384   1_455 S
C1451  N1549   1.422   .     S
C1451  N1474   1.377   .     A
C1452  N1552   1.428   .     S
C1452  N1473   1.377   .     A
C1452  C1813   1.411   .     S
C1453  N1555   1.426   .     S
C1453  N1474   1.377   .     A
C1454  N1558   1.432   .     S
C1454  N1473   1.376   .     A
C1454  C1811   1.414   .     S
C1455  C1460   1.478   .     S
C1455  O1479   1.297   .     A
C1455  O1482   1.321   .     A
C1456  C1459   1.471   .     S
C1456  O1480   1.308   .     A
C1456  O1481   1.307   .     A
C1457  C1467   1.419   .     A
C1457  O1483   1.388   .     S
C1457  C1459   1.417   .     A
C1458  C1460   1.414   .     A
C1458  O1491   1.387   .     S
C1458  C1468   1.416   .     A
C1459  C1461   1.411   .     A
C1460  C1462   1.426   .     A
C1461  O1499   1.388   .     S
C1461  C1463   1.399   .     A
C1462  C1464   1.420   .     A
C1462  O1507   1.389   .     S
C1463  C1465   1.403   .     A
C1463  C1469   1.409   .     A
C1464  C1466   1.410   .     A
C1464  C1470   1.419   .     A
C1465  C1467   1.408   .     A
C1465  C386    1.411   1_556 S
C1466  C1468   1.412   .     A
C1469  O1515   1.387   .     S
C1469  C363    1.405   1_556 S
C1470  O1523   1.385   .     S
Cu1471 N1473   2.042   .     S
Cu1471 Cu1472  2.718   .     S
Cu1471 O1475   1.984   .     S
Cu1471 O1481   1.960   .     S
Cu1471 O1479   1.964   .     S
Cu1471 O1477   1.992   .     S
Cu1472 O1476   1.984   .     S
Cu1472 O1478   1.992   .     S
Cu1472 O1480   1.964   .     S
Cu1472 O1482   1.960   .     S
Cu1472 N1474   2.042   .     S
O1483  C1484   1.419   .     S
C1484  H1485   1.110   .     S
C1484  H1486   1.102   .     S
C1484  C1487   1.528   .     S
C1487  H1489   1.110   .     S
C1487  H1490   1.107   .     S
C1487  H1488   1.110   .     S
O1491  C1492   1.418   .     S
C1492  H1494   1.109   .     S
C1492  H1493   1.103   .     S
C1492  C1495   1.519   .     S
C1495  H1496   1.111   .     S
C1495  H1497   1.111   .     S
C1495  H1498   1.105   .     S
O1499  C1500   1.404   .     S
C1500  C1503   1.519   .     S
C1500  H1502   1.111   .     S
C1500  H1501   1.100   .     S
C1503  H1505   1.108   .     S
C1503  H1506   1.111   .     S
C1503  H1504   1.104   .     S
O1507  C1508   1.414   .     S
C1508  H1509   1.092   .     S
C1508  H1510   1.109   .     S
C1508  C1511   1.525   .     S
C1511  H1514   1.107   .     S
C1511  H1512   1.104   .     S
C1511  H1513   1.111   .     S
O1515  C1516   1.419   .     S
C1516  C1519   1.521   .     S
C1516  H1517   1.114   .     S
C1516  H1518   1.114   .     S
C1519  H1521   1.110   .     S
C1519  H1522   1.108   .     S
C1519  H1760   1.101   1_455 S
H1520  C1639   1.101   .     S
O1523  C1524   1.425   .     S
C1524  C1527   1.525   .     S
C1524  H1525   1.106   .     S
C1524  H1526   1.115   .     S
C1527  H1528   1.109   .     S
C1527  H1530   1.109   .     S
C1527  H1889   1.111   .     S
N1531  H1532   1.046   .     S
N1531  H1533   1.045   .     S
N1534  H1536   1.043   .     S
N1534  H1535   1.046   .     S
N1537  H1538   1.045   .     S
N1537  H1539   1.043   .     S
N1540  H1542   1.044   .     S
N1540  H1541   1.043   .     S
N1543  H1545   1.045   .     S
N1543  H1544   1.046   .     S
N1546  H1547   1.045   .     S
N1546  H1548   1.044   .     S
N1549  H1551   1.038   .     S
N1549  H1550   1.043   .     S
N1552  H1554   1.045   .     S
N1552  H1553   1.032   .     S
N1555  H1556   1.043   .     S
N1555  H1557   1.038   .     S
N1558  H1559   1.039   .     S
N1558  H1560   1.044   .     S
C1561  O1598   1.310   .     A
C1561  O1595   1.305   .     A
C1561  C1570   1.473   .     S
C1562  O1596   1.306   .     A
C1562  O1597   1.307   .     A
C1562  C1569   1.470   .     S
C1563  C1588   1.419   .     A
C1563  N1651   1.435   .     S
C1564  N1654   1.431   .     S
C1564  C1587   1.412   .     A
C1564  C510    1.413   1_556 S
C1565  N1657   1.444   .     S
C1565  C1570   1.419   .     A
C1566  C1569   1.414   .     A
C1566  N1660   1.430   .     S
C1566  C1688   1.384   .     S
C1567  N1663   1.445   .     S
C1567  C1569   1.415   .     A
C1567  C1685   1.408   .     S
C1568  N1666   1.438   .     S
C1568  C1570   1.418   .     A
C1571  N1669   1.422   .     S
C1571  N1594   1.377   .     A
C1572  N1672   1.428   .     S
C1572  N1593   1.377   .     A
C1572  C1933   1.411   .     S
C1573  N1675   1.426   .     S
C1573  N1594   1.377   .     A
C1574  N1678   1.432   .     S
C1574  N1593   1.376   .     A
C1574  C1931   1.414   .     S
C1575  C1580   1.478   .     S
C1575  O1599   1.297   .     A
C1575  O1602   1.321   .     A
C1576  C1579   1.471   .     S
C1576  O1600   1.308   .     A
C1576  O1601   1.307   .     A
C1577  C1587   1.419   .     A
C1577  O1603   1.388   .     S
C1577  C1579   1.417   .     A
C1578  C1580   1.414   .     A
C1578  O1611   1.387   .     S
C1578  C1588   1.416   .     A
C1579  C1581   1.411   .     A
C1580  C1582   1.426   .     A
C1581  O1619   1.388   .     S
C1581  C1583   1.399   .     A
C1582  C1584   1.420   .     A
C1582  O1627   1.389   .     S
C1583  C1585   1.403   .     A
C1583  C1589   1.409   .     A
C1584  C1586   1.410   .     A
C1584  C1590   1.419   .     A
C1585  C1587   1.408   .     A
C1585  C506    1.411   1_556 S
C1586  C1588   1.412   .     A
C1589  O1635   1.387   .     S
C1589  C483    1.405   1_556 S
C1590  O1643   1.385   .     S
Cu1591 N1593   2.042   .     S
Cu1591 Cu1592  2.718   .     S
Cu1591 O1595   1.984   .     S
Cu1591 O1601   1.960   .     S
Cu1591 O1599   1.964   .     S
Cu1591 O1597   1.992   .     S
Cu1592 O1596   1.984   .     S
Cu1592 O1598   1.992   .     S
Cu1592 O1600   1.964   .     S
Cu1592 O1602   1.960   .     S
Cu1592 N1594   2.042   .     S
O1603  C1604   1.419   .     S
C1604  H1605   1.110   .     S
C1604  H1606   1.102   .     S
C1604  C1607   1.528   .     S
C1607  H1609   1.110   .     S
C1607  H1610   1.107   .     S
C1607  H1608   1.110   .     S
O1611  C1612   1.418   .     S
C1612  H1614   1.109   .     S
C1612  H1613   1.103   .     S
C1612  C1615   1.519   .     S
C1615  H1616   1.111   .     S
C1615  H1617   1.111   .     S
C1615  H1618   1.105   .     S
O1619  C1620   1.404   .     S
C1620  C1623   1.519   .     S
C1620  H1622   1.111   .     S
C1620  H1621   1.100   .     S
C1623  H1625   1.108   .     S
C1623  H1626   1.111   .     S
C1623  H1624   1.104   .     S
O1627  C1628   1.414   .     S
C1628  H1629   1.092   .     S
C1628  H1630   1.109   .     S
C1628  C1631   1.525   .     S
C1631  H1634   1.107   .     S
C1631  H1632   1.104   .     S
C1631  H1633   1.111   .     S
O1635  C1636   1.419   .     S
C1636  C1639   1.521   .     S
C1636  H1637   1.114   .     S
C1636  H1638   1.114   .     S
C1639  H1641   1.110   .     S
C1639  H1642   1.108   .     S
H1640  C1759   1.101   .     S
O1643  C1644   1.425   .     S
C1644  C1647   1.525   .     S
C1644  H1645   1.106   .     S
C1644  H1646   1.115   .     S
C1647  H1648   1.109   .     S
C1647  H1650   1.109   .     S
C1647  H2009   1.111   .     S
N1651  H1652   1.046   .     S
N1651  H1653   1.045   .     S
N1654  H1656   1.043   .     S
N1654  H1655   1.046   .     S
N1657  H1658   1.045   .     S
N1657  H1659   1.043   .     S
N1660  H1662   1.044   .     S
N1660  H1661   1.043   .     S
N1663  H1665   1.045   .     S
N1663  H1664   1.046   .     S
N1666  H1667   1.045   .     S
N1666  H1668   1.044   .     S
N1669  H1671   1.038   .     S
N1669  H1670   1.043   .     S
N1672  H1674   1.045   .     S
N1672  H1673   1.032   .     S
N1675  H1676   1.043   .     S
N1675  H1677   1.038   .     S
N1678  H1679   1.039   .     S
N1678  H1680   1.044   .     S
C1681  O1718   1.310   .     A
C1681  O1715   1.305   .     A
C1681  C1690   1.473   .     S
C1682  O1716   1.306   .     A
C1682  O1717   1.307   .     A
C1682  C1689   1.470   .     S
C1683  C1708   1.419   .     A
C1683  N1771   1.435   .     S
C1684  N1774   1.431   .     S
C1684  C1707   1.412   .     A
C1684  C630    1.413   1_556 S
C1685  N1777   1.444   .     S
C1685  C1690   1.419   .     A
C1686  C1689   1.414   .     A
C1686  N1780   1.430   .     S
C1686  C1448   1.384   1_655 S
C1687  N1783   1.445   .     S
C1687  C1689   1.415   .     A
C1687  C1445   1.408   1_655 S
C1688  N1786   1.438   .     S
C1688  C1690   1.418   .     A
C1691  N1789   1.422   .     S
C1691  N1714   1.377   .     A
C1692  N1792   1.428   .     S
C1692  N1713   1.377   .     A
C1692  C2053   1.411   .     S
C1693  N1795   1.426   .     S
C1693  N1714   1.377   .     A
C1694  N1798   1.432   .     S
C1694  N1713   1.376   .     A
C1694  C2051   1.414   .     S
C1695  C1700   1.478   .     S
C1695  O1719   1.297   .     A
C1695  O1722   1.321   .     A
C1696  C1699   1.471   .     S
C1696  O1720   1.308   .     A
C1696  O1721   1.307   .     A
C1697  C1707   1.419   .     A
C1697  O1723   1.388   .     S
C1697  C1699   1.417   .     A
C1698  C1700   1.414   .     A
C1698  O1731   1.387   .     S
C1698  C1708   1.416   .     A
C1699  C1701   1.411   .     A
C1700  C1702   1.426   .     A
C1701  O1739   1.388   .     S
C1701  C1703   1.399   .     A
C1702  C1704   1.420   .     A
C1702  O1747   1.389   .     S
C1703  C1705   1.403   .     A
C1703  C1709   1.409   .     A
C1704  C1706   1.410   .     A
C1704  C1710   1.419   .     A
C1705  C1707   1.408   .     A
C1705  C626    1.411   1_556 S
C1706  C1708   1.412   .     A
C1709  O1755   1.387   .     S
C1709  C603    1.405   1_556 S
C1710  O1763   1.385   .     S
Cu1711 N1713   2.042   .     S
Cu1711 Cu1712  2.718   .     S
Cu1711 O1715   1.984   .     S
Cu1711 O1721   1.960   .     S
Cu1711 O1719   1.964   .     S
Cu1711 O1717   1.992   .     S
Cu1712 O1716   1.984   .     S
Cu1712 O1718   1.992   .     S
Cu1712 O1720   1.964   .     S
Cu1712 O1722   1.960   .     S
Cu1712 N1714   2.042   .     S
O1723  C1724   1.419   .     S
C1724  H1725   1.110   .     S
C1724  H1726   1.102   .     S
C1724  C1727   1.528   .     S
C1727  H1729   1.110   .     S
C1727  H1730   1.107   .     S
C1727  H1728   1.110   .     S
O1731  C1732   1.418   .     S
C1732  H1734   1.109   .     S
C1732  H1733   1.103   .     S
C1732  C1735   1.519   .     S
C1735  H1736   1.111   .     S
C1735  H1737   1.111   .     S
C1735  H1738   1.105   .     S
O1739  C1740   1.404   .     S
C1740  C1743   1.519   .     S
C1740  H1742   1.111   .     S
C1740  H1741   1.100   .     S
C1743  H1745   1.108   .     S
C1743  H1746   1.111   .     S
C1743  H1744   1.104   .     S
O1747  C1748   1.414   .     S
C1748  H1749   1.092   .     S
C1748  H1750   1.109   .     S
C1748  C1751   1.525   .     S
C1751  H1754   1.107   .     S
C1751  H1752   1.104   .     S
C1751  H1753   1.111   .     S
O1755  C1756   1.419   .     S
C1756  C1759   1.521   .     S
C1756  H1757   1.114   .     S
C1756  H1758   1.114   .     S
C1759  H1761   1.110   .     S
C1759  H1762   1.108   .     S
H1760  C1519   1.101   1_655 S
O1763  C1764   1.425   .     S
C1764  C1767   1.525   .     S
C1764  H1765   1.106   .     S
C1764  H1766   1.115   .     S
C1767  H1768   1.109   .     S
C1767  H1770   1.109   .     S
C1767  H2129   1.111   .     S
N1771  H1772   1.046   .     S
N1771  H1773   1.045   .     S
N1774  H1776   1.043   .     S
N1774  H1775   1.046   .     S
N1777  H1778   1.045   .     S
N1777  H1779   1.043   .     S
N1780  H1782   1.044   .     S
N1780  H1781   1.043   .     S
N1783  H1785   1.045   .     S
N1783  H1784   1.046   .     S
N1786  H1787   1.045   .     S
N1786  H1788   1.044   .     S
N1789  H1791   1.038   .     S
N1789  H1790   1.043   .     S
N1792  H1794   1.045   .     S
N1792  H1793   1.032   .     S
N1795  H1796   1.043   .     S
N1795  H1797   1.038   .     S
N1798  H1799   1.039   .     S
N1798  H1800   1.044   .     S
C1801  O1838   1.310   .     A
C1801  O1835   1.305   .     A
C1801  C1810   1.473   .     S
C1802  O1836   1.306   .     A
C1802  O1837   1.307   .     A
C1802  C1809   1.470   .     S
C1803  C1828   1.419   .     A
C1803  N1891   1.435   .     S
C1804  N1894   1.431   .     S
C1804  C1827   1.412   .     A
C1804  C750    1.413   1_556 S
C1805  N1897   1.444   .     S
C1805  C1810   1.419   .     A
C1805  C2047   1.408   1_455 S
C1806  C1809   1.414   .     A
C1806  N1900   1.430   .     S
C1806  C1928   1.384   .     S
C1807  N1903   1.445   .     S
C1807  C1809   1.415   .     A
C1807  C1925   1.408   .     S
C1808  N1906   1.438   .     S
C1808  C1810   1.418   .     A
C1808  C2046   1.384   1_455 S
C1811  N1909   1.422   .     S
C1811  N1834   1.377   .     A
C1812  N1912   1.428   .     S
C1812  N1833   1.377   .     A
C1812  C1093   1.411   1_565 S
C1813  N1915   1.426   .     S
C1813  N1834   1.377   .     A
C1814  N1918   1.432   .     S
C1814  N1833   1.376   .     A
C1814  C1091   1.414   1_565 S
C1815  C1820   1.478   .     S
C1815  O1839   1.297   .     A
C1815  O1842   1.321   .     A
C1816  C1819   1.471   .     S
C1816  O1840   1.308   .     A
C1816  O1841   1.307   .     A
C1817  C1827   1.419   .     A
C1817  O1843   1.388   .     S
C1817  C1819   1.417   .     A
C1818  C1820   1.414   .     A
C1818  O1851   1.387   .     S
C1818  C1828   1.416   .     A
C1819  C1821   1.411   .     A
C1820  C1822   1.426   .     A
C1821  O1859   1.388   .     S
C1821  C1823   1.399   .     A
C1822  C1824   1.420   .     A
C1822  O1867   1.389   .     S
C1823  C1825   1.403   .     A
C1823  C1829   1.409   .     A
C1824  C1826   1.410   .     A
C1824  C1830   1.419   .     A
C1825  C1827   1.408   .     A
C1825  C746    1.411   1_556 S
C1826  C1828   1.412   .     A
C1829  O1875   1.387   .     S
C1829  C723    1.405   1_556 S
C1830  O1883   1.385   .     S
Cu1831 N1833   2.042   .     S
Cu1831 Cu1832  2.718   .     S
Cu1831 O1835   1.984   .     S
Cu1831 O1841   1.960   .     S
Cu1831 O1839   1.964   .     S
Cu1831 O1837   1.992   .     S
Cu1832 O1836   1.984   .     S
Cu1832 O1838   1.992   .     S
Cu1832 O1840   1.964   .     S
Cu1832 O1842   1.960   .     S
Cu1832 N1834   2.042   .     S
O1843  C1844   1.419   .     S
C1844  H1845   1.110   .     S
C1844  H1846   1.102   .     S
C1844  C1847   1.528   .     S
C1847  H1849   1.110   .     S
C1847  H1850   1.107   .     S
C1847  H1848   1.110   .     S
O1851  C1852   1.418   .     S
C1852  H1854   1.109   .     S
C1852  H1853   1.103   .     S
C1852  C1855   1.519   .     S
C1855  H1856   1.111   .     S
C1855  H1857   1.111   .     S
C1855  H1858   1.105   .     S
O1859  C1860   1.404   .     S
C1860  C1863   1.519   .     S
C1860  H1862   1.111   .     S
C1860  H1861   1.100   .     S
C1863  H1865   1.108   .     S
C1863  H1866   1.111   .     S
C1863  H1864   1.104   .     S
O1867  C1868   1.414   .     S
C1868  H1869   1.092   .     S
C1868  H1870   1.109   .     S
C1868  C1871   1.525   .     S
C1871  H1874   1.107   .     S
C1871  H1872   1.104   .     S
C1871  H1873   1.111   .     S
O1875  C1876   1.419   .     S
C1876  C1879   1.521   .     S
C1876  H1877   1.114   .     S
C1876  H1878   1.114   .     S
C1879  H1881   1.110   .     S
C1879  H1882   1.108   .     S
C1879  H2120   1.101   1_455 S
H1880  C1999   1.101   .     S
O1883  C1884   1.425   .     S
C1884  C1887   1.525   .     S
C1884  H1885   1.106   .     S
C1884  H1886   1.115   .     S
C1887  H1888   1.109   .     S
C1887  H1890   1.109   .     S
C1887  H1169   1.111   1_565 S
N1891  H1892   1.046   .     S
N1891  H1893   1.045   .     S
N1894  H1896   1.043   .     S
N1894  H1895   1.046   .     S
N1897  H1898   1.045   .     S
N1897  H1899   1.043   .     S
N1900  H1902   1.044   .     S
N1900  H1901   1.043   .     S
N1903  H1905   1.045   .     S
N1903  H1904   1.046   .     S
N1906  H1907   1.045   .     S
N1906  H1908   1.044   .     S
N1909  H1911   1.038   .     S
N1909  H1910   1.043   .     S
N1912  H1914   1.045   .     S
N1912  H1913   1.032   .     S
N1915  H1916   1.043   .     S
N1915  H1917   1.038   .     S
N1918  H1919   1.039   .     S
N1918  H1920   1.044   .     S
C1921  O1958   1.310   .     A
C1921  O1955   1.305   .     A
C1921  C1930   1.473   .     S
C1922  O1956   1.306   .     A
C1922  O1957   1.307   .     A
C1922  C1929   1.470   .     S
C1923  C1948   1.419   .     A
C1923  N2011   1.435   .     S
C1924  N2014   1.431   .     S
C1924  C1947   1.412   .     A
C1924  C870    1.413   1_556 S
C1925  N2017   1.444   .     S
C1925  C1930   1.419   .     A
C1926  C1929   1.414   .     A
C1926  N2020   1.430   .     S
C1926  C2048   1.384   .     S
C1927  N2023   1.445   .     S
C1927  C1929   1.415   .     A
C1927  C2045   1.408   .     S
C1928  N2026   1.438   .     S
C1928  C1930   1.418   .     A
C1931  N2029   1.422   .     S
C1931  N1954   1.377   .     A
C1932  N2032   1.428   .     S
C1932  N1953   1.377   .     A
C1932  C1213   1.411   1_565 S
C1933  N2035   1.426   .     S
C1933  N1954   1.377   .     A
C1934  N2038   1.432   .     S
C1934  N1953   1.376   .     A
C1934  C1211   1.414   1_565 S
C1935  C1940   1.478   .     S
C1935  O1959   1.297   .     A
C1935  O1962   1.321   .     A
C1936  C1939   1.471   .     S
C1936  O1960   1.308   .     A
C1936  O1961   1.307   .     A
C1937  C1947   1.419   .     A
C1937  O1963   1.388   .     S
C1937  C1939   1.417   .     A
C1938  C1940   1.414   .     A
C1938  O1971   1.387   .     S
C1938  C1948   1.416   .     A
C1939  C1941   1.411   .     A
C1940  C1942   1.426   .     A
C1941  O1979   1.388   .     S
C1941  C1943   1.399   .     A
C1942  C1944   1.420   .     A
C1942  O1987   1.389   .     S
C1943  C1945   1.403   .     A
C1943  C1949   1.409   .     A
C1944  C1946   1.410   .     A
C1944  C1950   1.419   .     A
C1945  C1947   1.408   .     A
C1945  C866    1.411   1_556 S
C1946  C1948   1.412   .     A
C1949  O1995   1.387   .     S
C1949  C843    1.405   1_556 S
C1950  O2003   1.385   .     S
Cu1951 N1953   2.042   .     S
Cu1951 Cu1952  2.718   .     S
Cu1951 O1955   1.984   .     S
Cu1951 O1961   1.960   .     S
Cu1951 O1959   1.964   .     S
Cu1951 O1957   1.992   .     S
Cu1952 O1956   1.984   .     S
Cu1952 O1958   1.992   .     S
Cu1952 O1960   1.964   .     S
Cu1952 O1962   1.960   .     S
Cu1952 N1954   2.042   .     S
O1963  C1964   1.419   .     S
C1964  H1965   1.110   .     S
C1964  H1966   1.102   .     S
C1964  C1967   1.528   .     S
C1967  H1969   1.110   .     S
C1967  H1970   1.107   .     S
C1967  H1968   1.110   .     S
O1971  C1972   1.418   .     S
C1972  H1974   1.109   .     S
C1972  H1973   1.103   .     S
C1972  C1975   1.519   .     S
C1975  H1976   1.111   .     S
C1975  H1977   1.111   .     S
C1975  H1978   1.105   .     S
O1979  C1980   1.404   .     S
C1980  C1983   1.519   .     S
C1980  H1982   1.111   .     S
C1980  H1981   1.100   .     S
C1983  H1985   1.108   .     S
C1983  H1986   1.111   .     S
C1983  H1984   1.104   .     S
O1987  C1988   1.414   .     S
C1988  H1989   1.092   .     S
C1988  H1990   1.109   .     S
C1988  C1991   1.525   .     S
C1991  H1994   1.107   .     S
C1991  H1992   1.104   .     S
C1991  H1993   1.111   .     S
O1995  C1996   1.419   .     S
C1996  C1999   1.521   .     S
C1996  H1997   1.114   .     S
C1996  H1998   1.114   .     S
C1999  H2001   1.110   .     S
C1999  H2002   1.108   .     S
H2000  C2119   1.101   .     S
O2003  C2004   1.425   .     S
C2004  C2007   1.525   .     S
C2004  H2005   1.106   .     S
C2004  H2006   1.115   .     S
C2007  H2008   1.109   .     S
C2007  H2010   1.109   .     S
C2007  H1289   1.111   1_565 S
N2011  H2012   1.046   .     S
N2011  H2013   1.045   .     S
N2014  H2016   1.043   .     S
N2014  H2015   1.046   .     S
N2017  H2018   1.045   .     S
N2017  H2019   1.043   .     S
N2020  H2022   1.044   .     S
N2020  H2021   1.043   .     S
N2023  H2025   1.045   .     S
N2023  H2024   1.046   .     S
N2026  H2027   1.045   .     S
N2026  H2028   1.044   .     S
N2029  H2031   1.038   .     S
N2029  H2030   1.043   .     S
N2032  H2034   1.045   .     S
N2032  H2033   1.032   .     S
N2035  H2036   1.043   .     S
N2035  H2037   1.038   .     S
N2038  H2039   1.039   .     S
N2038  H2040   1.044   .     S
C2041  O2078   1.310   .     A
C2041  O2075   1.305   .     A
C2041  C2050   1.473   .     S
C2042  O2076   1.306   .     A
C2042  O2077   1.307   .     A
C2042  C2049   1.470   .     S
C2043  C2068   1.419   .     A
C2043  N2131   1.435   .     S
C2044  N2134   1.431   .     S
C2044  C2067   1.412   .     A
C2044  C990    1.413   1_556 S
C2045  N2137   1.444   .     S
C2045  C2050   1.419   .     A
C2046  C2049   1.414   .     A
C2046  N2140   1.430   .     S
C2046  C1808   1.384   1_655 S
C2047  N2143   1.445   .     S
C2047  C2049   1.415   .     A
C2047  C1805   1.408   1_655 S
C2048  N2146   1.438   .     S
C2048  C2050   1.418   .     A
C2051  N2149   1.422   .     S
C2051  N2074   1.377   .     A
C2052  N2152   1.428   .     S
C2052  N2073   1.377   .     A
C2052  C1333   1.411   1_565 S
C2053  N2155   1.426   .     S
C2053  N2074   1.377   .     A
C2054  N2158   1.432   .     S
C2054  N2073   1.376   .     A
C2054  C1331   1.414   1_565 S
C2055  C2060   1.478   .     S
C2055  O2079   1.297   .     A
C2055  O2082   1.321   .     A
C2056  C2059   1.471   .     S
C2056  O2080   1.308   .     A
C2056  O2081   1.307   .     A
C2057  C2067   1.419   .     A
C2057  O2083   1.388   .     S
C2057  C2059   1.417   .     A
C2058  C2060   1.414   .     A
C2058  O2091   1.387   .     S
C2058  C2068   1.416   .     A
C2059  C2061   1.411   .     A
C2060  C2062   1.426   .     A
C2061  O2099   1.388   .     S
C2061  C2063   1.399   .     A
C2062  C2064   1.420   .     A
C2062  O2107   1.389   .     S
C2063  C2065   1.403   .     A
C2063  C2069   1.409   .     A
C2064  C2066   1.410   .     A
C2064  C2070   1.419   .     A
C2065  C2067   1.408   .     A
C2065  C986    1.411   1_556 S
C2066  C2068   1.412   .     A
C2069  O2115   1.387   .     S
C2069  C963    1.405   1_556 S
C2070  O2123   1.385   .     S
Cu2071 N2073   2.042   .     S
Cu2071 Cu2072  2.718   .     S
Cu2071 O2075   1.984   .     S
Cu2071 O2081   1.960   .     S
Cu2071 O2079   1.964   .     S
Cu2071 O2077   1.992   .     S
Cu2072 O2076   1.984   .     S
Cu2072 O2078   1.992   .     S
Cu2072 O2080   1.964   .     S
Cu2072 O2082   1.960   .     S
Cu2072 N2074   2.042   .     S
O2083  C2084   1.419   .     S
C2084  H2085   1.110   .     S
C2084  H2086   1.102   .     S
C2084  C2087   1.528   .     S
C2087  H2089   1.110   .     S
C2087  H2090   1.107   .     S
C2087  H2088   1.110   .     S
O2091  C2092   1.418   .     S
C2092  H2094   1.109   .     S
C2092  H2093   1.103   .     S
C2092  C2095   1.519   .     S
C2095  H2096   1.111   .     S
C2095  H2097   1.111   .     S
C2095  H2098   1.105   .     S
O2099  C2100   1.404   .     S
C2100  C2103   1.519   .     S
C2100  H2102   1.111   .     S
C2100  H2101   1.100   .     S
C2103  H2105   1.108   .     S
C2103  H2106   1.111   .     S
C2103  H2104   1.104   .     S
O2107  C2108   1.414   .     S
C2108  H2109   1.092   .     S
C2108  H2110   1.109   .     S
C2108  C2111   1.525   .     S
C2111  H2114   1.107   .     S
C2111  H2112   1.104   .     S
C2111  H2113   1.111   .     S
O2115  C2116   1.419   .     S
C2116  C2119   1.521   .     S
C2116  H2117   1.114   .     S
C2116  H2118   1.114   .     S
C2119  H2121   1.110   .     S
C2119  H2122   1.108   .     S
H2120  C1879   1.101   1_655 S
O2123  C2124   1.425   .     S
C2124  C2127   1.525   .     S
C2124  H2125   1.106   .     S
C2124  H2126   1.115   .     S
C2127  H2128   1.109   .     S
C2127  H2130   1.109   .     S
C2127  H1409   1.111   1_565 S
N2131  H2132   1.046   .     S
N2131  H2133   1.045   .     S
N2134  H2136   1.043   .     S
N2134  H2135   1.046   .     S
N2137  H2138   1.045   .     S
N2137  H2139   1.043   .     S
N2140  H2142   1.044   .     S
N2140  H2141   1.043   .     S
N2143  H2145   1.045   .     S
N2143  H2144   1.046   .     S
N2146  H2147   1.045   .     S
N2146  H2148   1.044   .     S
N2149  H2151   1.038   .     S
N2149  H2150   1.043   .     S
N2152  H2154   1.045   .     S
N2152  H2153   1.032   .     S
N2155  H2156   1.043   .     S
N2155  H2157   1.038   .     S
N2158  H2159   1.039   .     S
N2158  H2160   1.044   .     S
