data_str_m3_o1_o2_pcu_sym.50
_audit_creation_date              2020-01-03
_audit_creation_method            'Materials Studio'
_symmetry_space_group_name_H-M    'P1'
_symmetry_Int_Tables_number       1
_symmetry_cell_setting            triclinic
loop_
_symmetry_equiv_pos_as_xyz
  x,y,z
_cell_length_a                    32.1444
_cell_length_b                    29.8681
_cell_length_c                    30.0860
_cell_angle_alpha                 88.2659
_cell_angle_beta                  95.7499
_cell_angle_gamma                 87.2310
loop_
_atom_site_label
_atom_site_type_symbol
_atom_site_fract_x
_atom_site_fract_y
_atom_site_fract_z
_atom_site_U_iso_or_equiv
_atom_site_adp_type
_atom_site_occupancy
O1     O     0.10559   0.20487   0.25000   0.00000  Uiso   1.00
O2     O     0.22774   0.12846   0.25001   0.00000  Uiso   1.00
O3     O     0.22774   0.20487   0.25001   0.00000  Uiso   1.00
O4     O     0.10559   0.12846   0.25000   0.00000  Uiso   1.00
N5     N     0.16667   0.28573   0.25000   0.00000  Uiso   1.00
N6     N     0.16667   0.04760   0.25000   0.00000  Uiso   1.00
C7     C     0.08735   0.16752   0.25509   0.00000  Uiso   1.00
C8     C     0.24671   0.16549   0.24765   0.00000  Uiso   1.00
O9     O     0.16666   0.20489   0.18453   0.00000  Uiso   1.00
O10    O     0.16667   0.12845   0.31547   0.00000  Uiso   1.00
O11    O     0.16667   0.20489   0.31547   0.00000  Uiso   1.00
O12    O     0.16666   0.12845   0.18453   0.00000  Uiso   1.00
C13    C     0.16940   0.16718   0.16419   0.00000  Uiso   1.00
C14    C     0.16550   0.16629   0.33603   0.00000  Uiso   1.00
Zn15   Zn    0.16667   0.21771   0.25000   0.00000  Uiso   1.00
Zn16   Zn    0.16667   0.11563   0.25000   0.00000  Uiso   1.00
C17    C     0.19346   0.02093   0.28015   0.00000  Uiso   1.00
C18    C     0.13693   0.31200   0.22344   0.00000  Uiso   1.00
C19    C     0.13946   0.02621   0.22060   0.00000  Uiso   1.00
C20    C     0.19608   0.30675   0.27661   0.00000  Uiso   1.00
C21    C     0.02586   0.12817   0.27334   0.00000  Uiso   1.00
C22    C     0.31026   0.20306   0.23599   0.00000  Uiso   1.00
C23    C     0.31639   0.12446   0.26312   0.00000  Uiso   1.00
C24    C     0.01837   0.20818   0.25215   0.00000  Uiso   1.00
C25    C     0.19363   0.20823   0.04996   0.00000  Uiso   1.00
C26    C     0.20034   0.13732   0.45515   0.00000  Uiso   1.00
C27    C     0.15450   0.20544   0.45181   0.00000  Uiso   1.00
C28    C     0.17062   0.13158   0.04647   0.00000  Uiso   1.00
C29    C     0.18801   0.20824   0.09562   0.00000  Uiso   1.00
C30    C     0.18745   0.13115   0.41057   0.00000  Uiso   1.00
C31    C     0.14983   0.20417   0.40500   0.00000  Uiso   1.00
C32    C     0.17330   0.12890   0.09260   0.00000  Uiso   1.00
C33    C     0.17675   0.16831   0.11690   0.00000  Uiso   1.00
C34    C     0.16638   0.16643   0.38451   0.00000  Uiso   1.00
C35    C     0.18226   0.17087   0.02510   0.00000  Uiso   1.00
C36    C     0.18114   0.17282   0.47663   0.00000  Uiso   1.00
C37    C     0.29169   0.16298   0.24622   0.00000  Uiso   1.00
C38    C     0.04369   0.16898   0.26360   0.00000  Uiso   1.00
N39    N     0.21733   0.03929   0.31791   0.00000  Uiso   1.00
O40    O     0.23113   0.07909   0.31634   0.00000  Uiso   1.00
O41    O     0.22724   0.01508   0.35449   0.00000  Uiso   1.00
N42    N     0.10146   0.29261   0.19962   0.00000  Uiso   1.00
O43    O     0.10623   0.25912   0.17398   0.00000  Uiso   1.00
O44    O     0.06510   0.31415   0.19613   0.00000  Uiso   1.00
N45    N     0.11426   0.05093   0.18508   0.00000  Uiso   1.00
O46    O     0.08072   0.07358   0.19371   0.00000  Uiso   1.00
O47    O     0.11555   0.03749   0.14452   0.00000  Uiso   1.00
N48    N     0.23092   0.28124   0.30014   0.00000  Uiso   1.00
O49    O     0.22536   0.25608   0.33475   0.00000  Uiso   1.00
O50    O     0.26866   0.29322   0.29554   0.00000  Uiso   1.00
O51    O     0.20686   0.24616   0.02911   0.00000  Uiso   1.00
C52    C     0.25074   0.24239   0.02935   0.00000  Uiso   1.00
H53    H     0.25980   0.21869   0.00385   0.00000  Uiso   1.00
H54    H     0.26684   0.23227   0.06296   0.00000  Uiso   1.00
H55    H     0.26178   0.27569   0.02009   0.00000  Uiso   1.00
O56    O     0.22587   0.10394   0.47842   0.00000  Uiso   1.00
C57    C     0.26541   0.12068   0.49108   0.00000  Uiso   1.00
H58    H     0.26439   0.14089   0.02134   0.00000  Uiso   1.00
H59    H     0.27752   0.14037   0.46347   0.00000  Uiso   1.00
H60    H     0.28803   0.09180  -0.00000   0.00000  Uiso   1.00
O61    O     0.13398   0.23916   0.47304   0.00000  Uiso   1.00
C62    C     0.09361   0.22583   0.48005   0.00000  Uiso   1.00
H63    H     0.09532   0.19871   0.00634   0.00000  Uiso   1.00
H64    H     0.07592   0.21524   0.44870   0.00000  Uiso   1.00
H65    H     0.07574   0.25491   0.49217   0.00000  Uiso   1.00
O66    O     0.16000   0.09398   0.02292   0.00000  Uiso   1.00
C67    C     0.11623   0.09544   0.01247   0.00000  Uiso   1.00
H68    H     0.10608   0.12232   0.48680   0.00000  Uiso   1.00
H69    H     0.09924   0.09976   0.04269   0.00000  Uiso   1.00
H70    H     0.10748   0.06309   0.49797   0.00000  Uiso   1.00
O71    O     0.19861   0.24492   0.12077   0.00000  Uiso   1.00
C72    C     0.17156   0.28252   0.10700   0.00000  Uiso   1.00
H73    H     0.13921   0.27364   0.09469   0.00000  Uiso   1.00
H74    H     0.18505   0.30314   0.08126   0.00000  Uiso   1.00
H75    H     0.16913   0.30372   0.13624   0.00000  Uiso   1.00
O76    O     0.19354   0.08959   0.39313   0.00000  Uiso   1.00
C77    C     0.16136   0.06236   0.40531   0.00000  Uiso   1.00
H78    H     0.13067   0.08106   0.40700   0.00000  Uiso   1.00
H79    H     0.17125   0.04448   0.43784   0.00000  Uiso   1.00
H80    H     0.15567   0.03708   0.37959   0.00000  Uiso   1.00
O81    O     0.12393   0.23564   0.37926   0.00000  Uiso   1.00
C82    C     0.13881   0.27912   0.38424   0.00000  Uiso   1.00
H83    H     0.17314   0.27959   0.39423   0.00000  Uiso   1.00
H84    H     0.12142   0.29737   0.40875   0.00000  Uiso   1.00
H85    H     0.13238   0.29773   0.35160   0.00000  Uiso   1.00
O86    O     0.17110   0.08744   0.11337   0.00000  Uiso   1.00
C87    C     0.21209   0.06776   0.12139   0.00000  Uiso   1.00
H88    H     0.23361   0.08991   0.14073   0.00000  Uiso   1.00
H89    H     0.22469   0.05893   0.08948   0.00000  Uiso   1.00
H90    H     0.21111   0.03638   0.14180   0.00000  Uiso   1.00
N91    N     0.05126   0.09112   0.29492   0.00000  Uiso   1.00
O92    O     0.07565   0.09745   0.33112   0.00000  Uiso   1.00
O93    O     0.05263   0.05212   0.27681   0.00000  Uiso   1.00
N94    N     0.29043   0.23288   0.20089   0.00000  Uiso   1.00
O95    O     0.28973   0.22070   0.15970   0.00000  Uiso   1.00
O96    O     0.26910   0.26909   0.20961   0.00000  Uiso   1.00
N97    N     0.29927   0.08107   0.26656   0.00000  Uiso   1.00
O98    O     0.28213   0.06324   0.23071   0.00000  Uiso   1.00
O99    O     0.30848   0.05580   0.30256   0.00000  Uiso   1.00
N100   N     0.03265   0.25204   0.26306   0.00000  Uiso   1.00
O101   O     0.06095   0.25581   0.29666   0.00000  Uiso   1.00
O102   O     0.01008   0.28793   0.24908   0.00000  Uiso   1.00
O103   O     0.43892   0.20487   0.25000   0.00000  Uiso   1.00
O104   O     0.56108   0.12846   0.25001   0.00000  Uiso   1.00
O105   O     0.56108   0.20487   0.25001   0.00000  Uiso   1.00
O106   O     0.43892   0.12846   0.25000   0.00000  Uiso   1.00
N107   N     0.50000   0.28573   0.25000   0.00000  Uiso   1.00
N108   N     0.50000   0.04760   0.25000   0.00000  Uiso   1.00
C109   C     0.42068   0.16752   0.25509   0.00000  Uiso   1.00
C110   C     0.58005   0.16549   0.24765   0.00000  Uiso   1.00
O111   O     0.50000   0.20489   0.18453   0.00000  Uiso   1.00
O112   O     0.50000   0.12845   0.31547   0.00000  Uiso   1.00
O113   O     0.50000   0.20489   0.31547   0.00000  Uiso   1.00
O114   O     0.50000   0.12845   0.18453   0.00000  Uiso   1.00
C115   C     0.50274   0.16718   0.16419   0.00000  Uiso   1.00
C116   C     0.49884   0.16629   0.33603   0.00000  Uiso   1.00
Zn117  Zn    0.50000   0.21771   0.25000   0.00000  Uiso   1.00
Zn118  Zn    0.50000   0.11563   0.25000   0.00000  Uiso   1.00
C119   C     0.52679   0.02093   0.28015   0.00000  Uiso   1.00
C120   C     0.47027   0.31200   0.22344   0.00000  Uiso   1.00
C121   C     0.47279   0.02621   0.22060   0.00000  Uiso   1.00
C122   C     0.52941   0.30675   0.27661   0.00000  Uiso   1.00
C123   C     0.35919   0.12817   0.27334   0.00000  Uiso   1.00
C124   C     0.64359   0.20306   0.23599   0.00000  Uiso   1.00
C125   C     0.64973   0.12446   0.26312   0.00000  Uiso   1.00
C126   C     0.35170   0.20818   0.25215   0.00000  Uiso   1.00
C127   C     0.52696   0.20823   0.04996   0.00000  Uiso   1.00
C128   C     0.53367   0.13732   0.45515   0.00000  Uiso   1.00
C129   C     0.48783   0.20544   0.45181   0.00000  Uiso   1.00
C130   C     0.50395   0.13158   0.04647   0.00000  Uiso   1.00
C131   C     0.52134   0.20824   0.09562   0.00000  Uiso   1.00
C132   C     0.52078   0.13115   0.41057   0.00000  Uiso   1.00
C133   C     0.48316   0.20417   0.40500   0.00000  Uiso   1.00
C134   C     0.50664   0.12890   0.09260   0.00000  Uiso   1.00
C135   C     0.51008   0.16831   0.11690   0.00000  Uiso   1.00
C136   C     0.49971   0.16643   0.38451   0.00000  Uiso   1.00
C137   C     0.51559   0.17087   0.02510   0.00000  Uiso   1.00
C138   C     0.51448   0.17282   0.47663   0.00000  Uiso   1.00
C139   C     0.62502   0.16298   0.24622   0.00000  Uiso   1.00
C140   C     0.37703   0.16898   0.26360   0.00000  Uiso   1.00
N141   N     0.55066   0.03929   0.31791   0.00000  Uiso   1.00
O142   O     0.56447   0.07909   0.31634   0.00000  Uiso   1.00
O143   O     0.56058   0.01508   0.35449   0.00000  Uiso   1.00
N144   N     0.43479   0.29261   0.19962   0.00000  Uiso   1.00
O145   O     0.43956   0.25912   0.17398   0.00000  Uiso   1.00
O146   O     0.39843   0.31415   0.19613   0.00000  Uiso   1.00
N147   N     0.44760   0.05093   0.18508   0.00000  Uiso   1.00
O148   O     0.41405   0.07358   0.19371   0.00000  Uiso   1.00
O149   O     0.44888   0.03749   0.14452   0.00000  Uiso   1.00
N150   N     0.56425   0.28124   0.30014   0.00000  Uiso   1.00
O151   O     0.55869   0.25608   0.33475   0.00000  Uiso   1.00
O152   O     0.60199   0.29322   0.29554   0.00000  Uiso   1.00
O153   O     0.54019   0.24616   0.02911   0.00000  Uiso   1.00
C154   C     0.58407   0.24239   0.02935   0.00000  Uiso   1.00
H155   H     0.59313   0.21869   0.00385   0.00000  Uiso   1.00
H156   H     0.60017   0.23227   0.06296   0.00000  Uiso   1.00
H157   H     0.59511   0.27569   0.02009   0.00000  Uiso   1.00
O158   O     0.55920   0.10394   0.47842   0.00000  Uiso   1.00
C159   C     0.59875   0.12068   0.49108   0.00000  Uiso   1.00
H160   H     0.59772   0.14089   0.02134   0.00000  Uiso   1.00
H161   H     0.61086   0.14037   0.46347   0.00000  Uiso   1.00
H162   H     0.62136   0.09180  -0.00000   0.00000  Uiso   1.00
O163   O     0.46731   0.23916   0.47304   0.00000  Uiso   1.00
C164   C     0.42694   0.22583   0.48005   0.00000  Uiso   1.00
H165   H     0.42866   0.19871   0.00634   0.00000  Uiso   1.00
H166   H     0.40926   0.21524   0.44870   0.00000  Uiso   1.00
H167   H     0.40907   0.25491   0.49217   0.00000  Uiso   1.00
O168   O     0.49333   0.09398   0.02292   0.00000  Uiso   1.00
C169   C     0.44956   0.09544   0.01247   0.00000  Uiso   1.00
H170   H     0.43941   0.12232   0.48680   0.00000  Uiso   1.00
H171   H     0.43257   0.09976   0.04269   0.00000  Uiso   1.00
H172   H     0.44081   0.06309   0.49797   0.00000  Uiso   1.00
O173   O     0.53194   0.24492   0.12077   0.00000  Uiso   1.00
C174   C     0.50490   0.28252   0.10700   0.00000  Uiso   1.00
H175   H     0.47254   0.27364   0.09469   0.00000  Uiso   1.00
H176   H     0.51838   0.30314   0.08126   0.00000  Uiso   1.00
H177   H     0.50246   0.30372   0.13624   0.00000  Uiso   1.00
O178   O     0.52688   0.08959   0.39313   0.00000  Uiso   1.00
C179   C     0.49469   0.06236   0.40531   0.00000  Uiso   1.00
H180   H     0.46400   0.08106   0.40700   0.00000  Uiso   1.00
H181   H     0.50459   0.04448   0.43784   0.00000  Uiso   1.00
H182   H     0.48900   0.03708   0.37959   0.00000  Uiso   1.00
O183   O     0.45727   0.23564   0.37926   0.00000  Uiso   1.00
C184   C     0.47214   0.27912   0.38424   0.00000  Uiso   1.00
H185   H     0.50647   0.27959   0.39423   0.00000  Uiso   1.00
H186   H     0.45475   0.29737   0.40875   0.00000  Uiso   1.00
H187   H     0.46572   0.29773   0.35160   0.00000  Uiso   1.00
O188   O     0.50443   0.08744   0.11337   0.00000  Uiso   1.00
C189   C     0.54542   0.06776   0.12139   0.00000  Uiso   1.00
H190   H     0.56695   0.08991   0.14073   0.00000  Uiso   1.00
H191   H     0.55802   0.05893   0.08948   0.00000  Uiso   1.00
H192   H     0.54445   0.03638   0.14180   0.00000  Uiso   1.00
N193   N     0.38459   0.09112   0.29492   0.00000  Uiso   1.00
O194   O     0.40898   0.09745   0.33112   0.00000  Uiso   1.00
O195   O     0.38596   0.05212   0.27681   0.00000  Uiso   1.00
N196   N     0.62376   0.23288   0.20089   0.00000  Uiso   1.00
O197   O     0.62307   0.22070   0.15970   0.00000  Uiso   1.00
O198   O     0.60244   0.26909   0.20961   0.00000  Uiso   1.00
N199   N     0.63260   0.08107   0.26656   0.00000  Uiso   1.00
O200   O     0.61546   0.06324   0.23071   0.00000  Uiso   1.00
O201   O     0.64181   0.05580   0.30256   0.00000  Uiso   1.00
N202   N     0.36598   0.25204   0.26306   0.00000  Uiso   1.00
O203   O     0.39428   0.25581   0.29666   0.00000  Uiso   1.00
O204   O     0.34342   0.28793   0.24908   0.00000  Uiso   1.00
O205   O     0.77226   0.20487   0.25000   0.00000  Uiso   1.00
O206   O     0.89441   0.12846   0.25001   0.00000  Uiso   1.00
O207   O     0.89441   0.20487   0.25001   0.00000  Uiso   1.00
O208   O     0.77226   0.12846   0.25000   0.00000  Uiso   1.00
N209   N     0.83333   0.28573   0.25000   0.00000  Uiso   1.00
N210   N     0.83333   0.04760   0.25000   0.00000  Uiso   1.00
C211   C     0.75402   0.16752   0.25509   0.00000  Uiso   1.00
C212   C     0.91338   0.16549   0.24765   0.00000  Uiso   1.00
O213   O     0.83333   0.20489   0.18453   0.00000  Uiso   1.00
O214   O     0.83334   0.12845   0.31547   0.00000  Uiso   1.00
O215   O     0.83334   0.20489   0.31547   0.00000  Uiso   1.00
O216   O     0.83333   0.12845   0.18453   0.00000  Uiso   1.00
C217   C     0.83607   0.16718   0.16419   0.00000  Uiso   1.00
C218   C     0.83217   0.16629   0.33603   0.00000  Uiso   1.00
Zn219  Zn    0.83333   0.21771   0.25000   0.00000  Uiso   1.00
Zn220  Zn    0.83333   0.11563   0.25000   0.00000  Uiso   1.00
C221   C     0.86013   0.02093   0.28015   0.00000  Uiso   1.00
C222   C     0.80360   0.31200   0.22344   0.00000  Uiso   1.00
C223   C     0.80612   0.02621   0.22060   0.00000  Uiso   1.00
C224   C     0.86274   0.30675   0.27661   0.00000  Uiso   1.00
C225   C     0.69253   0.12817   0.27334   0.00000  Uiso   1.00
C226   C     0.97692   0.20306   0.23599   0.00000  Uiso   1.00
C227   C     0.98306   0.12446   0.26312   0.00000  Uiso   1.00
C228   C     0.68503   0.20818   0.25215   0.00000  Uiso   1.00
C229   C     0.86030   0.20823   0.04996   0.00000  Uiso   1.00
C230   C     0.86701   0.13732   0.45515   0.00000  Uiso   1.00
C231   C     0.82117   0.20544   0.45181   0.00000  Uiso   1.00
C232   C     0.83729   0.13158   0.04647   0.00000  Uiso   1.00
C233   C     0.85467   0.20824   0.09562   0.00000  Uiso   1.00
C234   C     0.85411   0.13115   0.41057   0.00000  Uiso   1.00
C235   C     0.81650   0.20417   0.40500   0.00000  Uiso   1.00
C236   C     0.83997   0.12890   0.09260   0.00000  Uiso   1.00
C237   C     0.84341   0.16831   0.11690   0.00000  Uiso   1.00
C238   C     0.83304   0.16643   0.38451   0.00000  Uiso   1.00
C239   C     0.84892   0.17087   0.02510   0.00000  Uiso   1.00
C240   C     0.84781   0.17282   0.47663   0.00000  Uiso   1.00
C241   C     0.95836   0.16298   0.24622   0.00000  Uiso   1.00
C242   C     0.71036   0.16898   0.26360   0.00000  Uiso   1.00
N243   N     0.88400   0.03929   0.31791   0.00000  Uiso   1.00
O244   O     0.89780   0.07909   0.31634   0.00000  Uiso   1.00
O245   O     0.89391   0.01508   0.35449   0.00000  Uiso   1.00
N246   N     0.76812   0.29261   0.19962   0.00000  Uiso   1.00
O247   O     0.77290   0.25912   0.17398   0.00000  Uiso   1.00
O248   O     0.73176   0.31415   0.19613   0.00000  Uiso   1.00
N249   N     0.78093   0.05093   0.18508   0.00000  Uiso   1.00
O250   O     0.74739   0.07358   0.19371   0.00000  Uiso   1.00
O251   O     0.78222   0.03749   0.14452   0.00000  Uiso   1.00
N252   N     0.89759   0.28124   0.30014   0.00000  Uiso   1.00
O253   O     0.89202   0.25608   0.33475   0.00000  Uiso   1.00
O254   O     0.93532   0.29322   0.29554   0.00000  Uiso   1.00
O255   O     0.87353   0.24616   0.02911   0.00000  Uiso   1.00
C256   C     0.91740   0.24239   0.02935   0.00000  Uiso   1.00
H257   H     0.92647   0.21869   0.00385   0.00000  Uiso   1.00
H258   H     0.93350   0.23227   0.06296   0.00000  Uiso   1.00
H259   H     0.92845   0.27569   0.02009   0.00000  Uiso   1.00
O260   O     0.89254   0.10394   0.47842   0.00000  Uiso   1.00
C261   C     0.93208   0.12068   0.49108   0.00000  Uiso   1.00
H262   H     0.93106   0.14089   0.02134   0.00000  Uiso   1.00
H263   H     0.94419   0.14037   0.46347   0.00000  Uiso   1.00
H264   H     0.95469   0.09180  -0.00000   0.00000  Uiso   1.00
O265   O     0.80065   0.23916   0.47304   0.00000  Uiso   1.00
C266   C     0.76027   0.22583   0.48005   0.00000  Uiso   1.00
H267   H     0.76199   0.19871   0.00634   0.00000  Uiso   1.00
H268   H     0.74259   0.21524   0.44870   0.00000  Uiso   1.00
H269   H     0.74240   0.25491   0.49217   0.00000  Uiso   1.00
O270   O     0.82667   0.09398   0.02292   0.00000  Uiso   1.00
C271   C     0.78290   0.09544   0.01247   0.00000  Uiso   1.00
H272   H     0.77274   0.12232   0.48680   0.00000  Uiso   1.00
H273   H     0.76590   0.09976   0.04269   0.00000  Uiso   1.00
H274   H     0.77415   0.06309   0.49797   0.00000  Uiso   1.00
O275   O     0.86528   0.24492   0.12077   0.00000  Uiso   1.00
C276   C     0.83823   0.28252   0.10700   0.00000  Uiso   1.00
H277   H     0.80588   0.27364   0.09469   0.00000  Uiso   1.00
H278   H     0.85171   0.30314   0.08126   0.00000  Uiso   1.00
H279   H     0.83579   0.30372   0.13624   0.00000  Uiso   1.00
O280   O     0.86021   0.08959   0.39313   0.00000  Uiso   1.00
C281   C     0.82803   0.06236   0.40531   0.00000  Uiso   1.00
H282   H     0.79733   0.08106   0.40700   0.00000  Uiso   1.00
H283   H     0.83792   0.04448   0.43784   0.00000  Uiso   1.00
H284   H     0.82234   0.03708   0.37959   0.00000  Uiso   1.00
O285   O     0.79060   0.23564   0.37926   0.00000  Uiso   1.00
C286   C     0.80548   0.27912   0.38424   0.00000  Uiso   1.00
H287   H     0.83981   0.27959   0.39423   0.00000  Uiso   1.00
H288   H     0.78808   0.29737   0.40875   0.00000  Uiso   1.00
H289   H     0.79905   0.29773   0.35160   0.00000  Uiso   1.00
O290   O     0.83776   0.08744   0.11337   0.00000  Uiso   1.00
C291   C     0.87875   0.06776   0.12139   0.00000  Uiso   1.00
H292   H     0.90028   0.08991   0.14073   0.00000  Uiso   1.00
H293   H     0.89136   0.05893   0.08948   0.00000  Uiso   1.00
H294   H     0.87778   0.03638   0.14180   0.00000  Uiso   1.00
N295   N     0.71793   0.09112   0.29492   0.00000  Uiso   1.00
O296   O     0.74232   0.09745   0.33112   0.00000  Uiso   1.00
O297   O     0.71930   0.05212   0.27681   0.00000  Uiso   1.00
N298   N     0.95710   0.23288   0.20089   0.00000  Uiso   1.00
O299   O     0.95640   0.22070   0.15970   0.00000  Uiso   1.00
O300   O     0.93577   0.26909   0.20961   0.00000  Uiso   1.00
N301   N     0.96594   0.08107   0.26656   0.00000  Uiso   1.00
O302   O     0.94880   0.06324   0.23071   0.00000  Uiso   1.00
O303   O     0.97514   0.05580   0.30256   0.00000  Uiso   1.00
N304   N     0.69931   0.25204   0.26306   0.00000  Uiso   1.00
O305   O     0.72762   0.25581   0.29666   0.00000  Uiso   1.00
O306   O     0.67675   0.28793   0.24908   0.00000  Uiso   1.00
O307   O     0.10559   0.53821   0.25000   0.00000  Uiso   1.00
O308   O     0.22774   0.46179   0.25001   0.00000  Uiso   1.00
O309   O     0.22774   0.53821   0.25001   0.00000  Uiso   1.00
O310   O     0.10559   0.46179   0.25000   0.00000  Uiso   1.00
N311   N     0.16667   0.61907   0.25000   0.00000  Uiso   1.00
N312   N     0.16667   0.38093   0.25000   0.00000  Uiso   1.00
C313   C     0.08735   0.50086   0.25509   0.00000  Uiso   1.00
C314   C     0.24671   0.49883   0.24765   0.00000  Uiso   1.00
O315   O     0.16666   0.53822   0.18453   0.00000  Uiso   1.00
O316   O     0.16667   0.46178   0.31547   0.00000  Uiso   1.00
O317   O     0.16667   0.53822   0.31547   0.00000  Uiso   1.00
O318   O     0.16666   0.46178   0.18453   0.00000  Uiso   1.00
C319   C     0.16940   0.50051   0.16419   0.00000  Uiso   1.00
C320   C     0.16550   0.49962   0.33603   0.00000  Uiso   1.00
Zn321  Zn    0.16667   0.55104   0.25000   0.00000  Uiso   1.00
Zn322  Zn    0.16667   0.44896   0.25000   0.00000  Uiso   1.00
C323   C     0.19346   0.35426   0.28015   0.00000  Uiso   1.00
C324   C     0.13693   0.64533   0.22344   0.00000  Uiso   1.00
C325   C     0.13946   0.35955   0.22060   0.00000  Uiso   1.00
C326   C     0.19608   0.64009   0.27661   0.00000  Uiso   1.00
C327   C     0.02586   0.46150   0.27334   0.00000  Uiso   1.00
C328   C     0.31026   0.53640   0.23599   0.00000  Uiso   1.00
C329   C     0.31639   0.45779   0.26312   0.00000  Uiso   1.00
C330   C     0.01837   0.54151   0.25215   0.00000  Uiso   1.00
C331   C     0.19363   0.54156   0.04996   0.00000  Uiso   1.00
C332   C     0.20034   0.47065   0.45515   0.00000  Uiso   1.00
C333   C     0.15450   0.53877   0.45181   0.00000  Uiso   1.00
C334   C     0.17062   0.46492   0.04647   0.00000  Uiso   1.00
C335   C     0.18801   0.54158   0.09562   0.00000  Uiso   1.00
C336   C     0.18745   0.46448   0.41057   0.00000  Uiso   1.00
C337   C     0.14983   0.53751   0.40500   0.00000  Uiso   1.00
C338   C     0.17330   0.46223   0.09260   0.00000  Uiso   1.00
C339   C     0.17675   0.50164   0.11690   0.00000  Uiso   1.00
C340   C     0.16638   0.49976   0.38451   0.00000  Uiso   1.00
C341   C     0.18226   0.50420   0.02510   0.00000  Uiso   1.00
C342   C     0.18114   0.50615   0.47663   0.00000  Uiso   1.00
C343   C     0.29169   0.49632   0.24622   0.00000  Uiso   1.00
C344   C     0.04369   0.50231   0.26360   0.00000  Uiso   1.00
N345   N     0.21733   0.37262   0.31791   0.00000  Uiso   1.00
O346   O     0.23113   0.41242   0.31634   0.00000  Uiso   1.00
O347   O     0.22724   0.34841   0.35449   0.00000  Uiso   1.00
N348   N     0.10146   0.62595   0.19962   0.00000  Uiso   1.00
O349   O     0.10623   0.59245   0.17398   0.00000  Uiso   1.00
O350   O     0.06510   0.64748   0.19613   0.00000  Uiso   1.00
N351   N     0.11426   0.38427   0.18508   0.00000  Uiso   1.00
O352   O     0.08072   0.40692   0.19371   0.00000  Uiso   1.00
O353   O     0.11555   0.37083   0.14452   0.00000  Uiso   1.00
N354   N     0.23092   0.61458   0.30014   0.00000  Uiso   1.00
O355   O     0.22536   0.58942   0.33475   0.00000  Uiso   1.00
O356   O     0.26866   0.62655   0.29554   0.00000  Uiso   1.00
O357   O     0.20686   0.57949   0.02911   0.00000  Uiso   1.00
C358   C     0.25074   0.57572   0.02935   0.00000  Uiso   1.00
H359   H     0.25980   0.55202   0.00385   0.00000  Uiso   1.00
H360   H     0.26684   0.56560   0.06296   0.00000  Uiso   1.00
H361   H     0.26178   0.60903   0.02009   0.00000  Uiso   1.00
O362   O     0.22587   0.43727   0.47842   0.00000  Uiso   1.00
C363   C     0.26541   0.45401   0.49108   0.00000  Uiso   1.00
H364   H     0.26439   0.47423   0.02134   0.00000  Uiso   1.00
H365   H     0.27752   0.47371   0.46347   0.00000  Uiso   1.00
H366   H     0.28803   0.42513  -0.00000   0.00000  Uiso   1.00
O367   O     0.13398   0.57250   0.47304   0.00000  Uiso   1.00
C368   C     0.09361   0.55916   0.48005   0.00000  Uiso   1.00
H369   H     0.09532   0.53204   0.00634   0.00000  Uiso   1.00
H370   H     0.07592   0.54857   0.44870   0.00000  Uiso   1.00
H371   H     0.07574   0.58824   0.49217   0.00000  Uiso   1.00
O372   O     0.16000   0.42731   0.02292   0.00000  Uiso   1.00
C373   C     0.11623   0.42877   0.01247   0.00000  Uiso   1.00
H374   H     0.10608   0.45565   0.48680   0.00000  Uiso   1.00
H375   H     0.09924   0.43309   0.04269   0.00000  Uiso   1.00
H376   H     0.10748   0.39642   0.49797   0.00000  Uiso   1.00
O377   O     0.19861   0.57825   0.12077   0.00000  Uiso   1.00
C378   C     0.17156   0.61586   0.10700   0.00000  Uiso   1.00
H379   H     0.13921   0.60697   0.09469   0.00000  Uiso   1.00
H380   H     0.18505   0.63647   0.08126   0.00000  Uiso   1.00
H381   H     0.16913   0.63705   0.13624   0.00000  Uiso   1.00
O382   O     0.19354   0.42292   0.39313   0.00000  Uiso   1.00
C383   C     0.16136   0.39569   0.40531   0.00000  Uiso   1.00
H384   H     0.13067   0.41439   0.40700   0.00000  Uiso   1.00
H385   H     0.17125   0.37782   0.43784   0.00000  Uiso   1.00
H386   H     0.15567   0.37042   0.37959   0.00000  Uiso   1.00
O387   O     0.12393   0.56897   0.37926   0.00000  Uiso   1.00
C388   C     0.13881   0.61245   0.38424   0.00000  Uiso   1.00
H389   H     0.17314   0.61292   0.39423   0.00000  Uiso   1.00
H390   H     0.12142   0.63070   0.40875   0.00000  Uiso   1.00
H391   H     0.13238   0.63106   0.35160   0.00000  Uiso   1.00
O392   O     0.17110   0.42077   0.11337   0.00000  Uiso   1.00
C393   C     0.21209   0.40109   0.12139   0.00000  Uiso   1.00
H394   H     0.23361   0.42324   0.14073   0.00000  Uiso   1.00
H395   H     0.22469   0.39226   0.08948   0.00000  Uiso   1.00
H396   H     0.21111   0.36971   0.14180   0.00000  Uiso   1.00
N397   N     0.05126   0.42446   0.29492   0.00000  Uiso   1.00
O398   O     0.07565   0.43079   0.33112   0.00000  Uiso   1.00
O399   O     0.05263   0.38546   0.27681   0.00000  Uiso   1.00
N400   N     0.29043   0.56622   0.20089   0.00000  Uiso   1.00
O401   O     0.28973   0.55404   0.15970   0.00000  Uiso   1.00
O402   O     0.26910   0.60242   0.20961   0.00000  Uiso   1.00
N403   N     0.29927   0.41441   0.26656   0.00000  Uiso   1.00
O404   O     0.28213   0.39657   0.23071   0.00000  Uiso   1.00
O405   O     0.30848   0.38913   0.30256   0.00000  Uiso   1.00
N406   N     0.03265   0.58537   0.26306   0.00000  Uiso   1.00
O407   O     0.06095   0.58914   0.29666   0.00000  Uiso   1.00
O408   O     0.01008   0.62127   0.24908   0.00000  Uiso   1.00
O409   O     0.43892   0.53821   0.25000   0.00000  Uiso   1.00
O410   O     0.56108   0.46179   0.25001   0.00000  Uiso   1.00
O411   O     0.56108   0.53821   0.25001   0.00000  Uiso   1.00
O412   O     0.43892   0.46179   0.25000   0.00000  Uiso   1.00
N413   N     0.50000   0.61907   0.25000   0.00000  Uiso   1.00
N414   N     0.50000   0.38093   0.25000   0.00000  Uiso   1.00
C415   C     0.42068   0.50086   0.25509   0.00000  Uiso   1.00
C416   C     0.58005   0.49883   0.24765   0.00000  Uiso   1.00
O417   O     0.50000   0.53822   0.18453   0.00000  Uiso   1.00
O418   O     0.50000   0.46178   0.31547   0.00000  Uiso   1.00
O419   O     0.50000   0.53822   0.31547   0.00000  Uiso   1.00
O420   O     0.50000   0.46178   0.18453   0.00000  Uiso   1.00
C421   C     0.50274   0.50051   0.16419   0.00000  Uiso   1.00
C422   C     0.49884   0.49962   0.33603   0.00000  Uiso   1.00
Zn423  Zn    0.50000   0.55104   0.25000   0.00000  Uiso   1.00
Zn424  Zn    0.50000   0.44896   0.25000   0.00000  Uiso   1.00
C425   C     0.52679   0.35426   0.28015   0.00000  Uiso   1.00
C426   C     0.47027   0.64533   0.22344   0.00000  Uiso   1.00
C427   C     0.47279   0.35955   0.22060   0.00000  Uiso   1.00
C428   C     0.52941   0.64009   0.27661   0.00000  Uiso   1.00
C429   C     0.35919   0.46150   0.27334   0.00000  Uiso   1.00
C430   C     0.64359   0.53640   0.23599   0.00000  Uiso   1.00
C431   C     0.64973   0.45779   0.26312   0.00000  Uiso   1.00
C432   C     0.35170   0.54151   0.25215   0.00000  Uiso   1.00
C433   C     0.52696   0.54156   0.04996   0.00000  Uiso   1.00
C434   C     0.53367   0.47065   0.45515   0.00000  Uiso   1.00
C435   C     0.48783   0.53877   0.45181   0.00000  Uiso   1.00
C436   C     0.50395   0.46492   0.04647   0.00000  Uiso   1.00
C437   C     0.52134   0.54158   0.09562   0.00000  Uiso   1.00
C438   C     0.52078   0.46448   0.41057   0.00000  Uiso   1.00
C439   C     0.48316   0.53751   0.40500   0.00000  Uiso   1.00
C440   C     0.50664   0.46223   0.09260   0.00000  Uiso   1.00
C441   C     0.51008   0.50164   0.11690   0.00000  Uiso   1.00
C442   C     0.49971   0.49976   0.38451   0.00000  Uiso   1.00
C443   C     0.51559   0.50420   0.02510   0.00000  Uiso   1.00
C444   C     0.51448   0.50615   0.47663   0.00000  Uiso   1.00
C445   C     0.62502   0.49632   0.24622   0.00000  Uiso   1.00
C446   C     0.37703   0.50231   0.26360   0.00000  Uiso   1.00
N447   N     0.55066   0.37262   0.31791   0.00000  Uiso   1.00
O448   O     0.56447   0.41242   0.31634   0.00000  Uiso   1.00
O449   O     0.56058   0.34841   0.35449   0.00000  Uiso   1.00
N450   N     0.43479   0.62595   0.19962   0.00000  Uiso   1.00
O451   O     0.43956   0.59245   0.17398   0.00000  Uiso   1.00
O452   O     0.39843   0.64748   0.19613   0.00000  Uiso   1.00
N453   N     0.44760   0.38427   0.18508   0.00000  Uiso   1.00
O454   O     0.41405   0.40692   0.19371   0.00000  Uiso   1.00
O455   O     0.44888   0.37083   0.14452   0.00000  Uiso   1.00
N456   N     0.56425   0.61458   0.30014   0.00000  Uiso   1.00
O457   O     0.55869   0.58942   0.33475   0.00000  Uiso   1.00
O458   O     0.60199   0.62655   0.29554   0.00000  Uiso   1.00
O459   O     0.54019   0.57949   0.02911   0.00000  Uiso   1.00
C460   C     0.58407   0.57572   0.02935   0.00000  Uiso   1.00
H461   H     0.59313   0.55202   0.00385   0.00000  Uiso   1.00
H462   H     0.60017   0.56560   0.06296   0.00000  Uiso   1.00
H463   H     0.59511   0.60903   0.02009   0.00000  Uiso   1.00
O464   O     0.55920   0.43727   0.47842   0.00000  Uiso   1.00
C465   C     0.59875   0.45401   0.49108   0.00000  Uiso   1.00
H466   H     0.59772   0.47423   0.02134   0.00000  Uiso   1.00
H467   H     0.61086   0.47371   0.46347   0.00000  Uiso   1.00
H468   H     0.62136   0.42513  -0.00000   0.00000  Uiso   1.00
O469   O     0.46731   0.57250   0.47304   0.00000  Uiso   1.00
C470   C     0.42694   0.55916   0.48005   0.00000  Uiso   1.00
H471   H     0.42866   0.53204   0.00634   0.00000  Uiso   1.00
H472   H     0.40926   0.54857   0.44870   0.00000  Uiso   1.00
H473   H     0.40907   0.58824   0.49217   0.00000  Uiso   1.00
O474   O     0.49333   0.42731   0.02292   0.00000  Uiso   1.00
C475   C     0.44956   0.42877   0.01247   0.00000  Uiso   1.00
H476   H     0.43941   0.45565   0.48680   0.00000  Uiso   1.00
H477   H     0.43257   0.43309   0.04269   0.00000  Uiso   1.00
H478   H     0.44081   0.39642   0.49797   0.00000  Uiso   1.00
O479   O     0.53194   0.57825   0.12077   0.00000  Uiso   1.00
C480   C     0.50490   0.61586   0.10700   0.00000  Uiso   1.00
H481   H     0.47254   0.60697   0.09469   0.00000  Uiso   1.00
H482   H     0.51838   0.63647   0.08126   0.00000  Uiso   1.00
H483   H     0.50246   0.63705   0.13624   0.00000  Uiso   1.00
O484   O     0.52688   0.42292   0.39313   0.00000  Uiso   1.00
C485   C     0.49469   0.39569   0.40531   0.00000  Uiso   1.00
H486   H     0.46400   0.41439   0.40700   0.00000  Uiso   1.00
H487   H     0.50459   0.37782   0.43784   0.00000  Uiso   1.00
H488   H     0.48900   0.37042   0.37959   0.00000  Uiso   1.00
O489   O     0.45727   0.56897   0.37926   0.00000  Uiso   1.00
C490   C     0.47214   0.61245   0.38424   0.00000  Uiso   1.00
H491   H     0.50647   0.61292   0.39423   0.00000  Uiso   1.00
H492   H     0.45475   0.63070   0.40875   0.00000  Uiso   1.00
H493   H     0.46572   0.63106   0.35160   0.00000  Uiso   1.00
O494   O     0.50443   0.42077   0.11337   0.00000  Uiso   1.00
C495   C     0.54542   0.40109   0.12139   0.00000  Uiso   1.00
H496   H     0.56695   0.42324   0.14073   0.00000  Uiso   1.00
H497   H     0.55802   0.39226   0.08948   0.00000  Uiso   1.00
H498   H     0.54445   0.36971   0.14180   0.00000  Uiso   1.00
N499   N     0.38459   0.42446   0.29492   0.00000  Uiso   1.00
O500   O     0.40898   0.43079   0.33112   0.00000  Uiso   1.00
O501   O     0.38596   0.38546   0.27681   0.00000  Uiso   1.00
N502   N     0.62376   0.56622   0.20089   0.00000  Uiso   1.00
O503   O     0.62307   0.55404   0.15970   0.00000  Uiso   1.00
O504   O     0.60244   0.60242   0.20961   0.00000  Uiso   1.00
N505   N     0.63260   0.41441   0.26656   0.00000  Uiso   1.00
O506   O     0.61546   0.39657   0.23071   0.00000  Uiso   1.00
O507   O     0.64181   0.38913   0.30256   0.00000  Uiso   1.00
N508   N     0.36598   0.58537   0.26306   0.00000  Uiso   1.00
O509   O     0.39428   0.58914   0.29666   0.00000  Uiso   1.00
O510   O     0.34342   0.62127   0.24908   0.00000  Uiso   1.00
O511   O     0.77226   0.53821   0.25000   0.00000  Uiso   1.00
O512   O     0.89441   0.46179   0.25001   0.00000  Uiso   1.00
O513   O     0.89441   0.53821   0.25001   0.00000  Uiso   1.00
O514   O     0.77226   0.46179   0.25000   0.00000  Uiso   1.00
N515   N     0.83333   0.61907   0.25000   0.00000  Uiso   1.00
N516   N     0.83333   0.38093   0.25000   0.00000  Uiso   1.00
C517   C     0.75402   0.50086   0.25509   0.00000  Uiso   1.00
C518   C     0.91338   0.49883   0.24765   0.00000  Uiso   1.00
O519   O     0.83333   0.53822   0.18453   0.00000  Uiso   1.00
O520   O     0.83334   0.46178   0.31547   0.00000  Uiso   1.00
O521   O     0.83334   0.53822   0.31547   0.00000  Uiso   1.00
O522   O     0.83333   0.46178   0.18453   0.00000  Uiso   1.00
C523   C     0.83607   0.50051   0.16419   0.00000  Uiso   1.00
C524   C     0.83217   0.49962   0.33603   0.00000  Uiso   1.00
Zn525  Zn    0.83333   0.55104   0.25000   0.00000  Uiso   1.00
Zn526  Zn    0.83333   0.44896   0.25000   0.00000  Uiso   1.00
C527   C     0.86013   0.35426   0.28015   0.00000  Uiso   1.00
C528   C     0.80360   0.64533   0.22344   0.00000  Uiso   1.00
C529   C     0.80612   0.35955   0.22060   0.00000  Uiso   1.00
C530   C     0.86274   0.64009   0.27661   0.00000  Uiso   1.00
C531   C     0.69253   0.46150   0.27334   0.00000  Uiso   1.00
C532   C     0.97692   0.53640   0.23599   0.00000  Uiso   1.00
C533   C     0.98306   0.45779   0.26312   0.00000  Uiso   1.00
C534   C     0.68503   0.54151   0.25215   0.00000  Uiso   1.00
C535   C     0.86030   0.54156   0.04996   0.00000  Uiso   1.00
C536   C     0.86701   0.47065   0.45515   0.00000  Uiso   1.00
C537   C     0.82117   0.53877   0.45181   0.00000  Uiso   1.00
C538   C     0.83729   0.46492   0.04647   0.00000  Uiso   1.00
C539   C     0.85467   0.54158   0.09562   0.00000  Uiso   1.00
C540   C     0.85411   0.46448   0.41057   0.00000  Uiso   1.00
C541   C     0.81650   0.53751   0.40500   0.00000  Uiso   1.00
C542   C     0.83997   0.46223   0.09260   0.00000  Uiso   1.00
C543   C     0.84341   0.50164   0.11690   0.00000  Uiso   1.00
C544   C     0.83304   0.49976   0.38451   0.00000  Uiso   1.00
C545   C     0.84892   0.50420   0.02510   0.00000  Uiso   1.00
C546   C     0.84781   0.50615   0.47663   0.00000  Uiso   1.00
C547   C     0.95836   0.49632   0.24622   0.00000  Uiso   1.00
C548   C     0.71036   0.50231   0.26360   0.00000  Uiso   1.00
N549   N     0.88400   0.37262   0.31791   0.00000  Uiso   1.00
O550   O     0.89780   0.41242   0.31634   0.00000  Uiso   1.00
O551   O     0.89391   0.34841   0.35449   0.00000  Uiso   1.00
N552   N     0.76812   0.62595   0.19962   0.00000  Uiso   1.00
O553   O     0.77290   0.59245   0.17398   0.00000  Uiso   1.00
O554   O     0.73176   0.64748   0.19613   0.00000  Uiso   1.00
N555   N     0.78093   0.38427   0.18508   0.00000  Uiso   1.00
O556   O     0.74739   0.40692   0.19371   0.00000  Uiso   1.00
O557   O     0.78222   0.37083   0.14452   0.00000  Uiso   1.00
N558   N     0.89759   0.61458   0.30014   0.00000  Uiso   1.00
O559   O     0.89202   0.58942   0.33475   0.00000  Uiso   1.00
O560   O     0.93532   0.62655   0.29554   0.00000  Uiso   1.00
O561   O     0.87353   0.57949   0.02911   0.00000  Uiso   1.00
C562   C     0.91740   0.57572   0.02935   0.00000  Uiso   1.00
H563   H     0.92647   0.55202   0.00385   0.00000  Uiso   1.00
H564   H     0.93350   0.56560   0.06296   0.00000  Uiso   1.00
H565   H     0.92845   0.60903   0.02009   0.00000  Uiso   1.00
O566   O     0.89254   0.43727   0.47842   0.00000  Uiso   1.00
C567   C     0.93208   0.45401   0.49108   0.00000  Uiso   1.00
H568   H     0.93106   0.47423   0.02134   0.00000  Uiso   1.00
H569   H     0.94419   0.47371   0.46347   0.00000  Uiso   1.00
H570   H     0.95469   0.42513  -0.00000   0.00000  Uiso   1.00
O571   O     0.80065   0.57250   0.47304   0.00000  Uiso   1.00
C572   C     0.76027   0.55916   0.48005   0.00000  Uiso   1.00
H573   H     0.76199   0.53204   0.00634   0.00000  Uiso   1.00
H574   H     0.74259   0.54857   0.44870   0.00000  Uiso   1.00
H575   H     0.74240   0.58824   0.49217   0.00000  Uiso   1.00
O576   O     0.82667   0.42731   0.02292   0.00000  Uiso   1.00
C577   C     0.78290   0.42877   0.01247   0.00000  Uiso   1.00
H578   H     0.77274   0.45565   0.48680   0.00000  Uiso   1.00
H579   H     0.76590   0.43309   0.04269   0.00000  Uiso   1.00
H580   H     0.77415   0.39642   0.49797   0.00000  Uiso   1.00
O581   O     0.86528   0.57825   0.12077   0.00000  Uiso   1.00
C582   C     0.83823   0.61586   0.10700   0.00000  Uiso   1.00
H583   H     0.80588   0.60697   0.09469   0.00000  Uiso   1.00
H584   H     0.85171   0.63647   0.08126   0.00000  Uiso   1.00
H585   H     0.83579   0.63705   0.13624   0.00000  Uiso   1.00
O586   O     0.86021   0.42292   0.39313   0.00000  Uiso   1.00
C587   C     0.82803   0.39569   0.40531   0.00000  Uiso   1.00
H588   H     0.79733   0.41439   0.40700   0.00000  Uiso   1.00
H589   H     0.83792   0.37782   0.43784   0.00000  Uiso   1.00
H590   H     0.82234   0.37042   0.37959   0.00000  Uiso   1.00
O591   O     0.79060   0.56897   0.37926   0.00000  Uiso   1.00
C592   C     0.80548   0.61245   0.38424   0.00000  Uiso   1.00
H593   H     0.83981   0.61292   0.39423   0.00000  Uiso   1.00
H594   H     0.78808   0.63070   0.40875   0.00000  Uiso   1.00
H595   H     0.79905   0.63106   0.35160   0.00000  Uiso   1.00
O596   O     0.83776   0.42077   0.11337   0.00000  Uiso   1.00
C597   C     0.87875   0.40109   0.12139   0.00000  Uiso   1.00
H598   H     0.90028   0.42324   0.14073   0.00000  Uiso   1.00
H599   H     0.89136   0.39226   0.08948   0.00000  Uiso   1.00
H600   H     0.87778   0.36971   0.14180   0.00000  Uiso   1.00
N601   N     0.71793   0.42446   0.29492   0.00000  Uiso   1.00
O602   O     0.74232   0.43079   0.33112   0.00000  Uiso   1.00
O603   O     0.71930   0.38546   0.27681   0.00000  Uiso   1.00
N604   N     0.95710   0.56622   0.20089   0.00000  Uiso   1.00
O605   O     0.95640   0.55404   0.15970   0.00000  Uiso   1.00
O606   O     0.93577   0.60242   0.20961   0.00000  Uiso   1.00
N607   N     0.96594   0.41441   0.26656   0.00000  Uiso   1.00
O608   O     0.94880   0.39657   0.23071   0.00000  Uiso   1.00
O609   O     0.97514   0.38913   0.30256   0.00000  Uiso   1.00
N610   N     0.69931   0.58537   0.26306   0.00000  Uiso   1.00
O611   O     0.72762   0.58914   0.29666   0.00000  Uiso   1.00
O612   O     0.67675   0.62127   0.24908   0.00000  Uiso   1.00
O613   O     0.10559   0.87154   0.25000   0.00000  Uiso   1.00
O614   O     0.22774   0.79513   0.25001   0.00000  Uiso   1.00
O615   O     0.22774   0.87154   0.25001   0.00000  Uiso   1.00
O616   O     0.10559   0.79513   0.25000   0.00000  Uiso   1.00
N617   N     0.16667   0.95240   0.25000   0.00000  Uiso   1.00
N618   N     0.16667   0.71427   0.25000   0.00000  Uiso   1.00
C619   C     0.08735   0.83419   0.25509   0.00000  Uiso   1.00
C620   C     0.24671   0.83216   0.24765   0.00000  Uiso   1.00
O621   O     0.16666   0.87155   0.18453   0.00000  Uiso   1.00
O622   O     0.16667   0.79511   0.31547   0.00000  Uiso   1.00
O623   O     0.16667   0.87155   0.31547   0.00000  Uiso   1.00
O624   O     0.16666   0.79511   0.18453   0.00000  Uiso   1.00
C625   C     0.16940   0.83384   0.16419   0.00000  Uiso   1.00
C626   C     0.16550   0.83296   0.33603   0.00000  Uiso   1.00
Zn627  Zn    0.16667   0.88437   0.25000   0.00000  Uiso   1.00
Zn628  Zn    0.16667   0.78229   0.25000   0.00000  Uiso   1.00
C629   C     0.19346   0.68759   0.28015   0.00000  Uiso   1.00
C630   C     0.13693   0.97867   0.22344   0.00000  Uiso   1.00
C631   C     0.13946   0.69288   0.22060   0.00000  Uiso   1.00
C632   C     0.19608   0.97342   0.27661   0.00000  Uiso   1.00
C633   C     0.02586   0.79483   0.27334   0.00000  Uiso   1.00
C634   C     0.31026   0.86973   0.23599   0.00000  Uiso   1.00
C635   C     0.31639   0.79113   0.26312   0.00000  Uiso   1.00
C636   C     0.01837   0.87484   0.25215   0.00000  Uiso   1.00
C637   C     0.19363   0.87490   0.04996   0.00000  Uiso   1.00
C638   C     0.20034   0.80399   0.45515   0.00000  Uiso   1.00
C639   C     0.15450   0.87210   0.45181   0.00000  Uiso   1.00
C640   C     0.17062   0.79825   0.04647   0.00000  Uiso   1.00
C641   C     0.18801   0.87491   0.09562   0.00000  Uiso   1.00
C642   C     0.18745   0.79781   0.41057   0.00000  Uiso   1.00
C643   C     0.14983   0.87084   0.40500   0.00000  Uiso   1.00
C644   C     0.17330   0.79557   0.09260   0.00000  Uiso   1.00
C645   C     0.17675   0.83498   0.11690   0.00000  Uiso   1.00
C646   C     0.16638   0.83310   0.38451   0.00000  Uiso   1.00
C647   C     0.18226   0.83753   0.02510   0.00000  Uiso   1.00
C648   C     0.18114   0.83949   0.47663   0.00000  Uiso   1.00
C649   C     0.29169   0.82965   0.24622   0.00000  Uiso   1.00
C650   C     0.04369   0.83565   0.26360   0.00000  Uiso   1.00
N651   N     0.21733   0.70595   0.31791   0.00000  Uiso   1.00
O652   O     0.23113   0.74576   0.31634   0.00000  Uiso   1.00
O653   O     0.22724   0.68174   0.35449   0.00000  Uiso   1.00
N654   N     0.10146   0.95928   0.19962   0.00000  Uiso   1.00
O655   O     0.10623   0.92579   0.17398   0.00000  Uiso   1.00
O656   O     0.06510   0.98081   0.19613   0.00000  Uiso   1.00
N657   N     0.11426   0.71760   0.18508   0.00000  Uiso   1.00
O658   O     0.08072   0.74025   0.19371   0.00000  Uiso   1.00
O659   O     0.11555   0.70416   0.14452   0.00000  Uiso   1.00
N660   N     0.23092   0.94791   0.30014   0.00000  Uiso   1.00
O661   O     0.22536   0.92275   0.33475   0.00000  Uiso   1.00
O662   O     0.26866   0.95988   0.29554   0.00000  Uiso   1.00
O663   O     0.20686   0.91282   0.02911   0.00000  Uiso   1.00
C664   C     0.25074   0.90905   0.02935   0.00000  Uiso   1.00
H665   H     0.25980   0.88536   0.00385   0.00000  Uiso   1.00
H666   H     0.26684   0.89893   0.06296   0.00000  Uiso   1.00
H667   H     0.26178   0.94236   0.02009   0.00000  Uiso   1.00
O668   O     0.22587   0.77061   0.47842   0.00000  Uiso   1.00
C669   C     0.26541   0.78735   0.49108   0.00000  Uiso   1.00
H670   H     0.26439   0.80756   0.02134   0.00000  Uiso   1.00
H671   H     0.27752   0.80704   0.46347   0.00000  Uiso   1.00
H672   H     0.28803   0.75846  -0.00000   0.00000  Uiso   1.00
O673   O     0.13398   0.90583   0.47304   0.00000  Uiso   1.00
C674   C     0.09361   0.89250   0.48005   0.00000  Uiso   1.00
H675   H     0.09532   0.86537   0.00634   0.00000  Uiso   1.00
H676   H     0.07592   0.88191   0.44870   0.00000  Uiso   1.00
H677   H     0.07574   0.92157   0.49217   0.00000  Uiso   1.00
O678   O     0.16000   0.76064   0.02292   0.00000  Uiso   1.00
C679   C     0.11623   0.76211   0.01247   0.00000  Uiso   1.00
H680   H     0.10608   0.78899   0.48680   0.00000  Uiso   1.00
H681   H     0.09924   0.76642   0.04269   0.00000  Uiso   1.00
H682   H     0.10748   0.72975   0.49797   0.00000  Uiso   1.00
O683   O     0.19861   0.91159   0.12077   0.00000  Uiso   1.00
C684   C     0.17156   0.94919   0.10700   0.00000  Uiso   1.00
H685   H     0.13921   0.94031   0.09469   0.00000  Uiso   1.00
H686   H     0.18505   0.96980   0.08126   0.00000  Uiso   1.00
H687   H     0.16913   0.97039   0.13624   0.00000  Uiso   1.00
O688   O     0.19354   0.75625   0.39313   0.00000  Uiso   1.00
C689   C     0.16136   0.72902   0.40531   0.00000  Uiso   1.00
H690   H     0.13067   0.74772   0.40700   0.00000  Uiso   1.00
H691   H     0.17125   0.71115   0.43784   0.00000  Uiso   1.00
H692   H     0.15567   0.70375   0.37959   0.00000  Uiso   1.00
O693   O     0.12393   0.90231   0.37926   0.00000  Uiso   1.00
C694   C     0.13881   0.94578   0.38424   0.00000  Uiso   1.00
H695   H     0.17314   0.94625   0.39423   0.00000  Uiso   1.00
H696   H     0.12142   0.96404   0.40875   0.00000  Uiso   1.00
H697   H     0.13238   0.96439   0.35160   0.00000  Uiso   1.00
O698   O     0.17110   0.75411   0.11337   0.00000  Uiso   1.00
C699   C     0.21209   0.73442   0.12139   0.00000  Uiso   1.00
H700   H     0.23361   0.75658   0.14073   0.00000  Uiso   1.00
H701   H     0.22469   0.72559   0.08948   0.00000  Uiso   1.00
H702   H     0.21111   0.70305   0.14180   0.00000  Uiso   1.00
N703   N     0.05126   0.75779   0.29492   0.00000  Uiso   1.00
O704   O     0.07565   0.76412   0.33112   0.00000  Uiso   1.00
O705   O     0.05263   0.71879   0.27681   0.00000  Uiso   1.00
N706   N     0.29043   0.89955   0.20089   0.00000  Uiso   1.00
O707   O     0.28973   0.88737   0.15970   0.00000  Uiso   1.00
O708   O     0.26910   0.93575   0.20961   0.00000  Uiso   1.00
N709   N     0.29927   0.74774   0.26656   0.00000  Uiso   1.00
O710   O     0.28213   0.72991   0.23071   0.00000  Uiso   1.00
O711   O     0.30848   0.72247   0.30256   0.00000  Uiso   1.00
N712   N     0.03265   0.91870   0.26306   0.00000  Uiso   1.00
O713   O     0.06095   0.92247   0.29666   0.00000  Uiso   1.00
O714   O     0.01008   0.95460   0.24908   0.00000  Uiso   1.00
O715   O     0.43892   0.87154   0.25000   0.00000  Uiso   1.00
O716   O     0.56108   0.79513   0.25001   0.00000  Uiso   1.00
O717   O     0.56108   0.87154   0.25001   0.00000  Uiso   1.00
O718   O     0.43892   0.79513   0.25000   0.00000  Uiso   1.00
N719   N     0.50000   0.95240   0.25000   0.00000  Uiso   1.00
N720   N     0.50000   0.71427   0.25000   0.00000  Uiso   1.00
C721   C     0.42068   0.83419   0.25509   0.00000  Uiso   1.00
C722   C     0.58005   0.83216   0.24765   0.00000  Uiso   1.00
O723   O     0.50000   0.87155   0.18453   0.00000  Uiso   1.00
O724   O     0.50000   0.79511   0.31547   0.00000  Uiso   1.00
O725   O     0.50000   0.87155   0.31547   0.00000  Uiso   1.00
O726   O     0.50000   0.79511   0.18453   0.00000  Uiso   1.00
C727   C     0.50274   0.83384   0.16419   0.00000  Uiso   1.00
C728   C     0.49884   0.83296   0.33603   0.00000  Uiso   1.00
Zn729  Zn    0.50000   0.88437   0.25000   0.00000  Uiso   1.00
Zn730  Zn    0.50000   0.78229   0.25000   0.00000  Uiso   1.00
C731   C     0.52679   0.68759   0.28015   0.00000  Uiso   1.00
C732   C     0.47027   0.97867   0.22344   0.00000  Uiso   1.00
C733   C     0.47279   0.69288   0.22060   0.00000  Uiso   1.00
C734   C     0.52941   0.97342   0.27661   0.00000  Uiso   1.00
C735   C     0.35919   0.79483   0.27334   0.00000  Uiso   1.00
C736   C     0.64359   0.86973   0.23599   0.00000  Uiso   1.00
C737   C     0.64973   0.79113   0.26312   0.00000  Uiso   1.00
C738   C     0.35170   0.87484   0.25215   0.00000  Uiso   1.00
C739   C     0.52696   0.87490   0.04996   0.00000  Uiso   1.00
C740   C     0.53367   0.80399   0.45515   0.00000  Uiso   1.00
C741   C     0.48783   0.87210   0.45181   0.00000  Uiso   1.00
C742   C     0.50395   0.79825   0.04647   0.00000  Uiso   1.00
C743   C     0.52134   0.87491   0.09562   0.00000  Uiso   1.00
C744   C     0.52078   0.79781   0.41057   0.00000  Uiso   1.00
C745   C     0.48316   0.87084   0.40500   0.00000  Uiso   1.00
C746   C     0.50664   0.79557   0.09260   0.00000  Uiso   1.00
C747   C     0.51008   0.83498   0.11690   0.00000  Uiso   1.00
C748   C     0.49971   0.83310   0.38451   0.00000  Uiso   1.00
C749   C     0.51559   0.83753   0.02510   0.00000  Uiso   1.00
C750   C     0.51448   0.83949   0.47663   0.00000  Uiso   1.00
C751   C     0.62502   0.82965   0.24622   0.00000  Uiso   1.00
C752   C     0.37703   0.83565   0.26360   0.00000  Uiso   1.00
N753   N     0.55066   0.70595   0.31791   0.00000  Uiso   1.00
O754   O     0.56447   0.74576   0.31634   0.00000  Uiso   1.00
O755   O     0.56058   0.68174   0.35449   0.00000  Uiso   1.00
N756   N     0.43479   0.95928   0.19962   0.00000  Uiso   1.00
O757   O     0.43956   0.92579   0.17398   0.00000  Uiso   1.00
O758   O     0.39843   0.98081   0.19613   0.00000  Uiso   1.00
N759   N     0.44760   0.71760   0.18508   0.00000  Uiso   1.00
O760   O     0.41405   0.74025   0.19371   0.00000  Uiso   1.00
O761   O     0.44888   0.70416   0.14452   0.00000  Uiso   1.00
N762   N     0.56425   0.94791   0.30014   0.00000  Uiso   1.00
O763   O     0.55869   0.92275   0.33475   0.00000  Uiso   1.00
O764   O     0.60199   0.95988   0.29554   0.00000  Uiso   1.00
O765   O     0.54019   0.91282   0.02911   0.00000  Uiso   1.00
C766   C     0.58407   0.90905   0.02935   0.00000  Uiso   1.00
H767   H     0.59313   0.88536   0.00385   0.00000  Uiso   1.00
H768   H     0.60017   0.89893   0.06296   0.00000  Uiso   1.00
H769   H     0.59511   0.94236   0.02009   0.00000  Uiso   1.00
O770   O     0.55920   0.77061   0.47842   0.00000  Uiso   1.00
C771   C     0.59875   0.78735   0.49108   0.00000  Uiso   1.00
H772   H     0.59772   0.80756   0.02134   0.00000  Uiso   1.00
H773   H     0.61086   0.80704   0.46347   0.00000  Uiso   1.00
H774   H     0.62136   0.75846  -0.00000   0.00000  Uiso   1.00
O775   O     0.46731   0.90583   0.47304   0.00000  Uiso   1.00
C776   C     0.42694   0.89250   0.48005   0.00000  Uiso   1.00
H777   H     0.42866   0.86537   0.00634   0.00000  Uiso   1.00
H778   H     0.40926   0.88191   0.44870   0.00000  Uiso   1.00
H779   H     0.40907   0.92157   0.49217   0.00000  Uiso   1.00
O780   O     0.49333   0.76064   0.02292   0.00000  Uiso   1.00
C781   C     0.44956   0.76211   0.01247   0.00000  Uiso   1.00
H782   H     0.43941   0.78899   0.48680   0.00000  Uiso   1.00
H783   H     0.43257   0.76642   0.04269   0.00000  Uiso   1.00
H784   H     0.44081   0.72975   0.49797   0.00000  Uiso   1.00
O785   O     0.53194   0.91159   0.12077   0.00000  Uiso   1.00
C786   C     0.50490   0.94919   0.10700   0.00000  Uiso   1.00
H787   H     0.47254   0.94031   0.09469   0.00000  Uiso   1.00
H788   H     0.51838   0.96980   0.08126   0.00000  Uiso   1.00
H789   H     0.50246   0.97039   0.13624   0.00000  Uiso   1.00
O790   O     0.52688   0.75625   0.39313   0.00000  Uiso   1.00
C791   C     0.49469   0.72902   0.40531   0.00000  Uiso   1.00
H792   H     0.46400   0.74772   0.40700   0.00000  Uiso   1.00
H793   H     0.50459   0.71115   0.43784   0.00000  Uiso   1.00
H794   H     0.48900   0.70375   0.37959   0.00000  Uiso   1.00
O795   O     0.45727   0.90231   0.37926   0.00000  Uiso   1.00
C796   C     0.47214   0.94578   0.38424   0.00000  Uiso   1.00
H797   H     0.50647   0.94625   0.39423   0.00000  Uiso   1.00
H798   H     0.45475   0.96404   0.40875   0.00000  Uiso   1.00
H799   H     0.46572   0.96439   0.35160   0.00000  Uiso   1.00
O800   O     0.50443   0.75411   0.11337   0.00000  Uiso   1.00
C801   C     0.54542   0.73442   0.12139   0.00000  Uiso   1.00
H802   H     0.56695   0.75658   0.14073   0.00000  Uiso   1.00
H803   H     0.55802   0.72559   0.08948   0.00000  Uiso   1.00
H804   H     0.54445   0.70305   0.14180   0.00000  Uiso   1.00
N805   N     0.38459   0.75779   0.29492   0.00000  Uiso   1.00
O806   O     0.40898   0.76412   0.33112   0.00000  Uiso   1.00
O807   O     0.38596   0.71879   0.27681   0.00000  Uiso   1.00
N808   N     0.62376   0.89955   0.20089   0.00000  Uiso   1.00
O809   O     0.62307   0.88737   0.15970   0.00000  Uiso   1.00
O810   O     0.60244   0.93575   0.20961   0.00000  Uiso   1.00
N811   N     0.63260   0.74774   0.26656   0.00000  Uiso   1.00
O812   O     0.61546   0.72991   0.23071   0.00000  Uiso   1.00
O813   O     0.64181   0.72247   0.30256   0.00000  Uiso   1.00
N814   N     0.36598   0.91870   0.26306   0.00000  Uiso   1.00
O815   O     0.39428   0.92247   0.29666   0.00000  Uiso   1.00
O816   O     0.34342   0.95460   0.24908   0.00000  Uiso   1.00
O817   O     0.77226   0.87154   0.25000   0.00000  Uiso   1.00
O818   O     0.89441   0.79513   0.25001   0.00000  Uiso   1.00
O819   O     0.89441   0.87154   0.25001   0.00000  Uiso   1.00
O820   O     0.77226   0.79513   0.25000   0.00000  Uiso   1.00
N821   N     0.83333   0.95240   0.25000   0.00000  Uiso   1.00
N822   N     0.83333   0.71427   0.25000   0.00000  Uiso   1.00
C823   C     0.75402   0.83419   0.25509   0.00000  Uiso   1.00
C824   C     0.91338   0.83216   0.24765   0.00000  Uiso   1.00
O825   O     0.83333   0.87155   0.18453   0.00000  Uiso   1.00
O826   O     0.83334   0.79511   0.31547   0.00000  Uiso   1.00
O827   O     0.83334   0.87155   0.31547   0.00000  Uiso   1.00
O828   O     0.83333   0.79511   0.18453   0.00000  Uiso   1.00
C829   C     0.83607   0.83384   0.16419   0.00000  Uiso   1.00
C830   C     0.83217   0.83296   0.33603   0.00000  Uiso   1.00
Zn831  Zn    0.83333   0.88437   0.25000   0.00000  Uiso   1.00
Zn832  Zn    0.83333   0.78229   0.25000   0.00000  Uiso   1.00
C833   C     0.86013   0.68759   0.28015   0.00000  Uiso   1.00
C834   C     0.80360   0.97867   0.22344   0.00000  Uiso   1.00
C835   C     0.80612   0.69288   0.22060   0.00000  Uiso   1.00
C836   C     0.86274   0.97342   0.27661   0.00000  Uiso   1.00
C837   C     0.69253   0.79483   0.27334   0.00000  Uiso   1.00
C838   C     0.97692   0.86973   0.23599   0.00000  Uiso   1.00
C839   C     0.98306   0.79113   0.26312   0.00000  Uiso   1.00
C840   C     0.68503   0.87484   0.25215   0.00000  Uiso   1.00
C841   C     0.86030   0.87490   0.04996   0.00000  Uiso   1.00
C842   C     0.86701   0.80399   0.45515   0.00000  Uiso   1.00
C843   C     0.82117   0.87210   0.45181   0.00000  Uiso   1.00
C844   C     0.83729   0.79825   0.04647   0.00000  Uiso   1.00
C845   C     0.85467   0.87491   0.09562   0.00000  Uiso   1.00
C846   C     0.85411   0.79781   0.41057   0.00000  Uiso   1.00
C847   C     0.81650   0.87084   0.40500   0.00000  Uiso   1.00
C848   C     0.83997   0.79557   0.09260   0.00000  Uiso   1.00
C849   C     0.84341   0.83498   0.11690   0.00000  Uiso   1.00
C850   C     0.83304   0.83310   0.38451   0.00000  Uiso   1.00
C851   C     0.84892   0.83753   0.02510   0.00000  Uiso   1.00
C852   C     0.84781   0.83949   0.47663   0.00000  Uiso   1.00
C853   C     0.95836   0.82965   0.24622   0.00000  Uiso   1.00
C854   C     0.71036   0.83565   0.26360   0.00000  Uiso   1.00
N855   N     0.88400   0.70595   0.31791   0.00000  Uiso   1.00
O856   O     0.89780   0.74576   0.31634   0.00000  Uiso   1.00
O857   O     0.89391   0.68174   0.35449   0.00000  Uiso   1.00
N858   N     0.76812   0.95928   0.19962   0.00000  Uiso   1.00
O859   O     0.77290   0.92579   0.17398   0.00000  Uiso   1.00
O860   O     0.73176   0.98081   0.19613   0.00000  Uiso   1.00
N861   N     0.78093   0.71760   0.18508   0.00000  Uiso   1.00
O862   O     0.74739   0.74025   0.19371   0.00000  Uiso   1.00
O863   O     0.78222   0.70416   0.14452   0.00000  Uiso   1.00
N864   N     0.89759   0.94791   0.30014   0.00000  Uiso   1.00
O865   O     0.89202   0.92275   0.33475   0.00000  Uiso   1.00
O866   O     0.93532   0.95988   0.29554   0.00000  Uiso   1.00
O867   O     0.87353   0.91282   0.02911   0.00000  Uiso   1.00
C868   C     0.91740   0.90905   0.02935   0.00000  Uiso   1.00
H869   H     0.92647   0.88536   0.00385   0.00000  Uiso   1.00
H870   H     0.93350   0.89893   0.06296   0.00000  Uiso   1.00
H871   H     0.92845   0.94236   0.02009   0.00000  Uiso   1.00
O872   O     0.89254   0.77061   0.47842   0.00000  Uiso   1.00
C873   C     0.93208   0.78735   0.49108   0.00000  Uiso   1.00
H874   H     0.93106   0.80756   0.02134   0.00000  Uiso   1.00
H875   H     0.94419   0.80704   0.46347   0.00000  Uiso   1.00
H876   H     0.95469   0.75846  -0.00000   0.00000  Uiso   1.00
O877   O     0.80065   0.90583   0.47304   0.00000  Uiso   1.00
C878   C     0.76027   0.89250   0.48005   0.00000  Uiso   1.00
H879   H     0.76199   0.86537   0.00634   0.00000  Uiso   1.00
H880   H     0.74259   0.88191   0.44870   0.00000  Uiso   1.00
H881   H     0.74240   0.92157   0.49217   0.00000  Uiso   1.00
O882   O     0.82667   0.76064   0.02292   0.00000  Uiso   1.00
C883   C     0.78290   0.76211   0.01247   0.00000  Uiso   1.00
H884   H     0.77274   0.78899   0.48680   0.00000  Uiso   1.00
H885   H     0.76590   0.76642   0.04269   0.00000  Uiso   1.00
H886   H     0.77415   0.72975   0.49797   0.00000  Uiso   1.00
O887   O     0.86528   0.91159   0.12077   0.00000  Uiso   1.00
C888   C     0.83823   0.94919   0.10700   0.00000  Uiso   1.00
H889   H     0.80588   0.94031   0.09469   0.00000  Uiso   1.00
H890   H     0.85171   0.96980   0.08126   0.00000  Uiso   1.00
H891   H     0.83579   0.97039   0.13624   0.00000  Uiso   1.00
O892   O     0.86021   0.75625   0.39313   0.00000  Uiso   1.00
C893   C     0.82803   0.72902   0.40531   0.00000  Uiso   1.00
H894   H     0.79733   0.74772   0.40700   0.00000  Uiso   1.00
H895   H     0.83792   0.71115   0.43784   0.00000  Uiso   1.00
H896   H     0.82234   0.70375   0.37959   0.00000  Uiso   1.00
O897   O     0.79060   0.90231   0.37926   0.00000  Uiso   1.00
C898   C     0.80548   0.94578   0.38424   0.00000  Uiso   1.00
H899   H     0.83981   0.94625   0.39423   0.00000  Uiso   1.00
H900   H     0.78808   0.96404   0.40875   0.00000  Uiso   1.00
H901   H     0.79905   0.96439   0.35160   0.00000  Uiso   1.00
O902   O     0.83776   0.75411   0.11337   0.00000  Uiso   1.00
C903   C     0.87875   0.73442   0.12139   0.00000  Uiso   1.00
H904   H     0.90028   0.75658   0.14073   0.00000  Uiso   1.00
H905   H     0.89136   0.72559   0.08948   0.00000  Uiso   1.00
H906   H     0.87778   0.70305   0.14180   0.00000  Uiso   1.00
N907   N     0.71793   0.75779   0.29492   0.00000  Uiso   1.00
O908   O     0.74232   0.76412   0.33112   0.00000  Uiso   1.00
O909   O     0.71930   0.71879   0.27681   0.00000  Uiso   1.00
N910   N     0.95710   0.89955   0.20089   0.00000  Uiso   1.00
O911   O     0.95640   0.88737   0.15970   0.00000  Uiso   1.00
O912   O     0.93577   0.93575   0.20961   0.00000  Uiso   1.00
N913   N     0.96594   0.74774   0.26656   0.00000  Uiso   1.00
O914   O     0.94880   0.72991   0.23071   0.00000  Uiso   1.00
O915   O     0.97514   0.72247   0.30256   0.00000  Uiso   1.00
N916   N     0.69931   0.91870   0.26306   0.00000  Uiso   1.00
O917   O     0.72762   0.92247   0.29666   0.00000  Uiso   1.00
O918   O     0.67675   0.95460   0.24908   0.00000  Uiso   1.00
O919   O     0.10559   0.20487   0.75000   0.00000  Uiso   1.00
O920   O     0.22774   0.12846   0.75001   0.00000  Uiso   1.00
O921   O     0.22774   0.20487   0.75001   0.00000  Uiso   1.00
O922   O     0.10559   0.12846   0.75000   0.00000  Uiso   1.00
N923   N     0.16667   0.28573   0.75000   0.00000  Uiso   1.00
N924   N     0.16667   0.04760   0.75000   0.00000  Uiso   1.00
C925   C     0.08735   0.16752   0.75509   0.00000  Uiso   1.00
C926   C     0.24671   0.16549   0.74765   0.00000  Uiso   1.00
O927   O     0.16666   0.20489   0.68453   0.00000  Uiso   1.00
O928   O     0.16667   0.12845   0.81547   0.00000  Uiso   1.00
O929   O     0.16667   0.20489   0.81547   0.00000  Uiso   1.00
O930   O     0.16666   0.12845   0.68453   0.00000  Uiso   1.00
C931   C     0.16940   0.16718   0.66419   0.00000  Uiso   1.00
C932   C     0.16550   0.16629   0.83603   0.00000  Uiso   1.00
Zn933  Zn    0.16667   0.21771   0.75000   0.00000  Uiso   1.00
Zn934  Zn    0.16667   0.11563   0.75000   0.00000  Uiso   1.00
C935   C     0.19346   0.02093   0.78015   0.00000  Uiso   1.00
C936   C     0.13693   0.31200   0.72344   0.00000  Uiso   1.00
C937   C     0.13946   0.02621   0.72060   0.00000  Uiso   1.00
C938   C     0.19608   0.30675   0.77661   0.00000  Uiso   1.00
C939   C     0.02586   0.12817   0.77334   0.00000  Uiso   1.00
C940   C     0.31026   0.20306   0.73599   0.00000  Uiso   1.00
C941   C     0.31639   0.12446   0.76312   0.00000  Uiso   1.00
C942   C     0.01837   0.20818   0.75215   0.00000  Uiso   1.00
C943   C     0.19363   0.20823   0.54996   0.00000  Uiso   1.00
C944   C     0.20034   0.13732   0.95515   0.00000  Uiso   1.00
C945   C     0.15450   0.20544   0.95181   0.00000  Uiso   1.00
C946   C     0.17062   0.13158   0.54647   0.00000  Uiso   1.00
C947   C     0.18801   0.20824   0.59562   0.00000  Uiso   1.00
C948   C     0.18745   0.13115   0.91057   0.00000  Uiso   1.00
C949   C     0.14983   0.20417   0.90500   0.00000  Uiso   1.00
C950   C     0.17330   0.12890   0.59260   0.00000  Uiso   1.00
C951   C     0.17675   0.16831   0.61690   0.00000  Uiso   1.00
C952   C     0.16638   0.16643   0.88451   0.00000  Uiso   1.00
C953   C     0.18226   0.17087   0.52510   0.00000  Uiso   1.00
C954   C     0.18114   0.17282   0.97663   0.00000  Uiso   1.00
C955   C     0.29169   0.16298   0.74622   0.00000  Uiso   1.00
C956   C     0.04369   0.16898   0.76360   0.00000  Uiso   1.00
N957   N     0.21733   0.03929   0.81791   0.00000  Uiso   1.00
O958   O     0.23113   0.07909   0.81634   0.00000  Uiso   1.00
O959   O     0.22724   0.01508   0.85449   0.00000  Uiso   1.00
N960   N     0.10146   0.29261   0.69962   0.00000  Uiso   1.00
O961   O     0.10623   0.25912   0.67398   0.00000  Uiso   1.00
O962   O     0.06510   0.31415   0.69613   0.00000  Uiso   1.00
N963   N     0.11426   0.05093   0.68508   0.00000  Uiso   1.00
O964   O     0.08072   0.07358   0.69371   0.00000  Uiso   1.00
O965   O     0.11555   0.03749   0.64452   0.00000  Uiso   1.00
N966   N     0.23092   0.28124   0.80014   0.00000  Uiso   1.00
O967   O     0.22536   0.25608   0.83475   0.00000  Uiso   1.00
O968   O     0.26866   0.29322   0.79554   0.00000  Uiso   1.00
O969   O     0.20686   0.24616   0.52911   0.00000  Uiso   1.00
C970   C     0.25074   0.24239   0.52935   0.00000  Uiso   1.00
H971   H     0.25980   0.21869   0.50385   0.00000  Uiso   1.00
H972   H     0.26684   0.23227   0.56296   0.00000  Uiso   1.00
H973   H     0.26178   0.27569   0.52009   0.00000  Uiso   1.00
O974   O     0.22587   0.10394   0.97842   0.00000  Uiso   1.00
C975   C     0.26541   0.12068   0.99108   0.00000  Uiso   1.00
H976   H     0.26439   0.14089   0.52134   0.00000  Uiso   1.00
H977   H     0.27752   0.14037   0.96347   0.00000  Uiso   1.00
H978   H     0.28803   0.09180   0.50000   0.00000  Uiso   1.00
O979   O     0.13398   0.23916   0.97304   0.00000  Uiso   1.00
C980   C     0.09361   0.22583   0.98005   0.00000  Uiso   1.00
H981   H     0.09532   0.19871   0.50634   0.00000  Uiso   1.00
H982   H     0.07592   0.21524   0.94870   0.00000  Uiso   1.00
H983   H     0.07574   0.25491   0.99217   0.00000  Uiso   1.00
O984   O     0.16000   0.09398   0.52292   0.00000  Uiso   1.00
C985   C     0.11623   0.09544   0.51247   0.00000  Uiso   1.00
H986   H     0.10608   0.12232   0.98680   0.00000  Uiso   1.00
H987   H     0.09924   0.09976   0.54269   0.00000  Uiso   1.00
H988   H     0.10748   0.06309   0.99797   0.00000  Uiso   1.00
O989   O     0.19861   0.24492   0.62077   0.00000  Uiso   1.00
C990   C     0.17156   0.28252   0.60700   0.00000  Uiso   1.00
H991   H     0.13921   0.27364   0.59469   0.00000  Uiso   1.00
H992   H     0.18505   0.30314   0.58126   0.00000  Uiso   1.00
H993   H     0.16913   0.30372   0.63624   0.00000  Uiso   1.00
O994   O     0.19354   0.08959   0.89313   0.00000  Uiso   1.00
C995   C     0.16136   0.06236   0.90531   0.00000  Uiso   1.00
H996   H     0.13067   0.08106   0.90700   0.00000  Uiso   1.00
H997   H     0.17125   0.04448   0.93784   0.00000  Uiso   1.00
H998   H     0.15567   0.03708   0.87959   0.00000  Uiso   1.00
O999   O     0.12393   0.23564   0.87926   0.00000  Uiso   1.00
C1000  C     0.13881   0.27912   0.88424   0.00000  Uiso   1.00
H1001  H     0.17314   0.27959   0.89423   0.00000  Uiso   1.00
H1002  H     0.12142   0.29737   0.90875   0.00000  Uiso   1.00
H1003  H     0.13238   0.29773   0.85160   0.00000  Uiso   1.00
O1004  O     0.17110   0.08744   0.61337   0.00000  Uiso   1.00
C1005  C     0.21209   0.06776   0.62139   0.00000  Uiso   1.00
H1006  H     0.23361   0.08991   0.64073   0.00000  Uiso   1.00
H1007  H     0.22469   0.05893   0.58948   0.00000  Uiso   1.00
H1008  H     0.21111   0.03638   0.64180   0.00000  Uiso   1.00
N1009  N     0.05126   0.09112   0.79492   0.00000  Uiso   1.00
O1010  O     0.07565   0.09745   0.83112   0.00000  Uiso   1.00
O1011  O     0.05263   0.05212   0.77681   0.00000  Uiso   1.00
N1012  N     0.29043   0.23288   0.70089   0.00000  Uiso   1.00
O1013  O     0.28973   0.22070   0.65970   0.00000  Uiso   1.00
O1014  O     0.26910   0.26909   0.70961   0.00000  Uiso   1.00
N1015  N     0.29927   0.08107   0.76656   0.00000  Uiso   1.00
O1016  O     0.28213   0.06324   0.73071   0.00000  Uiso   1.00
O1017  O     0.30848   0.05580   0.80256   0.00000  Uiso   1.00
N1018  N     0.03265   0.25204   0.76306   0.00000  Uiso   1.00
O1019  O     0.06095   0.25581   0.79666   0.00000  Uiso   1.00
O1020  O     0.01008   0.28793   0.74908   0.00000  Uiso   1.00
O1021  O     0.43892   0.20487   0.75000   0.00000  Uiso   1.00
O1022  O     0.56108   0.12846   0.75001   0.00000  Uiso   1.00
O1023  O     0.56108   0.20487   0.75001   0.00000  Uiso   1.00
O1024  O     0.43892   0.12846   0.75000   0.00000  Uiso   1.00
N1025  N     0.50000   0.28573   0.75000   0.00000  Uiso   1.00
N1026  N     0.50000   0.04760   0.75000   0.00000  Uiso   1.00
C1027  C     0.42068   0.16752   0.75509   0.00000  Uiso   1.00
C1028  C     0.58005   0.16549   0.74765   0.00000  Uiso   1.00
O1029  O     0.50000   0.20489   0.68453   0.00000  Uiso   1.00
O1030  O     0.50000   0.12845   0.81547   0.00000  Uiso   1.00
O1031  O     0.50000   0.20489   0.81547   0.00000  Uiso   1.00
O1032  O     0.50000   0.12845   0.68453   0.00000  Uiso   1.00
C1033  C     0.50274   0.16718   0.66419   0.00000  Uiso   1.00
C1034  C     0.49884   0.16629   0.83603   0.00000  Uiso   1.00
Zn1035 Zn    0.50000   0.21771   0.75000   0.00000  Uiso   1.00
Zn1036 Zn    0.50000   0.11563   0.75000   0.00000  Uiso   1.00
C1037  C     0.52679   0.02093   0.78015   0.00000  Uiso   1.00
C1038  C     0.47027   0.31200   0.72344   0.00000  Uiso   1.00
C1039  C     0.47279   0.02621   0.72060   0.00000  Uiso   1.00
C1040  C     0.52941   0.30675   0.77661   0.00000  Uiso   1.00
C1041  C     0.35919   0.12817   0.77334   0.00000  Uiso   1.00
C1042  C     0.64359   0.20306   0.73599   0.00000  Uiso   1.00
C1043  C     0.64973   0.12446   0.76312   0.00000  Uiso   1.00
C1044  C     0.35170   0.20818   0.75215   0.00000  Uiso   1.00
C1045  C     0.52696   0.20823   0.54996   0.00000  Uiso   1.00
C1046  C     0.53367   0.13732   0.95515   0.00000  Uiso   1.00
C1047  C     0.48783   0.20544   0.95181   0.00000  Uiso   1.00
C1048  C     0.50395   0.13158   0.54647   0.00000  Uiso   1.00
C1049  C     0.52134   0.20824   0.59562   0.00000  Uiso   1.00
C1050  C     0.52078   0.13115   0.91057   0.00000  Uiso   1.00
C1051  C     0.48316   0.20417   0.90500   0.00000  Uiso   1.00
C1052  C     0.50664   0.12890   0.59260   0.00000  Uiso   1.00
C1053  C     0.51008   0.16831   0.61690   0.00000  Uiso   1.00
C1054  C     0.49971   0.16643   0.88451   0.00000  Uiso   1.00
C1055  C     0.51559   0.17087   0.52510   0.00000  Uiso   1.00
C1056  C     0.51448   0.17282   0.97663   0.00000  Uiso   1.00
C1057  C     0.62502   0.16298   0.74622   0.00000  Uiso   1.00
C1058  C     0.37703   0.16898   0.76360   0.00000  Uiso   1.00
N1059  N     0.55066   0.03929   0.81791   0.00000  Uiso   1.00
O1060  O     0.56447   0.07909   0.81634   0.00000  Uiso   1.00
O1061  O     0.56058   0.01508   0.85449   0.00000  Uiso   1.00
N1062  N     0.43479   0.29261   0.69962   0.00000  Uiso   1.00
O1063  O     0.43956   0.25912   0.67398   0.00000  Uiso   1.00
O1064  O     0.39843   0.31415   0.69613   0.00000  Uiso   1.00
N1065  N     0.44760   0.05093   0.68508   0.00000  Uiso   1.00
O1066  O     0.41405   0.07358   0.69371   0.00000  Uiso   1.00
O1067  O     0.44888   0.03749   0.64452   0.00000  Uiso   1.00
N1068  N     0.56425   0.28124   0.80014   0.00000  Uiso   1.00
O1069  O     0.55869   0.25608   0.83475   0.00000  Uiso   1.00
O1070  O     0.60199   0.29322   0.79554   0.00000  Uiso   1.00
O1071  O     0.54019   0.24616   0.52911   0.00000  Uiso   1.00
C1072  C     0.58407   0.24239   0.52935   0.00000  Uiso   1.00
H1073  H     0.59313   0.21869   0.50385   0.00000  Uiso   1.00
H1074  H     0.60017   0.23227   0.56296   0.00000  Uiso   1.00
H1075  H     0.59511   0.27569   0.52009   0.00000  Uiso   1.00
O1076  O     0.55920   0.10394   0.97842   0.00000  Uiso   1.00
C1077  C     0.59875   0.12068   0.99108   0.00000  Uiso   1.00
H1078  H     0.59772   0.14089   0.52134   0.00000  Uiso   1.00
H1079  H     0.61086   0.14037   0.96347   0.00000  Uiso   1.00
H1080  H     0.62136   0.09180   0.50000   0.00000  Uiso   1.00
O1081  O     0.46731   0.23916   0.97304   0.00000  Uiso   1.00
C1082  C     0.42694   0.22583   0.98005   0.00000  Uiso   1.00
H1083  H     0.42866   0.19871   0.50634   0.00000  Uiso   1.00
H1084  H     0.40926   0.21524   0.94870   0.00000  Uiso   1.00
H1085  H     0.40907   0.25491   0.99217   0.00000  Uiso   1.00
O1086  O     0.49333   0.09398   0.52292   0.00000  Uiso   1.00
C1087  C     0.44956   0.09544   0.51247   0.00000  Uiso   1.00
H1088  H     0.43941   0.12232   0.98680   0.00000  Uiso   1.00
H1089  H     0.43257   0.09976   0.54269   0.00000  Uiso   1.00
H1090  H     0.44081   0.06309   0.99797   0.00000  Uiso   1.00
O1091  O     0.53194   0.24492   0.62077   0.00000  Uiso   1.00
C1092  C     0.50490   0.28252   0.60700   0.00000  Uiso   1.00
H1093  H     0.47254   0.27364   0.59469   0.00000  Uiso   1.00
H1094  H     0.51838   0.30314   0.58126   0.00000  Uiso   1.00
H1095  H     0.50246   0.30372   0.63624   0.00000  Uiso   1.00
O1096  O     0.52688   0.08959   0.89313   0.00000  Uiso   1.00
C1097  C     0.49469   0.06236   0.90531   0.00000  Uiso   1.00
H1098  H     0.46400   0.08106   0.90700   0.00000  Uiso   1.00
H1099  H     0.50459   0.04448   0.93784   0.00000  Uiso   1.00
H1100  H     0.48900   0.03708   0.87959   0.00000  Uiso   1.00
O1101  O     0.45727   0.23564   0.87926   0.00000  Uiso   1.00
C1102  C     0.47214   0.27912   0.88424   0.00000  Uiso   1.00
H1103  H     0.50647   0.27959   0.89423   0.00000  Uiso   1.00
H1104  H     0.45475   0.29737   0.90875   0.00000  Uiso   1.00
H1105  H     0.46572   0.29773   0.85160   0.00000  Uiso   1.00
O1106  O     0.50443   0.08744   0.61337   0.00000  Uiso   1.00
C1107  C     0.54542   0.06776   0.62139   0.00000  Uiso   1.00
H1108  H     0.56695   0.08991   0.64073   0.00000  Uiso   1.00
H1109  H     0.55802   0.05893   0.58948   0.00000  Uiso   1.00
H1110  H     0.54445   0.03638   0.64180   0.00000  Uiso   1.00
N1111  N     0.38459   0.09112   0.79492   0.00000  Uiso   1.00
O1112  O     0.40898   0.09745   0.83112   0.00000  Uiso   1.00
O1113  O     0.38596   0.05212   0.77681   0.00000  Uiso   1.00
N1114  N     0.62376   0.23288   0.70089   0.00000  Uiso   1.00
O1115  O     0.62307   0.22070   0.65970   0.00000  Uiso   1.00
O1116  O     0.60244   0.26909   0.70961   0.00000  Uiso   1.00
N1117  N     0.63260   0.08107   0.76656   0.00000  Uiso   1.00
O1118  O     0.61546   0.06324   0.73071   0.00000  Uiso   1.00
O1119  O     0.64181   0.05580   0.80256   0.00000  Uiso   1.00
N1120  N     0.36598   0.25204   0.76306   0.00000  Uiso   1.00
O1121  O     0.39428   0.25581   0.79666   0.00000  Uiso   1.00
O1122  O     0.34342   0.28793   0.74908   0.00000  Uiso   1.00
O1123  O     0.77226   0.20487   0.75000   0.00000  Uiso   1.00
O1124  O     0.89441   0.12846   0.75001   0.00000  Uiso   1.00
O1125  O     0.89441   0.20487   0.75001   0.00000  Uiso   1.00
O1126  O     0.77226   0.12846   0.75000   0.00000  Uiso   1.00
N1127  N     0.83333   0.28573   0.75000   0.00000  Uiso   1.00
N1128  N     0.83333   0.04760   0.75000   0.00000  Uiso   1.00
C1129  C     0.75402   0.16752   0.75509   0.00000  Uiso   1.00
C1130  C     0.91338   0.16549   0.74765   0.00000  Uiso   1.00
O1131  O     0.83333   0.20489   0.68453   0.00000  Uiso   1.00
O1132  O     0.83334   0.12845   0.81547   0.00000  Uiso   1.00
O1133  O     0.83334   0.20489   0.81547   0.00000  Uiso   1.00
O1134  O     0.83333   0.12845   0.68453   0.00000  Uiso   1.00
C1135  C     0.83607   0.16718   0.66419   0.00000  Uiso   1.00
C1136  C     0.83217   0.16629   0.83603   0.00000  Uiso   1.00
Zn1137 Zn    0.83333   0.21771   0.75000   0.00000  Uiso   1.00
Zn1138 Zn    0.83333   0.11563   0.75000   0.00000  Uiso   1.00
C1139  C     0.86013   0.02093   0.78015   0.00000  Uiso   1.00
C1140  C     0.80360   0.31200   0.72344   0.00000  Uiso   1.00
C1141  C     0.80612   0.02621   0.72060   0.00000  Uiso   1.00
C1142  C     0.86274   0.30675   0.77661   0.00000  Uiso   1.00
C1143  C     0.69253   0.12817   0.77334   0.00000  Uiso   1.00
C1144  C     0.97692   0.20306   0.73599   0.00000  Uiso   1.00
C1145  C     0.98306   0.12446   0.76312   0.00000  Uiso   1.00
C1146  C     0.68503   0.20818   0.75215   0.00000  Uiso   1.00
C1147  C     0.86030   0.20823   0.54996   0.00000  Uiso   1.00
C1148  C     0.86701   0.13732   0.95515   0.00000  Uiso   1.00
C1149  C     0.82117   0.20544   0.95181   0.00000  Uiso   1.00
C1150  C     0.83729   0.13158   0.54647   0.00000  Uiso   1.00
C1151  C     0.85467   0.20824   0.59562   0.00000  Uiso   1.00
C1152  C     0.85411   0.13115   0.91057   0.00000  Uiso   1.00
C1153  C     0.81650   0.20417   0.90500   0.00000  Uiso   1.00
C1154  C     0.83997   0.12890   0.59260   0.00000  Uiso   1.00
C1155  C     0.84341   0.16831   0.61690   0.00000  Uiso   1.00
C1156  C     0.83304   0.16643   0.88451   0.00000  Uiso   1.00
C1157  C     0.84892   0.17087   0.52510   0.00000  Uiso   1.00
C1158  C     0.84781   0.17282   0.97663   0.00000  Uiso   1.00
C1159  C     0.95836   0.16298   0.74622   0.00000  Uiso   1.00
C1160  C     0.71036   0.16898   0.76360   0.00000  Uiso   1.00
N1161  N     0.88400   0.03929   0.81791   0.00000  Uiso   1.00
O1162  O     0.89780   0.07909   0.81634   0.00000  Uiso   1.00
O1163  O     0.89391   0.01508   0.85449   0.00000  Uiso   1.00
N1164  N     0.76812   0.29261   0.69962   0.00000  Uiso   1.00
O1165  O     0.77290   0.25912   0.67398   0.00000  Uiso   1.00
O1166  O     0.73176   0.31415   0.69613   0.00000  Uiso   1.00
N1167  N     0.78093   0.05093   0.68508   0.00000  Uiso   1.00
O1168  O     0.74739   0.07358   0.69371   0.00000  Uiso   1.00
O1169  O     0.78222   0.03749   0.64452   0.00000  Uiso   1.00
N1170  N     0.89759   0.28124   0.80014   0.00000  Uiso   1.00
O1171  O     0.89202   0.25608   0.83475   0.00000  Uiso   1.00
O1172  O     0.93532   0.29322   0.79554   0.00000  Uiso   1.00
O1173  O     0.87353   0.24616   0.52911   0.00000  Uiso   1.00
C1174  C     0.91740   0.24239   0.52935   0.00000  Uiso   1.00
H1175  H     0.92647   0.21869   0.50385   0.00000  Uiso   1.00
H1176  H     0.93350   0.23227   0.56296   0.00000  Uiso   1.00
H1177  H     0.92845   0.27569   0.52009   0.00000  Uiso   1.00
O1178  O     0.89254   0.10394   0.97842   0.00000  Uiso   1.00
C1179  C     0.93208   0.12068   0.99108   0.00000  Uiso   1.00
H1180  H     0.93106   0.14089   0.52134   0.00000  Uiso   1.00
H1181  H     0.94419   0.14037   0.96347   0.00000  Uiso   1.00
H1182  H     0.95469   0.09180   0.50000   0.00000  Uiso   1.00
O1183  O     0.80065   0.23916   0.97304   0.00000  Uiso   1.00
C1184  C     0.76027   0.22583   0.98005   0.00000  Uiso   1.00
H1185  H     0.76199   0.19871   0.50634   0.00000  Uiso   1.00
H1186  H     0.74259   0.21524   0.94870   0.00000  Uiso   1.00
H1187  H     0.74240   0.25491   0.99217   0.00000  Uiso   1.00
O1188  O     0.82667   0.09398   0.52292   0.00000  Uiso   1.00
C1189  C     0.78290   0.09544   0.51247   0.00000  Uiso   1.00
H1190  H     0.77274   0.12232   0.98680   0.00000  Uiso   1.00
H1191  H     0.76590   0.09976   0.54269   0.00000  Uiso   1.00
H1192  H     0.77415   0.06309   0.99797   0.00000  Uiso   1.00
O1193  O     0.86528   0.24492   0.62077   0.00000  Uiso   1.00
C1194  C     0.83823   0.28252   0.60700   0.00000  Uiso   1.00
H1195  H     0.80588   0.27364   0.59469   0.00000  Uiso   1.00
H1196  H     0.85171   0.30314   0.58126   0.00000  Uiso   1.00
H1197  H     0.83579   0.30372   0.63624   0.00000  Uiso   1.00
O1198  O     0.86021   0.08959   0.89313   0.00000  Uiso   1.00
C1199  C     0.82803   0.06236   0.90531   0.00000  Uiso   1.00
H1200  H     0.79733   0.08106   0.90700   0.00000  Uiso   1.00
H1201  H     0.83792   0.04448   0.93784   0.00000  Uiso   1.00
H1202  H     0.82234   0.03708   0.87959   0.00000  Uiso   1.00
O1203  O     0.79060   0.23564   0.87926   0.00000  Uiso   1.00
C1204  C     0.80548   0.27912   0.88424   0.00000  Uiso   1.00
H1205  H     0.83981   0.27959   0.89423   0.00000  Uiso   1.00
H1206  H     0.78808   0.29737   0.90875   0.00000  Uiso   1.00
H1207  H     0.79905   0.29773   0.85160   0.00000  Uiso   1.00
O1208  O     0.83776   0.08744   0.61337   0.00000  Uiso   1.00
C1209  C     0.87875   0.06776   0.62139   0.00000  Uiso   1.00
H1210  H     0.90028   0.08991   0.64073   0.00000  Uiso   1.00
H1211  H     0.89136   0.05893   0.58948   0.00000  Uiso   1.00
H1212  H     0.87778   0.03638   0.64180   0.00000  Uiso   1.00
N1213  N     0.71793   0.09112   0.79492   0.00000  Uiso   1.00
O1214  O     0.74232   0.09745   0.83112   0.00000  Uiso   1.00
O1215  O     0.71930   0.05212   0.77681   0.00000  Uiso   1.00
N1216  N     0.95710   0.23288   0.70089   0.00000  Uiso   1.00
O1217  O     0.95640   0.22070   0.65970   0.00000  Uiso   1.00
O1218  O     0.93577   0.26909   0.70961   0.00000  Uiso   1.00
N1219  N     0.96594   0.08107   0.76656   0.00000  Uiso   1.00
O1220  O     0.94880   0.06324   0.73071   0.00000  Uiso   1.00
O1221  O     0.97514   0.05580   0.80256   0.00000  Uiso   1.00
N1222  N     0.69931   0.25204   0.76306   0.00000  Uiso   1.00
O1223  O     0.72762   0.25581   0.79666   0.00000  Uiso   1.00
O1224  O     0.67675   0.28793   0.74908   0.00000  Uiso   1.00
O1225  O     0.10559   0.53821   0.75000   0.00000  Uiso   1.00
O1226  O     0.22774   0.46179   0.75001   0.00000  Uiso   1.00
O1227  O     0.22774   0.53821   0.75001   0.00000  Uiso   1.00
O1228  O     0.10559   0.46179   0.75000   0.00000  Uiso   1.00
N1229  N     0.16667   0.61907   0.75000   0.00000  Uiso   1.00
N1230  N     0.16667   0.38093   0.75000   0.00000  Uiso   1.00
C1231  C     0.08735   0.50086   0.75509   0.00000  Uiso   1.00
C1232  C     0.24671   0.49883   0.74765   0.00000  Uiso   1.00
O1233  O     0.16666   0.53822   0.68453   0.00000  Uiso   1.00
O1234  O     0.16667   0.46178   0.81547   0.00000  Uiso   1.00
O1235  O     0.16667   0.53822   0.81547   0.00000  Uiso   1.00
O1236  O     0.16666   0.46178   0.68453   0.00000  Uiso   1.00
C1237  C     0.16940   0.50051   0.66419   0.00000  Uiso   1.00
C1238  C     0.16550   0.49962   0.83603   0.00000  Uiso   1.00
Zn1239 Zn    0.16667   0.55104   0.75000   0.00000  Uiso   1.00
Zn1240 Zn    0.16667   0.44896   0.75000   0.00000  Uiso   1.00
C1241  C     0.19346   0.35426   0.78015   0.00000  Uiso   1.00
C1242  C     0.13693   0.64533   0.72344   0.00000  Uiso   1.00
C1243  C     0.13946   0.35955   0.72060   0.00000  Uiso   1.00
C1244  C     0.19608   0.64009   0.77661   0.00000  Uiso   1.00
C1245  C     0.02586   0.46150   0.77334   0.00000  Uiso   1.00
C1246  C     0.31026   0.53640   0.73599   0.00000  Uiso   1.00
C1247  C     0.31639   0.45779   0.76312   0.00000  Uiso   1.00
C1248  C     0.01837   0.54151   0.75215   0.00000  Uiso   1.00
C1249  C     0.19363   0.54156   0.54996   0.00000  Uiso   1.00
C1250  C     0.20034   0.47065   0.95515   0.00000  Uiso   1.00
C1251  C     0.15450   0.53877   0.95181   0.00000  Uiso   1.00
C1252  C     0.17062   0.46492   0.54647   0.00000  Uiso   1.00
C1253  C     0.18801   0.54158   0.59562   0.00000  Uiso   1.00
C1254  C     0.18745   0.46448   0.91057   0.00000  Uiso   1.00
C1255  C     0.14983   0.53751   0.90500   0.00000  Uiso   1.00
C1256  C     0.17330   0.46223   0.59260   0.00000  Uiso   1.00
C1257  C     0.17675   0.50164   0.61690   0.00000  Uiso   1.00
C1258  C     0.16638   0.49976   0.88451   0.00000  Uiso   1.00
C1259  C     0.18226   0.50420   0.52510   0.00000  Uiso   1.00
C1260  C     0.18114   0.50615   0.97663   0.00000  Uiso   1.00
C1261  C     0.29169   0.49632   0.74622   0.00000  Uiso   1.00
C1262  C     0.04369   0.50231   0.76360   0.00000  Uiso   1.00
N1263  N     0.21733   0.37262   0.81791   0.00000  Uiso   1.00
O1264  O     0.23113   0.41242   0.81634   0.00000  Uiso   1.00
O1265  O     0.22724   0.34841   0.85449   0.00000  Uiso   1.00
N1266  N     0.10146   0.62595   0.69962   0.00000  Uiso   1.00
O1267  O     0.10623   0.59245   0.67398   0.00000  Uiso   1.00
O1268  O     0.06510   0.64748   0.69613   0.00000  Uiso   1.00
N1269  N     0.11426   0.38427   0.68508   0.00000  Uiso   1.00
O1270  O     0.08072   0.40692   0.69371   0.00000  Uiso   1.00
O1271  O     0.11555   0.37083   0.64452   0.00000  Uiso   1.00
N1272  N     0.23092   0.61458   0.80014   0.00000  Uiso   1.00
O1273  O     0.22536   0.58942   0.83475   0.00000  Uiso   1.00
O1274  O     0.26866   0.62655   0.79554   0.00000  Uiso   1.00
O1275  O     0.20686   0.57949   0.52911   0.00000  Uiso   1.00
C1276  C     0.25074   0.57572   0.52935   0.00000  Uiso   1.00
H1277  H     0.25980   0.55202   0.50385   0.00000  Uiso   1.00
H1278  H     0.26684   0.56560   0.56296   0.00000  Uiso   1.00
H1279  H     0.26178   0.60903   0.52009   0.00000  Uiso   1.00
O1280  O     0.22587   0.43727   0.97842   0.00000  Uiso   1.00
C1281  C     0.26541   0.45401   0.99108   0.00000  Uiso   1.00
H1282  H     0.26439   0.47423   0.52134   0.00000  Uiso   1.00
H1283  H     0.27752   0.47371   0.96347   0.00000  Uiso   1.00
H1284  H     0.28803   0.42513   0.50000   0.00000  Uiso   1.00
O1285  O     0.13398   0.57250   0.97304   0.00000  Uiso   1.00
C1286  C     0.09361   0.55916   0.98005   0.00000  Uiso   1.00
H1287  H     0.09532   0.53204   0.50634   0.00000  Uiso   1.00
H1288  H     0.07592   0.54857   0.94870   0.00000  Uiso   1.00
H1289  H     0.07574   0.58824   0.99217   0.00000  Uiso   1.00
O1290  O     0.16000   0.42731   0.52292   0.00000  Uiso   1.00
C1291  C     0.11623   0.42877   0.51247   0.00000  Uiso   1.00
H1292  H     0.10608   0.45565   0.98680   0.00000  Uiso   1.00
H1293  H     0.09924   0.43309   0.54269   0.00000  Uiso   1.00
H1294  H     0.10748   0.39642   0.99797   0.00000  Uiso   1.00
O1295  O     0.19861   0.57825   0.62077   0.00000  Uiso   1.00
C1296  C     0.17156   0.61586   0.60700   0.00000  Uiso   1.00
H1297  H     0.13921   0.60697   0.59469   0.00000  Uiso   1.00
H1298  H     0.18505   0.63647   0.58126   0.00000  Uiso   1.00
H1299  H     0.16913   0.63705   0.63624   0.00000  Uiso   1.00
O1300  O     0.19354   0.42292   0.89313   0.00000  Uiso   1.00
C1301  C     0.16136   0.39569   0.90531   0.00000  Uiso   1.00
H1302  H     0.13067   0.41439   0.90700   0.00000  Uiso   1.00
H1303  H     0.17125   0.37782   0.93784   0.00000  Uiso   1.00
H1304  H     0.15567   0.37042   0.87959   0.00000  Uiso   1.00
O1305  O     0.12393   0.56897   0.87926   0.00000  Uiso   1.00
C1306  C     0.13881   0.61245   0.88424   0.00000  Uiso   1.00
H1307  H     0.17314   0.61292   0.89423   0.00000  Uiso   1.00
H1308  H     0.12142   0.63070   0.90875   0.00000  Uiso   1.00
H1309  H     0.13238   0.63106   0.85160   0.00000  Uiso   1.00
O1310  O     0.17110   0.42077   0.61337   0.00000  Uiso   1.00
C1311  C     0.21209   0.40109   0.62139   0.00000  Uiso   1.00
H1312  H     0.23361   0.42324   0.64073   0.00000  Uiso   1.00
H1313  H     0.22469   0.39226   0.58948   0.00000  Uiso   1.00
H1314  H     0.21111   0.36971   0.64180   0.00000  Uiso   1.00
N1315  N     0.05126   0.42446   0.79492   0.00000  Uiso   1.00
O1316  O     0.07565   0.43079   0.83112   0.00000  Uiso   1.00
O1317  O     0.05263   0.38546   0.77681   0.00000  Uiso   1.00
N1318  N     0.29043   0.56622   0.70089   0.00000  Uiso   1.00
O1319  O     0.28973   0.55404   0.65970   0.00000  Uiso   1.00
O1320  O     0.26910   0.60242   0.70961   0.00000  Uiso   1.00
N1321  N     0.29927   0.41441   0.76656   0.00000  Uiso   1.00
O1322  O     0.28213   0.39657   0.73071   0.00000  Uiso   1.00
O1323  O     0.30848   0.38913   0.80256   0.00000  Uiso   1.00
N1324  N     0.03265   0.58537   0.76306   0.00000  Uiso   1.00
O1325  O     0.06095   0.58914   0.79666   0.00000  Uiso   1.00
O1326  O     0.01008   0.62127   0.74908   0.00000  Uiso   1.00
O1327  O     0.43892   0.53821   0.75000   0.00000  Uiso   1.00
O1328  O     0.56108   0.46179   0.75001   0.00000  Uiso   1.00
O1329  O     0.56108   0.53821   0.75001   0.00000  Uiso   1.00
O1330  O     0.43892   0.46179   0.75000   0.00000  Uiso   1.00
N1331  N     0.50000   0.61907   0.75000   0.00000  Uiso   1.00
N1332  N     0.50000   0.38093   0.75000   0.00000  Uiso   1.00
C1333  C     0.42068   0.50086   0.75509   0.00000  Uiso   1.00
C1334  C     0.58005   0.49883   0.74765   0.00000  Uiso   1.00
O1335  O     0.50000   0.53822   0.68453   0.00000  Uiso   1.00
O1336  O     0.50000   0.46178   0.81547   0.00000  Uiso   1.00
O1337  O     0.50000   0.53822   0.81547   0.00000  Uiso   1.00
O1338  O     0.50000   0.46178   0.68453   0.00000  Uiso   1.00
C1339  C     0.50274   0.50051   0.66419   0.00000  Uiso   1.00
C1340  C     0.49884   0.49962   0.83603   0.00000  Uiso   1.00
Zn1341 Zn    0.50000   0.55104   0.75000   0.00000  Uiso   1.00
Zn1342 Zn    0.50000   0.44896   0.75000   0.00000  Uiso   1.00
C1343  C     0.52679   0.35426   0.78015   0.00000  Uiso   1.00
C1344  C     0.47027   0.64533   0.72344   0.00000  Uiso   1.00
C1345  C     0.47279   0.35955   0.72060   0.00000  Uiso   1.00
C1346  C     0.52941   0.64009   0.77661   0.00000  Uiso   1.00
C1347  C     0.35919   0.46150   0.77334   0.00000  Uiso   1.00
C1348  C     0.64359   0.53640   0.73599   0.00000  Uiso   1.00
C1349  C     0.64973   0.45779   0.76312   0.00000  Uiso   1.00
C1350  C     0.35170   0.54151   0.75215   0.00000  Uiso   1.00
C1351  C     0.52696   0.54156   0.54996   0.00000  Uiso   1.00
C1352  C     0.53367   0.47065   0.95515   0.00000  Uiso   1.00
C1353  C     0.48783   0.53877   0.95181   0.00000  Uiso   1.00
C1354  C     0.50395   0.46492   0.54647   0.00000  Uiso   1.00
C1355  C     0.52134   0.54158   0.59562   0.00000  Uiso   1.00
C1356  C     0.52078   0.46448   0.91057   0.00000  Uiso   1.00
C1357  C     0.48316   0.53751   0.90500   0.00000  Uiso   1.00
C1358  C     0.50664   0.46223   0.59260   0.00000  Uiso   1.00
C1359  C     0.51008   0.50164   0.61690   0.00000  Uiso   1.00
C1360  C     0.49971   0.49976   0.88451   0.00000  Uiso   1.00
C1361  C     0.51559   0.50420   0.52510   0.00000  Uiso   1.00
C1362  C     0.51448   0.50615   0.97663   0.00000  Uiso   1.00
C1363  C     0.62502   0.49632   0.74622   0.00000  Uiso   1.00
C1364  C     0.37703   0.50231   0.76360   0.00000  Uiso   1.00
N1365  N     0.55066   0.37262   0.81791   0.00000  Uiso   1.00
O1366  O     0.56447   0.41242   0.81634   0.00000  Uiso   1.00
O1367  O     0.56058   0.34841   0.85449   0.00000  Uiso   1.00
N1368  N     0.43479   0.62595   0.69962   0.00000  Uiso   1.00
O1369  O     0.43956   0.59245   0.67398   0.00000  Uiso   1.00
O1370  O     0.39843   0.64748   0.69613   0.00000  Uiso   1.00
N1371  N     0.44760   0.38427   0.68508   0.00000  Uiso   1.00
O1372  O     0.41405   0.40692   0.69371   0.00000  Uiso   1.00
O1373  O     0.44888   0.37083   0.64452   0.00000  Uiso   1.00
N1374  N     0.56425   0.61458   0.80014   0.00000  Uiso   1.00
O1375  O     0.55869   0.58942   0.83475   0.00000  Uiso   1.00
O1376  O     0.60199   0.62655   0.79554   0.00000  Uiso   1.00
O1377  O     0.54019   0.57949   0.52911   0.00000  Uiso   1.00
C1378  C     0.58407   0.57572   0.52935   0.00000  Uiso   1.00
H1379  H     0.59313   0.55202   0.50385   0.00000  Uiso   1.00
H1380  H     0.60017   0.56560   0.56296   0.00000  Uiso   1.00
H1381  H     0.59511   0.60903   0.52009   0.00000  Uiso   1.00
O1382  O     0.55920   0.43727   0.97842   0.00000  Uiso   1.00
C1383  C     0.59875   0.45401   0.99108   0.00000  Uiso   1.00
H1384  H     0.59772   0.47423   0.52134   0.00000  Uiso   1.00
H1385  H     0.61086   0.47371   0.96347   0.00000  Uiso   1.00
H1386  H     0.62136   0.42513   0.50000   0.00000  Uiso   1.00
O1387  O     0.46731   0.57250   0.97304   0.00000  Uiso   1.00
C1388  C     0.42694   0.55916   0.98005   0.00000  Uiso   1.00
H1389  H     0.42866   0.53204   0.50634   0.00000  Uiso   1.00
H1390  H     0.40926   0.54857   0.94870   0.00000  Uiso   1.00
H1391  H     0.40907   0.58824   0.99217   0.00000  Uiso   1.00
O1392  O     0.49333   0.42731   0.52292   0.00000  Uiso   1.00
C1393  C     0.44956   0.42877   0.51247   0.00000  Uiso   1.00
H1394  H     0.43941   0.45565   0.98680   0.00000  Uiso   1.00
H1395  H     0.43257   0.43309   0.54269   0.00000  Uiso   1.00
H1396  H     0.44081   0.39642   0.99797   0.00000  Uiso   1.00
O1397  O     0.53194   0.57825   0.62077   0.00000  Uiso   1.00
C1398  C     0.50490   0.61586   0.60700   0.00000  Uiso   1.00
H1399  H     0.47254   0.60697   0.59469   0.00000  Uiso   1.00
H1400  H     0.51838   0.63647   0.58126   0.00000  Uiso   1.00
H1401  H     0.50246   0.63705   0.63624   0.00000  Uiso   1.00
O1402  O     0.52688   0.42292   0.89313   0.00000  Uiso   1.00
C1403  C     0.49469   0.39569   0.90531   0.00000  Uiso   1.00
H1404  H     0.46400   0.41439   0.90700   0.00000  Uiso   1.00
H1405  H     0.50459   0.37782   0.93784   0.00000  Uiso   1.00
H1406  H     0.48900   0.37042   0.87959   0.00000  Uiso   1.00
O1407  O     0.45727   0.56897   0.87926   0.00000  Uiso   1.00
C1408  C     0.47214   0.61245   0.88424   0.00000  Uiso   1.00
H1409  H     0.50647   0.61292   0.89423   0.00000  Uiso   1.00
H1410  H     0.45475   0.63070   0.90875   0.00000  Uiso   1.00
H1411  H     0.46572   0.63106   0.85160   0.00000  Uiso   1.00
O1412  O     0.50443   0.42077   0.61337   0.00000  Uiso   1.00
C1413  C     0.54542   0.40109   0.62139   0.00000  Uiso   1.00
H1414  H     0.56695   0.42324   0.64073   0.00000  Uiso   1.00
H1415  H     0.55802   0.39226   0.58948   0.00000  Uiso   1.00
H1416  H     0.54445   0.36971   0.64180   0.00000  Uiso   1.00
N1417  N     0.38459   0.42446   0.79492   0.00000  Uiso   1.00
O1418  O     0.40898   0.43079   0.83112   0.00000  Uiso   1.00
O1419  O     0.38596   0.38546   0.77681   0.00000  Uiso   1.00
N1420  N     0.62376   0.56622   0.70089   0.00000  Uiso   1.00
O1421  O     0.62307   0.55404   0.65970   0.00000  Uiso   1.00
O1422  O     0.60244   0.60242   0.70961   0.00000  Uiso   1.00
N1423  N     0.63260   0.41441   0.76656   0.00000  Uiso   1.00
O1424  O     0.61546   0.39657   0.73071   0.00000  Uiso   1.00
O1425  O     0.64181   0.38913   0.80256   0.00000  Uiso   1.00
N1426  N     0.36598   0.58537   0.76306   0.00000  Uiso   1.00
O1427  O     0.39428   0.58914   0.79666   0.00000  Uiso   1.00
O1428  O     0.34342   0.62127   0.74908   0.00000  Uiso   1.00
O1429  O     0.77226   0.53821   0.75000   0.00000  Uiso   1.00
O1430  O     0.89441   0.46179   0.75001   0.00000  Uiso   1.00
O1431  O     0.89441   0.53821   0.75001   0.00000  Uiso   1.00
O1432  O     0.77226   0.46179   0.75000   0.00000  Uiso   1.00
N1433  N     0.83333   0.61907   0.75000   0.00000  Uiso   1.00
N1434  N     0.83333   0.38093   0.75000   0.00000  Uiso   1.00
C1435  C     0.75402   0.50086   0.75509   0.00000  Uiso   1.00
C1436  C     0.91338   0.49883   0.74765   0.00000  Uiso   1.00
O1437  O     0.83333   0.53822   0.68453   0.00000  Uiso   1.00
O1438  O     0.83334   0.46178   0.81547   0.00000  Uiso   1.00
O1439  O     0.83334   0.53822   0.81547   0.00000  Uiso   1.00
O1440  O     0.83333   0.46178   0.68453   0.00000  Uiso   1.00
C1441  C     0.83607   0.50051   0.66419   0.00000  Uiso   1.00
C1442  C     0.83217   0.49962   0.83603   0.00000  Uiso   1.00
Zn1443 Zn    0.83333   0.55104   0.75000   0.00000  Uiso   1.00
Zn1444 Zn    0.83333   0.44896   0.75000   0.00000  Uiso   1.00
C1445  C     0.86013   0.35426   0.78015   0.00000  Uiso   1.00
C1446  C     0.80360   0.64533   0.72344   0.00000  Uiso   1.00
C1447  C     0.80612   0.35955   0.72060   0.00000  Uiso   1.00
C1448  C     0.86274   0.64009   0.77661   0.00000  Uiso   1.00
C1449  C     0.69253   0.46150   0.77334   0.00000  Uiso   1.00
C1450  C     0.97692   0.53640   0.73599   0.00000  Uiso   1.00
C1451  C     0.98306   0.45779   0.76312   0.00000  Uiso   1.00
C1452  C     0.68503   0.54151   0.75215   0.00000  Uiso   1.00
C1453  C     0.86030   0.54156   0.54996   0.00000  Uiso   1.00
C1454  C     0.86701   0.47065   0.95515   0.00000  Uiso   1.00
C1455  C     0.82117   0.53877   0.95181   0.00000  Uiso   1.00
C1456  C     0.83729   0.46492   0.54647   0.00000  Uiso   1.00
C1457  C     0.85467   0.54158   0.59562   0.00000  Uiso   1.00
C1458  C     0.85411   0.46448   0.91057   0.00000  Uiso   1.00
C1459  C     0.81650   0.53751   0.90500   0.00000  Uiso   1.00
C1460  C     0.83997   0.46223   0.59260   0.00000  Uiso   1.00
C1461  C     0.84341   0.50164   0.61690   0.00000  Uiso   1.00
C1462  C     0.83304   0.49976   0.88451   0.00000  Uiso   1.00
C1463  C     0.84892   0.50420   0.52510   0.00000  Uiso   1.00
C1464  C     0.84781   0.50615   0.97663   0.00000  Uiso   1.00
C1465  C     0.95836   0.49632   0.74622   0.00000  Uiso   1.00
C1466  C     0.71036   0.50231   0.76360   0.00000  Uiso   1.00
N1467  N     0.88400   0.37262   0.81791   0.00000  Uiso   1.00
O1468  O     0.89780   0.41242   0.81634   0.00000  Uiso   1.00
O1469  O     0.89391   0.34841   0.85449   0.00000  Uiso   1.00
N1470  N     0.76812   0.62595   0.69962   0.00000  Uiso   1.00
O1471  O     0.77290   0.59245   0.67398   0.00000  Uiso   1.00
O1472  O     0.73176   0.64748   0.69613   0.00000  Uiso   1.00
N1473  N     0.78093   0.38427   0.68508   0.00000  Uiso   1.00
O1474  O     0.74739   0.40692   0.69371   0.00000  Uiso   1.00
O1475  O     0.78222   0.37083   0.64452   0.00000  Uiso   1.00
N1476  N     0.89759   0.61458   0.80014   0.00000  Uiso   1.00
O1477  O     0.89202   0.58942   0.83475   0.00000  Uiso   1.00
O1478  O     0.93532   0.62655   0.79554   0.00000  Uiso   1.00
O1479  O     0.87353   0.57949   0.52911   0.00000  Uiso   1.00
C1480  C     0.91740   0.57572   0.52935   0.00000  Uiso   1.00
H1481  H     0.92647   0.55202   0.50385   0.00000  Uiso   1.00
H1482  H     0.93350   0.56560   0.56296   0.00000  Uiso   1.00
H1483  H     0.92845   0.60903   0.52009   0.00000  Uiso   1.00
O1484  O     0.89254   0.43727   0.97842   0.00000  Uiso   1.00
C1485  C     0.93208   0.45401   0.99108   0.00000  Uiso   1.00
H1486  H     0.93106   0.47423   0.52134   0.00000  Uiso   1.00
H1487  H     0.94419   0.47371   0.96347   0.00000  Uiso   1.00
H1488  H     0.95469   0.42513   0.50000   0.00000  Uiso   1.00
O1489  O     0.80065   0.57250   0.97304   0.00000  Uiso   1.00
C1490  C     0.76027   0.55916   0.98005   0.00000  Uiso   1.00
H1491  H     0.76199   0.53204   0.50634   0.00000  Uiso   1.00
H1492  H     0.74259   0.54857   0.94870   0.00000  Uiso   1.00
H1493  H     0.74240   0.58824   0.99217   0.00000  Uiso   1.00
O1494  O     0.82667   0.42731   0.52292   0.00000  Uiso   1.00
C1495  C     0.78290   0.42877   0.51247   0.00000  Uiso   1.00
H1496  H     0.77274   0.45565   0.98680   0.00000  Uiso   1.00
H1497  H     0.76590   0.43309   0.54269   0.00000  Uiso   1.00
H1498  H     0.77415   0.39642   0.99797   0.00000  Uiso   1.00
O1499  O     0.86528   0.57825   0.62077   0.00000  Uiso   1.00
C1500  C     0.83823   0.61586   0.60700   0.00000  Uiso   1.00
H1501  H     0.80588   0.60697   0.59469   0.00000  Uiso   1.00
H1502  H     0.85171   0.63647   0.58126   0.00000  Uiso   1.00
H1503  H     0.83579   0.63705   0.63624   0.00000  Uiso   1.00
O1504  O     0.86021   0.42292   0.89313   0.00000  Uiso   1.00
C1505  C     0.82803   0.39569   0.90531   0.00000  Uiso   1.00
H1506  H     0.79733   0.41439   0.90700   0.00000  Uiso   1.00
H1507  H     0.83792   0.37782   0.93784   0.00000  Uiso   1.00
H1508  H     0.82234   0.37042   0.87959   0.00000  Uiso   1.00
O1509  O     0.79060   0.56897   0.87926   0.00000  Uiso   1.00
C1510  C     0.80548   0.61245   0.88424   0.00000  Uiso   1.00
H1511  H     0.83981   0.61292   0.89423   0.00000  Uiso   1.00
H1512  H     0.78808   0.63070   0.90875   0.00000  Uiso   1.00
H1513  H     0.79905   0.63106   0.85160   0.00000  Uiso   1.00
O1514  O     0.83776   0.42077   0.61337   0.00000  Uiso   1.00
C1515  C     0.87875   0.40109   0.62139   0.00000  Uiso   1.00
H1516  H     0.90028   0.42324   0.64073   0.00000  Uiso   1.00
H1517  H     0.89136   0.39226   0.58948   0.00000  Uiso   1.00
H1518  H     0.87778   0.36971   0.64180   0.00000  Uiso   1.00
N1519  N     0.71793   0.42446   0.79492   0.00000  Uiso   1.00
O1520  O     0.74232   0.43079   0.83112   0.00000  Uiso   1.00
O1521  O     0.71930   0.38546   0.77681   0.00000  Uiso   1.00
N1522  N     0.95710   0.56622   0.70089   0.00000  Uiso   1.00
O1523  O     0.95640   0.55404   0.65970   0.00000  Uiso   1.00
O1524  O     0.93577   0.60242   0.70961   0.00000  Uiso   1.00
N1525  N     0.96594   0.41441   0.76656   0.00000  Uiso   1.00
O1526  O     0.94880   0.39657   0.73071   0.00000  Uiso   1.00
O1527  O     0.97514   0.38913   0.80256   0.00000  Uiso   1.00
N1528  N     0.69931   0.58537   0.76306   0.00000  Uiso   1.00
O1529  O     0.72762   0.58914   0.79666   0.00000  Uiso   1.00
O1530  O     0.67675   0.62127   0.74908   0.00000  Uiso   1.00
O1531  O     0.10559   0.87154   0.75000   0.00000  Uiso   1.00
O1532  O     0.22774   0.79513   0.75001   0.00000  Uiso   1.00
O1533  O     0.22774   0.87154   0.75001   0.00000  Uiso   1.00
O1534  O     0.10559   0.79513   0.75000   0.00000  Uiso   1.00
N1535  N     0.16667   0.95240   0.75000   0.00000  Uiso   1.00
N1536  N     0.16667   0.71427   0.75000   0.00000  Uiso   1.00
C1537  C     0.08735   0.83419   0.75509   0.00000  Uiso   1.00
C1538  C     0.24671   0.83216   0.74765   0.00000  Uiso   1.00
O1539  O     0.16666   0.87155   0.68453   0.00000  Uiso   1.00
O1540  O     0.16667   0.79511   0.81547   0.00000  Uiso   1.00
O1541  O     0.16667   0.87155   0.81547   0.00000  Uiso   1.00
O1542  O     0.16666   0.79511   0.68453   0.00000  Uiso   1.00
C1543  C     0.16940   0.83384   0.66419   0.00000  Uiso   1.00
C1544  C     0.16550   0.83296   0.83603   0.00000  Uiso   1.00
Zn1545 Zn    0.16667   0.88437   0.75000   0.00000  Uiso   1.00
Zn1546 Zn    0.16667   0.78229   0.75000   0.00000  Uiso   1.00
C1547  C     0.19346   0.68759   0.78015   0.00000  Uiso   1.00
C1548  C     0.13693   0.97867   0.72344   0.00000  Uiso   1.00
C1549  C     0.13946   0.69288   0.72060   0.00000  Uiso   1.00
C1550  C     0.19608   0.97342   0.77661   0.00000  Uiso   1.00
C1551  C     0.02586   0.79483   0.77334   0.00000  Uiso   1.00
C1552  C     0.31026   0.86973   0.73599   0.00000  Uiso   1.00
C1553  C     0.31639   0.79113   0.76312   0.00000  Uiso   1.00
C1554  C     0.01837   0.87484   0.75215   0.00000  Uiso   1.00
C1555  C     0.19363   0.87490   0.54996   0.00000  Uiso   1.00
C1556  C     0.20034   0.80399   0.95515   0.00000  Uiso   1.00
C1557  C     0.15450   0.87210   0.95181   0.00000  Uiso   1.00
C1558  C     0.17062   0.79825   0.54647   0.00000  Uiso   1.00
C1559  C     0.18801   0.87491   0.59562   0.00000  Uiso   1.00
C1560  C     0.18745   0.79781   0.91057   0.00000  Uiso   1.00
C1561  C     0.14983   0.87084   0.90500   0.00000  Uiso   1.00
C1562  C     0.17330   0.79557   0.59260   0.00000  Uiso   1.00
C1563  C     0.17675   0.83498   0.61690   0.00000  Uiso   1.00
C1564  C     0.16638   0.83310   0.88451   0.00000  Uiso   1.00
C1565  C     0.18226   0.83753   0.52510   0.00000  Uiso   1.00
C1566  C     0.18114   0.83949   0.97663   0.00000  Uiso   1.00
C1567  C     0.29169   0.82965   0.74622   0.00000  Uiso   1.00
C1568  C     0.04369   0.83565   0.76360   0.00000  Uiso   1.00
N1569  N     0.21733   0.70595   0.81791   0.00000  Uiso   1.00
O1570  O     0.23113   0.74576   0.81634   0.00000  Uiso   1.00
O1571  O     0.22724   0.68174   0.85449   0.00000  Uiso   1.00
N1572  N     0.10146   0.95928   0.69962   0.00000  Uiso   1.00
O1573  O     0.10623   0.92579   0.67398   0.00000  Uiso   1.00
O1574  O     0.06510   0.98081   0.69613   0.00000  Uiso   1.00
N1575  N     0.11426   0.71760   0.68508   0.00000  Uiso   1.00
O1576  O     0.08072   0.74025   0.69371   0.00000  Uiso   1.00
O1577  O     0.11555   0.70416   0.64452   0.00000  Uiso   1.00
N1578  N     0.23092   0.94791   0.80014   0.00000  Uiso   1.00
O1579  O     0.22536   0.92275   0.83475   0.00000  Uiso   1.00
O1580  O     0.26866   0.95988   0.79554   0.00000  Uiso   1.00
O1581  O     0.20686   0.91282   0.52911   0.00000  Uiso   1.00
C1582  C     0.25074   0.90905   0.52935   0.00000  Uiso   1.00
H1583  H     0.25980   0.88536   0.50385   0.00000  Uiso   1.00
H1584  H     0.26684   0.89893   0.56296   0.00000  Uiso   1.00
H1585  H     0.26178   0.94236   0.52009   0.00000  Uiso   1.00
O1586  O     0.22587   0.77061   0.97842   0.00000  Uiso   1.00
C1587  C     0.26541   0.78735   0.99108   0.00000  Uiso   1.00
H1588  H     0.26439   0.80756   0.52134   0.00000  Uiso   1.00
H1589  H     0.27752   0.80704   0.96347   0.00000  Uiso   1.00
H1590  H     0.28803   0.75846   0.50000   0.00000  Uiso   1.00
O1591  O     0.13398   0.90583   0.97304   0.00000  Uiso   1.00
C1592  C     0.09361   0.89250   0.98005   0.00000  Uiso   1.00
H1593  H     0.09532   0.86537   0.50634   0.00000  Uiso   1.00
H1594  H     0.07592   0.88191   0.94870   0.00000  Uiso   1.00
H1595  H     0.07574   0.92157   0.99217   0.00000  Uiso   1.00
O1596  O     0.16000   0.76064   0.52292   0.00000  Uiso   1.00
C1597  C     0.11623   0.76211   0.51247   0.00000  Uiso   1.00
H1598  H     0.10608   0.78899   0.98680   0.00000  Uiso   1.00
H1599  H     0.09924   0.76642   0.54269   0.00000  Uiso   1.00
H1600  H     0.10748   0.72975   0.99797   0.00000  Uiso   1.00
O1601  O     0.19861   0.91159   0.62077   0.00000  Uiso   1.00
C1602  C     0.17156   0.94919   0.60700   0.00000  Uiso   1.00
H1603  H     0.13921   0.94031   0.59469   0.00000  Uiso   1.00
H1604  H     0.18505   0.96980   0.58126   0.00000  Uiso   1.00
H1605  H     0.16913   0.97039   0.63624   0.00000  Uiso   1.00
O1606  O     0.19354   0.75625   0.89313   0.00000  Uiso   1.00
C1607  C     0.16136   0.72902   0.90531   0.00000  Uiso   1.00
H1608  H     0.13067   0.74772   0.90700   0.00000  Uiso   1.00
H1609  H     0.17125   0.71115   0.93784   0.00000  Uiso   1.00
H1610  H     0.15567   0.70375   0.87959   0.00000  Uiso   1.00
O1611  O     0.12393   0.90231   0.87926   0.00000  Uiso   1.00
C1612  C     0.13881   0.94578   0.88424   0.00000  Uiso   1.00
H1613  H     0.17314   0.94625   0.89423   0.00000  Uiso   1.00
H1614  H     0.12142   0.96404   0.90875   0.00000  Uiso   1.00
H1615  H     0.13238   0.96439   0.85160   0.00000  Uiso   1.00
O1616  O     0.17110   0.75411   0.61337   0.00000  Uiso   1.00
C1617  C     0.21209   0.73442   0.62139   0.00000  Uiso   1.00
H1618  H     0.23361   0.75658   0.64073   0.00000  Uiso   1.00
H1619  H     0.22469   0.72559   0.58948   0.00000  Uiso   1.00
H1620  H     0.21111   0.70305   0.64180   0.00000  Uiso   1.00
N1621  N     0.05126   0.75779   0.79492   0.00000  Uiso   1.00
O1622  O     0.07565   0.76412   0.83112   0.00000  Uiso   1.00
O1623  O     0.05263   0.71879   0.77681   0.00000  Uiso   1.00
N1624  N     0.29043   0.89955   0.70089   0.00000  Uiso   1.00
O1625  O     0.28973   0.88737   0.65970   0.00000  Uiso   1.00
O1626  O     0.26910   0.93575   0.70961   0.00000  Uiso   1.00
N1627  N     0.29927   0.74774   0.76656   0.00000  Uiso   1.00
O1628  O     0.28213   0.72991   0.73071   0.00000  Uiso   1.00
O1629  O     0.30848   0.72247   0.80256   0.00000  Uiso   1.00
N1630  N     0.03265   0.91870   0.76306   0.00000  Uiso   1.00
O1631  O     0.06095   0.92247   0.79666   0.00000  Uiso   1.00
O1632  O     0.01008   0.95460   0.74908   0.00000  Uiso   1.00
O1633  O     0.43892   0.87154   0.75000   0.00000  Uiso   1.00
O1634  O     0.56108   0.79513   0.75001   0.00000  Uiso   1.00
O1635  O     0.56108   0.87154   0.75001   0.00000  Uiso   1.00
O1636  O     0.43892   0.79513   0.75000   0.00000  Uiso   1.00
N1637  N     0.50000   0.95240   0.75000   0.00000  Uiso   1.00
N1638  N     0.50000   0.71427   0.75000   0.00000  Uiso   1.00
C1639  C     0.42068   0.83419   0.75509   0.00000  Uiso   1.00
C1640  C     0.58005   0.83216   0.74765   0.00000  Uiso   1.00
O1641  O     0.50000   0.87155   0.68453   0.00000  Uiso   1.00
O1642  O     0.50000   0.79511   0.81547   0.00000  Uiso   1.00
O1643  O     0.50000   0.87155   0.81547   0.00000  Uiso   1.00
O1644  O     0.50000   0.79511   0.68453   0.00000  Uiso   1.00
C1645  C     0.50274   0.83384   0.66419   0.00000  Uiso   1.00
C1646  C     0.49884   0.83296   0.83603   0.00000  Uiso   1.00
Zn1647 Zn    0.50000   0.88437   0.75000   0.00000  Uiso   1.00
Zn1648 Zn    0.50000   0.78229   0.75000   0.00000  Uiso   1.00
C1649  C     0.52679   0.68759   0.78015   0.00000  Uiso   1.00
C1650  C     0.47027   0.97867   0.72344   0.00000  Uiso   1.00
C1651  C     0.47279   0.69288   0.72060   0.00000  Uiso   1.00
C1652  C     0.52941   0.97342   0.77661   0.00000  Uiso   1.00
C1653  C     0.35919   0.79483   0.77334   0.00000  Uiso   1.00
C1654  C     0.64359   0.86973   0.73599   0.00000  Uiso   1.00
C1655  C     0.64973   0.79113   0.76312   0.00000  Uiso   1.00
C1656  C     0.35170   0.87484   0.75215   0.00000  Uiso   1.00
C1657  C     0.52696   0.87490   0.54996   0.00000  Uiso   1.00
C1658  C     0.53367   0.80399   0.95515   0.00000  Uiso   1.00
C1659  C     0.48783   0.87210   0.95181   0.00000  Uiso   1.00
C1660  C     0.50395   0.79825   0.54647   0.00000  Uiso   1.00
C1661  C     0.52134   0.87491   0.59562   0.00000  Uiso   1.00
C1662  C     0.52078   0.79781   0.91057   0.00000  Uiso   1.00
C1663  C     0.48316   0.87084   0.90500   0.00000  Uiso   1.00
C1664  C     0.50664   0.79557   0.59260   0.00000  Uiso   1.00
C1665  C     0.51008   0.83498   0.61690   0.00000  Uiso   1.00
C1666  C     0.49971   0.83310   0.88451   0.00000  Uiso   1.00
C1667  C     0.51559   0.83753   0.52510   0.00000  Uiso   1.00
C1668  C     0.51448   0.83949   0.97663   0.00000  Uiso   1.00
C1669  C     0.62502   0.82965   0.74622   0.00000  Uiso   1.00
C1670  C     0.37703   0.83565   0.76360   0.00000  Uiso   1.00
N1671  N     0.55066   0.70595   0.81791   0.00000  Uiso   1.00
O1672  O     0.56447   0.74576   0.81634   0.00000  Uiso   1.00
O1673  O     0.56058   0.68174   0.85449   0.00000  Uiso   1.00
N1674  N     0.43479   0.95928   0.69962   0.00000  Uiso   1.00
O1675  O     0.43956   0.92579   0.67398   0.00000  Uiso   1.00
O1676  O     0.39843   0.98081   0.69613   0.00000  Uiso   1.00
N1677  N     0.44760   0.71760   0.68508   0.00000  Uiso   1.00
O1678  O     0.41405   0.74025   0.69371   0.00000  Uiso   1.00
O1679  O     0.44888   0.70416   0.64452   0.00000  Uiso   1.00
N1680  N     0.56425   0.94791   0.80014   0.00000  Uiso   1.00
O1681  O     0.55869   0.92275   0.83475   0.00000  Uiso   1.00
O1682  O     0.60199   0.95988   0.79554   0.00000  Uiso   1.00
O1683  O     0.54019   0.91282   0.52911   0.00000  Uiso   1.00
C1684  C     0.58407   0.90905   0.52935   0.00000  Uiso   1.00
H1685  H     0.59313   0.88536   0.50385   0.00000  Uiso   1.00
H1686  H     0.60017   0.89893   0.56296   0.00000  Uiso   1.00
H1687  H     0.59511   0.94236   0.52009   0.00000  Uiso   1.00
O1688  O     0.55920   0.77061   0.97842   0.00000  Uiso   1.00
C1689  C     0.59875   0.78735   0.99108   0.00000  Uiso   1.00
H1690  H     0.59772   0.80756   0.52134   0.00000  Uiso   1.00
H1691  H     0.61086   0.80704   0.96347   0.00000  Uiso   1.00
H1692  H     0.62136   0.75846   0.50000   0.00000  Uiso   1.00
O1693  O     0.46731   0.90583   0.97304   0.00000  Uiso   1.00
C1694  C     0.42694   0.89250   0.98005   0.00000  Uiso   1.00
H1695  H     0.42866   0.86537   0.50634   0.00000  Uiso   1.00
H1696  H     0.40926   0.88191   0.94870   0.00000  Uiso   1.00
H1697  H     0.40907   0.92157   0.99217   0.00000  Uiso   1.00
O1698  O     0.49333   0.76064   0.52292   0.00000  Uiso   1.00
C1699  C     0.44956   0.76211   0.51247   0.00000  Uiso   1.00
H1700  H     0.43941   0.78899   0.98680   0.00000  Uiso   1.00
H1701  H     0.43257   0.76642   0.54269   0.00000  Uiso   1.00
H1702  H     0.44081   0.72975   0.99797   0.00000  Uiso   1.00
O1703  O     0.53194   0.91159   0.62077   0.00000  Uiso   1.00
C1704  C     0.50490   0.94919   0.60700   0.00000  Uiso   1.00
H1705  H     0.47254   0.94031   0.59469   0.00000  Uiso   1.00
H1706  H     0.51838   0.96980   0.58126   0.00000  Uiso   1.00
H1707  H     0.50246   0.97039   0.63624   0.00000  Uiso   1.00
O1708  O     0.52688   0.75625   0.89313   0.00000  Uiso   1.00
C1709  C     0.49469   0.72902   0.90531   0.00000  Uiso   1.00
H1710  H     0.46400   0.74772   0.90700   0.00000  Uiso   1.00
H1711  H     0.50459   0.71115   0.93784   0.00000  Uiso   1.00
H1712  H     0.48900   0.70375   0.87959   0.00000  Uiso   1.00
O1713  O     0.45727   0.90231   0.87926   0.00000  Uiso   1.00
C1714  C     0.47214   0.94578   0.88424   0.00000  Uiso   1.00
H1715  H     0.50647   0.94625   0.89423   0.00000  Uiso   1.00
H1716  H     0.45475   0.96404   0.90875   0.00000  Uiso   1.00
H1717  H     0.46572   0.96439   0.85160   0.00000  Uiso   1.00
O1718  O     0.50443   0.75411   0.61337   0.00000  Uiso   1.00
C1719  C     0.54542   0.73442   0.62139   0.00000  Uiso   1.00
H1720  H     0.56695   0.75658   0.64073   0.00000  Uiso   1.00
H1721  H     0.55802   0.72559   0.58948   0.00000  Uiso   1.00
H1722  H     0.54445   0.70305   0.64180   0.00000  Uiso   1.00
N1723  N     0.38459   0.75779   0.79492   0.00000  Uiso   1.00
O1724  O     0.40898   0.76412   0.83112   0.00000  Uiso   1.00
O1725  O     0.38596   0.71879   0.77681   0.00000  Uiso   1.00
N1726  N     0.62376   0.89955   0.70089   0.00000  Uiso   1.00
O1727  O     0.62307   0.88737   0.65970   0.00000  Uiso   1.00
O1728  O     0.60244   0.93575   0.70961   0.00000  Uiso   1.00
N1729  N     0.63260   0.74774   0.76656   0.00000  Uiso   1.00
O1730  O     0.61546   0.72991   0.73071   0.00000  Uiso   1.00
O1731  O     0.64181   0.72247   0.80256   0.00000  Uiso   1.00
N1732  N     0.36598   0.91870   0.76306   0.00000  Uiso   1.00
O1733  O     0.39428   0.92247   0.79666   0.00000  Uiso   1.00
O1734  O     0.34342   0.95460   0.74908   0.00000  Uiso   1.00
O1735  O     0.77226   0.87154   0.75000   0.00000  Uiso   1.00
O1736  O     0.89441   0.79513   0.75001   0.00000  Uiso   1.00
O1737  O     0.89441   0.87154   0.75001   0.00000  Uiso   1.00
O1738  O     0.77226   0.79513   0.75000   0.00000  Uiso   1.00
N1739  N     0.83333   0.95240   0.75000   0.00000  Uiso   1.00
N1740  N     0.83333   0.71427   0.75000   0.00000  Uiso   1.00
C1741  C     0.75402   0.83419   0.75509   0.00000  Uiso   1.00
C1742  C     0.91338   0.83216   0.74765   0.00000  Uiso   1.00
O1743  O     0.83333   0.87155   0.68453   0.00000  Uiso   1.00
O1744  O     0.83334   0.79511   0.81547   0.00000  Uiso   1.00
O1745  O     0.83334   0.87155   0.81547   0.00000  Uiso   1.00
O1746  O     0.83333   0.79511   0.68453   0.00000  Uiso   1.00
C1747  C     0.83607   0.83384   0.66419   0.00000  Uiso   1.00
C1748  C     0.83217   0.83296   0.83603   0.00000  Uiso   1.00
Zn1749 Zn    0.83333   0.88437   0.75000   0.00000  Uiso   1.00
Zn1750 Zn    0.83333   0.78229   0.75000   0.00000  Uiso   1.00
C1751  C     0.86013   0.68759   0.78015   0.00000  Uiso   1.00
C1752  C     0.80360   0.97867   0.72344   0.00000  Uiso   1.00
C1753  C     0.80612   0.69288   0.72060   0.00000  Uiso   1.00
C1754  C     0.86274   0.97342   0.77661   0.00000  Uiso   1.00
C1755  C     0.69253   0.79483   0.77334   0.00000  Uiso   1.00
C1756  C     0.97692   0.86973   0.73599   0.00000  Uiso   1.00
C1757  C     0.98306   0.79113   0.76312   0.00000  Uiso   1.00
C1758  C     0.68503   0.87484   0.75215   0.00000  Uiso   1.00
C1759  C     0.86030   0.87490   0.54996   0.00000  Uiso   1.00
C1760  C     0.86701   0.80399   0.95515   0.00000  Uiso   1.00
C1761  C     0.82117   0.87210   0.95181   0.00000  Uiso   1.00
C1762  C     0.83729   0.79825   0.54647   0.00000  Uiso   1.00
C1763  C     0.85467   0.87491   0.59562   0.00000  Uiso   1.00
C1764  C     0.85411   0.79781   0.91057   0.00000  Uiso   1.00
C1765  C     0.81650   0.87084   0.90500   0.00000  Uiso   1.00
C1766  C     0.83997   0.79557   0.59260   0.00000  Uiso   1.00
C1767  C     0.84341   0.83498   0.61690   0.00000  Uiso   1.00
C1768  C     0.83304   0.83310   0.88451   0.00000  Uiso   1.00
C1769  C     0.84892   0.83753   0.52510   0.00000  Uiso   1.00
C1770  C     0.84781   0.83949   0.97663   0.00000  Uiso   1.00
C1771  C     0.95836   0.82965   0.74622   0.00000  Uiso   1.00
C1772  C     0.71036   0.83565   0.76360   0.00000  Uiso   1.00
N1773  N     0.88400   0.70595   0.81791   0.00000  Uiso   1.00
O1774  O     0.89780   0.74576   0.81634   0.00000  Uiso   1.00
O1775  O     0.89391   0.68174   0.85449   0.00000  Uiso   1.00
N1776  N     0.76812   0.95928   0.69962   0.00000  Uiso   1.00
O1777  O     0.77290   0.92579   0.67398   0.00000  Uiso   1.00
O1778  O     0.73176   0.98081   0.69613   0.00000  Uiso   1.00
N1779  N     0.78093   0.71760   0.68508   0.00000  Uiso   1.00
O1780  O     0.74739   0.74025   0.69371   0.00000  Uiso   1.00
O1781  O     0.78222   0.70416   0.64452   0.00000  Uiso   1.00
N1782  N     0.89759   0.94791   0.80014   0.00000  Uiso   1.00
O1783  O     0.89202   0.92275   0.83475   0.00000  Uiso   1.00
O1784  O     0.93532   0.95988   0.79554   0.00000  Uiso   1.00
O1785  O     0.87353   0.91282   0.52911   0.00000  Uiso   1.00
C1786  C     0.91740   0.90905   0.52935   0.00000  Uiso   1.00
H1787  H     0.92647   0.88536   0.50385   0.00000  Uiso   1.00
H1788  H     0.93350   0.89893   0.56296   0.00000  Uiso   1.00
H1789  H     0.92845   0.94236   0.52009   0.00000  Uiso   1.00
O1790  O     0.89254   0.77061   0.97842   0.00000  Uiso   1.00
C1791  C     0.93208   0.78735   0.99108   0.00000  Uiso   1.00
H1792  H     0.93106   0.80756   0.52134   0.00000  Uiso   1.00
H1793  H     0.94419   0.80704   0.96347   0.00000  Uiso   1.00
H1794  H     0.95469   0.75846   0.50000   0.00000  Uiso   1.00
O1795  O     0.80065   0.90583   0.97304   0.00000  Uiso   1.00
C1796  C     0.76027   0.89250   0.98005   0.00000  Uiso   1.00
H1797  H     0.76199   0.86537   0.50634   0.00000  Uiso   1.00
H1798  H     0.74259   0.88191   0.94870   0.00000  Uiso   1.00
H1799  H     0.74240   0.92157   0.99217   0.00000  Uiso   1.00
O1800  O     0.82667   0.76064   0.52292   0.00000  Uiso   1.00
C1801  C     0.78290   0.76211   0.51247   0.00000  Uiso   1.00
H1802  H     0.77274   0.78899   0.98680   0.00000  Uiso   1.00
H1803  H     0.76590   0.76642   0.54269   0.00000  Uiso   1.00
H1804  H     0.77415   0.72975   0.99797   0.00000  Uiso   1.00
O1805  O     0.86528   0.91159   0.62077   0.00000  Uiso   1.00
C1806  C     0.83823   0.94919   0.60700   0.00000  Uiso   1.00
H1807  H     0.80588   0.94031   0.59469   0.00000  Uiso   1.00
H1808  H     0.85171   0.96980   0.58126   0.00000  Uiso   1.00
H1809  H     0.83579   0.97039   0.63624   0.00000  Uiso   1.00
O1810  O     0.86021   0.75625   0.89313   0.00000  Uiso   1.00
C1811  C     0.82803   0.72902   0.90531   0.00000  Uiso   1.00
H1812  H     0.79733   0.74772   0.90700   0.00000  Uiso   1.00
H1813  H     0.83792   0.71115   0.93784   0.00000  Uiso   1.00
H1814  H     0.82234   0.70375   0.87959   0.00000  Uiso   1.00
O1815  O     0.79060   0.90231   0.87926   0.00000  Uiso   1.00
C1816  C     0.80548   0.94578   0.88424   0.00000  Uiso   1.00
H1817  H     0.83981   0.94625   0.89423   0.00000  Uiso   1.00
H1818  H     0.78808   0.96404   0.90875   0.00000  Uiso   1.00
H1819  H     0.79905   0.96439   0.85160   0.00000  Uiso   1.00
O1820  O     0.83776   0.75411   0.61337   0.00000  Uiso   1.00
C1821  C     0.87875   0.73442   0.62139   0.00000  Uiso   1.00
H1822  H     0.90028   0.75658   0.64073   0.00000  Uiso   1.00
H1823  H     0.89136   0.72559   0.58948   0.00000  Uiso   1.00
H1824  H     0.87778   0.70305   0.64180   0.00000  Uiso   1.00
N1825  N     0.71793   0.75779   0.79492   0.00000  Uiso   1.00
O1826  O     0.74232   0.76412   0.83112   0.00000  Uiso   1.00
O1827  O     0.71930   0.71879   0.77681   0.00000  Uiso   1.00
N1828  N     0.95710   0.89955   0.70089   0.00000  Uiso   1.00
O1829  O     0.95640   0.88737   0.65970   0.00000  Uiso   1.00
O1830  O     0.93577   0.93575   0.70961   0.00000  Uiso   1.00
N1831  N     0.96594   0.74774   0.76656   0.00000  Uiso   1.00
O1832  O     0.94880   0.72991   0.73071   0.00000  Uiso   1.00
O1833  O     0.97514   0.72247   0.80256   0.00000  Uiso   1.00
N1834  N     0.69931   0.91870   0.76306   0.00000  Uiso   1.00
O1835  O     0.72762   0.92247   0.79666   0.00000  Uiso   1.00
O1836  O     0.67675   0.95460   0.74908   0.00000  Uiso   1.00
loop_
_geom_bond_atom_site_label_1
_geom_bond_atom_site_label_2
_geom_bond_distance
_geom_bond_site_symmetry_2
_ccdc_geom_bond_type
O1     Zn15    2.018   .     S
O1     C7      1.297   .     A
O2     Zn16    2.018   .     S
O2     C8      1.292   .     A
O3     C8      1.306   .     A
O3     Zn15    1.982   .     S
O4     C7      1.300   .     A
O4     Zn16    1.982   .     S
N5     C20     1.366   .     A
N5     C18     1.380   .     A
N5     Zn15    2.032   .     S
N6     C19     1.374   .     A
N6     C17     1.390   .     A
N6     Zn16    2.032   .     S
C7     C38     1.450   .     S
C8     C37     1.449   .     S
O9     C13     1.301   .     A
O9     Zn15    2.018   .     S
O10    C14     1.306   .     A
O10    Zn16    2.018   .     S
O11    C14     1.296   .     A
O11    Zn15    1.995   .     S
O12    Zn16    1.995   .     S
O12    C13     1.303   .     A
C13    C33     1.465   .     S
C14    C34     1.456   .     S
C17    N39     1.444   .     S
C17    C632    1.425   1_545 S
C18    N42     1.440   .     S
C18    C325    1.427   .     S
C19    N45     1.437   .     S
C19    C630    1.427   1_545 S
C20    N48     1.436   .     S
C20    C323    1.425   .     S
C21    C38     1.407   .     A
C21    N91     1.441   .     S
C21    C227    1.390   1_455 S
C22    N94     1.438   .     S
C22    C37     1.403   .     A
C22    C126    1.389   .     S
C23    C37     1.417   .     A
C23    N97     1.437   .     S
C23    C123    1.390   .     S
C24    C38     1.407   .     A
C24    N100    1.445   .     S
C24    C226    1.389   1_455 S
C25    C29     1.404   .     A
C25    O51     1.384   .     S
C25    C35     1.405   .     A
C26    C36     1.408   .     A
C26    C30     1.384   .     A
C26    O56     1.386   .     S
C27    O61     1.384   .     S
C27    C31     1.403   .     A
C27    C36     1.410   .     A
C28    C35     1.405   .     A
C28    C32     1.381   .     A
C28    O66     1.385   .     S
C29    C33     1.416   .     A
C29    O71     1.387   .     S
C30    C34     1.400   .     A
C30    O76     1.375   .     S
C31    C34     1.409   .     A
C31    O81     1.388   .     S
C32    O86     1.378   .     S
C32    C33     1.407   .     A
C35    C954    1.454   1_554 S
C36    C953    1.454   .     S
N39    O41     1.302   .     A
N39    O40     1.290   .     A
N42    O44     1.300   .     A
N42    O43     1.294   .     A
N45    O46     1.298   .     A
N45    O47     1.300   .     A
N48    O49     1.298   .     A
N48    O50     1.300   .     A
O51    C52     1.409   .     S
C52    H55     1.109   .     S
C52    H54     1.115   .     S
C52    H53     1.110   .     S
O56    C57     1.409   .     S
C57    H59     1.116   .     S
C57    H978    1.109   .     S
C57    H976    1.110   .     S
H58    C975    1.110   1_554 S
H60    C975    1.109   1_554 S
O61    C62     1.410   .     S
C62    H64     1.114   .     S
C62    H65     1.109   .     S
C62    H981    1.111   .     S
H63    C980    1.111   1_554 S
O66    C67     1.409   .     S
C67    H69     1.114   .     S
C67    H986    1.111   1_554 S
C67    H988    1.109   1_554 S
H68    C985    1.111   .     S
H70    C985    1.109   .     S
O71    C72     1.412   .     S
C72    H75     1.106   .     S
C72    H74     1.109   .     S
C72    H73     1.116   .     S
O76    C77     1.416   .     S
C77    H78     1.117   .     S
C77    H79     1.111   .     S
C77    H80     1.105   .     S
O81    C82     1.412   .     S
C82    H84     1.110   .     S
C82    H85     1.110   .     S
C82    H83     1.115   .     S
O86    C87     1.412   .     S
C87    H88     1.115   .     S
C87    H90     1.108   .     S
C87    H89     1.113   .     S
N91    O93     1.301   .     A
N91    O92     1.301   .     A
N94    O96     1.300   .     A
N94    O95     1.301   .     A
N97    O98     1.302   .     A
N97    O99     1.302   .     A
N100   O102    1.300   .     A
N100   O101    1.302   .     A
O103   Zn117   2.018   .     S
O103   C109    1.297   .     A
O104   Zn118   2.018   .     S
O104   C110    1.292   .     A
O105   C110    1.306   .     A
O105   Zn117   1.982   .     S
O106   C109    1.300   .     A
O106   Zn118   1.982   .     S
N107   C122    1.366   .     A
N107   C120    1.380   .     A
N107   Zn117   2.032   .     S
N108   C121    1.374   .     A
N108   C119    1.390   .     A
N108   Zn118   2.032   .     S
C109   C140    1.450   .     S
C110   C139    1.449   .     S
O111   C115    1.301   .     A
O111   Zn117   2.018   .     S
O112   C116    1.306   .     A
O112   Zn118   2.018   .     S
O113   C116    1.296   .     A
O113   Zn117   1.995   .     S
O114   Zn118   1.995   .     S
O114   C115    1.303   .     A
C115   C135    1.465   .     S
C116   C136    1.456   .     S
C119   N141    1.444   .     S
C119   C734    1.425   1_545 S
C120   N144    1.440   .     S
C120   C427    1.427   .     S
C121   N147    1.437   .     S
C121   C732    1.427   1_545 S
C122   N150    1.436   .     S
C122   C425    1.425   .     S
C123   C140    1.407   .     A
C123   N193    1.441   .     S
C124   N196    1.438   .     S
C124   C139    1.403   .     A
C124   C228    1.389   .     S
C125   C139    1.417   .     A
C125   N199    1.437   .     S
C125   C225    1.390   .     S
C126   C140    1.407   .     A
C126   N202    1.445   .     S
C127   C131    1.404   .     A
C127   O153    1.384   .     S
C127   C137    1.405   .     A
C128   C138    1.408   .     A
C128   C132    1.384   .     A
C128   O158    1.386   .     S
C129   O163    1.384   .     S
C129   C133    1.403   .     A
C129   C138    1.410   .     A
C130   C137    1.405   .     A
C130   C134    1.381   .     A
C130   O168    1.385   .     S
C131   C135    1.416   .     A
C131   O173    1.387   .     S
C132   C136    1.400   .     A
C132   O178    1.375   .     S
C133   C136    1.409   .     A
C133   O183    1.388   .     S
C134   O188    1.378   .     S
C134   C135    1.407   .     A
C137   C1056   1.454   1_554 S
C138   C1055   1.454   .     S
N141   O143    1.302   .     A
N141   O142    1.290   .     A
N144   O146    1.300   .     A
N144   O145    1.294   .     A
N147   O148    1.298   .     A
N147   O149    1.300   .     A
N150   O151    1.298   .     A
N150   O152    1.300   .     A
O153   C154    1.409   .     S
C154   H157    1.109   .     S
C154   H156    1.115   .     S
C154   H155    1.110   .     S
O158   C159    1.409   .     S
C159   H161    1.116   .     S
C159   H1080   1.109   .     S
C159   H1078   1.110   .     S
H160   C1077   1.110   1_554 S
H162   C1077   1.109   1_554 S
O163   C164    1.410   .     S
C164   H166    1.114   .     S
C164   H167    1.109   .     S
C164   H1083   1.111   .     S
H165   C1082   1.111   1_554 S
O168   C169    1.409   .     S
C169   H171    1.114   .     S
C169   H1088   1.111   1_554 S
C169   H1090   1.109   1_554 S
H170   C1087   1.111   .     S
H172   C1087   1.109   .     S
O173   C174    1.412   .     S
C174   H177    1.106   .     S
C174   H176    1.109   .     S
C174   H175    1.116   .     S
O178   C179    1.416   .     S
C179   H180    1.117   .     S
C179   H181    1.111   .     S
C179   H182    1.105   .     S
O183   C184    1.412   .     S
C184   H186    1.110   .     S
C184   H187    1.110   .     S
C184   H185    1.115   .     S
O188   C189    1.412   .     S
C189   H190    1.115   .     S
C189   H192    1.108   .     S
C189   H191    1.113   .     S
N193   O195    1.301   .     A
N193   O194    1.301   .     A
N196   O198    1.300   .     A
N196   O197    1.301   .     A
N199   O200    1.302   .     A
N199   O201    1.302   .     A
N202   O204    1.300   .     A
N202   O203    1.302   .     A
O205   Zn219   2.018   .     S
O205   C211    1.297   .     A
O206   Zn220   2.018   .     S
O206   C212    1.292   .     A
O207   C212    1.306   .     A
O207   Zn219   1.982   .     S
O208   C211    1.300   .     A
O208   Zn220   1.982   .     S
N209   C224    1.366   .     A
N209   C222    1.380   .     A
N209   Zn219   2.032   .     S
N210   C223    1.374   .     A
N210   C221    1.390   .     A
N210   Zn220   2.032   .     S
C211   C242    1.450   .     S
C212   C241    1.449   .     S
O213   C217    1.301   .     A
O213   Zn219   2.018   .     S
O214   C218    1.306   .     A
O214   Zn220   2.018   .     S
O215   C218    1.296   .     A
O215   Zn219   1.995   .     S
O216   Zn220   1.995   .     S
O216   C217    1.303   .     A
C217   C237    1.465   .     S
C218   C238    1.456   .     S
C221   N243    1.444   .     S
C221   C836    1.425   1_545 S
C222   N246    1.440   .     S
C222   C529    1.427   .     S
C223   N249    1.437   .     S
C223   C834    1.427   1_545 S
C224   N252    1.436   .     S
C224   C527    1.425   .     S
C225   C242    1.407   .     A
C225   N295    1.441   .     S
C226   N298    1.438   .     S
C226   C241    1.403   .     A
C226   C24     1.389   1_655 S
C227   C241    1.417   .     A
C227   N301    1.437   .     S
C227   C21     1.390   1_655 S
C228   C242    1.407   .     A
C228   N304    1.445   .     S
C229   C233    1.404   .     A
C229   O255    1.384   .     S
C229   C239    1.405   .     A
C230   C240    1.408   .     A
C230   C234    1.384   .     A
C230   O260    1.386   .     S
C231   O265    1.384   .     S
C231   C235    1.403   .     A
C231   C240    1.410   .     A
C232   C239    1.405   .     A
C232   C236    1.381   .     A
C232   O270    1.385   .     S
C233   C237    1.416   .     A
C233   O275    1.387   .     S
C234   C238    1.400   .     A
C234   O280    1.375   .     S
C235   C238    1.409   .     A
C235   O285    1.388   .     S
C236   O290    1.378   .     S
C236   C237    1.407   .     A
C239   C1158   1.454   1_554 S
C240   C1157   1.454   .     S
N243   O245    1.302   .     A
N243   O244    1.290   .     A
N246   O248    1.300   .     A
N246   O247    1.294   .     A
N249   O250    1.298   .     A
N249   O251    1.300   .     A
N252   O253    1.298   .     A
N252   O254    1.300   .     A
O255   C256    1.409   .     S
C256   H259    1.109   .     S
C256   H258    1.115   .     S
C256   H257    1.110   .     S
O260   C261    1.409   .     S
C261   H263    1.116   .     S
C261   H1182   1.109   .     S
C261   H1180   1.110   .     S
H262   C1179   1.110   1_554 S
H264   C1179   1.109   1_554 S
O265   C266    1.410   .     S
C266   H268    1.114   .     S
C266   H269    1.109   .     S
C266   H1185   1.111   .     S
H267   C1184   1.111   1_554 S
O270   C271    1.409   .     S
C271   H273    1.114   .     S
C271   H1190   1.111   1_554 S
C271   H1192   1.109   1_554 S
H272   C1189   1.111   .     S
H274   C1189   1.109   .     S
O275   C276    1.412   .     S
C276   H279    1.106   .     S
C276   H278    1.109   .     S
C276   H277    1.116   .     S
O280   C281    1.416   .     S
C281   H282    1.117   .     S
C281   H283    1.111   .     S
C281   H284    1.105   .     S
O285   C286    1.412   .     S
C286   H288    1.110   .     S
C286   H289    1.110   .     S
C286   H287    1.115   .     S
O290   C291    1.412   .     S
C291   H292    1.115   .     S
C291   H294    1.108   .     S
C291   H293    1.113   .     S
N295   O297    1.301   .     A
N295   O296    1.301   .     A
N298   O300    1.300   .     A
N298   O299    1.301   .     A
N301   O302    1.302   .     A
N301   O303    1.302   .     A
N304   O306    1.300   .     A
N304   O305    1.302   .     A
O307   Zn321   2.018   .     S
O307   C313    1.297   .     A
O308   Zn322   2.018   .     S
O308   C314    1.292   .     A
O309   C314    1.306   .     A
O309   Zn321   1.982   .     S
O310   C313    1.300   .     A
O310   Zn322   1.982   .     S
N311   C326    1.366   .     A
N311   C324    1.380   .     A
N311   Zn321   2.032   .     S
N312   C325    1.374   .     A
N312   C323    1.390   .     A
N312   Zn322   2.032   .     S
C313   C344    1.450   .     S
C314   C343    1.449   .     S
O315   C319    1.301   .     A
O315   Zn321   2.018   .     S
O316   C320    1.306   .     A
O316   Zn322   2.018   .     S
O317   C320    1.296   .     A
O317   Zn321   1.995   .     S
O318   Zn322   1.995   .     S
O318   C319    1.303   .     A
C319   C339    1.465   .     S
C320   C340    1.456   .     S
C323   N345    1.444   .     S
C324   N348    1.440   .     S
C324   C631    1.427   .     S
C325   N351    1.437   .     S
C326   N354    1.436   .     S
C326   C629    1.425   .     S
C327   C344    1.407   .     A
C327   N397    1.441   .     S
C327   C533    1.390   1_455 S
C328   N400    1.438   .     S
C328   C343    1.403   .     A
C328   C432    1.389   .     S
C329   C343    1.417   .     A
C329   N403    1.437   .     S
C329   C429    1.390   .     S
C330   C344    1.407   .     A
C330   N406    1.445   .     S
C330   C532    1.389   1_455 S
C331   C335    1.404   .     A
C331   O357    1.384   .     S
C331   C341    1.405   .     A
C332   C342    1.408   .     A
C332   C336    1.384   .     A
C332   O362    1.386   .     S
C333   O367    1.384   .     S
C333   C337    1.403   .     A
C333   C342    1.410   .     A
C334   C341    1.405   .     A
C334   C338    1.381   .     A
C334   O372    1.385   .     S
C335   C339    1.416   .     A
C335   O377    1.387   .     S
C336   C340    1.400   .     A
C336   O382    1.375   .     S
C337   C340    1.409   .     A
C337   O387    1.388   .     S
C338   O392    1.378   .     S
C338   C339    1.407   .     A
C341   C1260   1.454   1_554 S
C342   C1259   1.454   .     S
N345   O347    1.302   .     A
N345   O346    1.290   .     A
N348   O350    1.300   .     A
N348   O349    1.294   .     A
N351   O352    1.298   .     A
N351   O353    1.300   .     A
N354   O355    1.298   .     A
N354   O356    1.300   .     A
O357   C358    1.409   .     S
C358   H361    1.109   .     S
C358   H360    1.115   .     S
C358   H359    1.110   .     S
O362   C363    1.409   .     S
C363   H365    1.116   .     S
C363   H1284   1.109   .     S
C363   H1282   1.110   .     S
H364   C1281   1.110   1_554 S
H366   C1281   1.109   1_554 S
O367   C368    1.410   .     S
C368   H370    1.114   .     S
C368   H371    1.109   .     S
C368   H1287   1.111   .     S
H369   C1286   1.111   1_554 S
O372   C373    1.409   .     S
C373   H375    1.114   .     S
C373   H1292   1.111   1_554 S
C373   H1294   1.109   1_554 S
H374   C1291   1.111   .     S
H376   C1291   1.109   .     S
O377   C378    1.412   .     S
C378   H381    1.106   .     S
C378   H380    1.109   .     S
C378   H379    1.116   .     S
O382   C383    1.416   .     S
C383   H384    1.117   .     S
C383   H385    1.111   .     S
C383   H386    1.105   .     S
O387   C388    1.412   .     S
C388   H390    1.110   .     S
C388   H391    1.110   .     S
C388   H389    1.115   .     S
O392   C393    1.412   .     S
C393   H394    1.115   .     S
C393   H396    1.108   .     S
C393   H395    1.113   .     S
N397   O399    1.301   .     A
N397   O398    1.301   .     A
N400   O402    1.300   .     A
N400   O401    1.301   .     A
N403   O404    1.302   .     A
N403   O405    1.302   .     A
N406   O408    1.300   .     A
N406   O407    1.302   .     A
O409   Zn423   2.018   .     S
O409   C415    1.297   .     A
O410   Zn424   2.018   .     S
O410   C416    1.292   .     A
O411   C416    1.306   .     A
O411   Zn423   1.982   .     S
O412   C415    1.300   .     A
O412   Zn424   1.982   .     S
N413   C428    1.366   .     A
N413   C426    1.380   .     A
N413   Zn423   2.032   .     S
N414   C427    1.374   .     A
N414   C425    1.390   .     A
N414   Zn424   2.032   .     S
C415   C446    1.450   .     S
C416   C445    1.449   .     S
O417   C421    1.301   .     A
O417   Zn423   2.018   .     S
O418   C422    1.306   .     A
O418   Zn424   2.018   .     S
O419   C422    1.296   .     A
O419   Zn423   1.995   .     S
O420   Zn424   1.995   .     S
O420   C421    1.303   .     A
C421   C441    1.465   .     S
C422   C442    1.456   .     S
C425   N447    1.444   .     S
C426   N450    1.440   .     S
C426   C733    1.427   .     S
C427   N453    1.437   .     S
C428   N456    1.436   .     S
C428   C731    1.425   .     S
C429   C446    1.407   .     A
C429   N499    1.441   .     S
C430   N502    1.438   .     S
C430   C445    1.403   .     A
C430   C534    1.389   .     S
C431   C445    1.417   .     A
C431   N505    1.437   .     S
C431   C531    1.390   .     S
C432   C446    1.407   .     A
C432   N508    1.445   .     S
C433   C437    1.404   .     A
C433   O459    1.384   .     S
C433   C443    1.405   .     A
C434   C444    1.408   .     A
C434   C438    1.384   .     A
C434   O464    1.386   .     S
C435   O469    1.384   .     S
C435   C439    1.403   .     A
C435   C444    1.410   .     A
C436   C443    1.405   .     A
C436   C440    1.381   .     A
C436   O474    1.385   .     S
C437   C441    1.416   .     A
C437   O479    1.387   .     S
C438   C442    1.400   .     A
C438   O484    1.375   .     S
C439   C442    1.409   .     A
C439   O489    1.388   .     S
C440   O494    1.378   .     S
C440   C441    1.407   .     A
C443   C1362   1.454   1_554 S
C444   C1361   1.454   .     S
N447   O449    1.302   .     A
N447   O448    1.290   .     A
N450   O452    1.300   .     A
N450   O451    1.294   .     A
N453   O454    1.298   .     A
N453   O455    1.300   .     A
N456   O457    1.298   .     A
N456   O458    1.300   .     A
O459   C460    1.409   .     S
C460   H463    1.109   .     S
C460   H462    1.115   .     S
C460   H461    1.110   .     S
O464   C465    1.409   .     S
C465   H467    1.116   .     S
C465   H1386   1.109   .     S
C465   H1384   1.110   .     S
H466   C1383   1.110   1_554 S
H468   C1383   1.109   1_554 S
O469   C470    1.410   .     S
C470   H472    1.114   .     S
C470   H473    1.109   .     S
C470   H1389   1.111   .     S
H471   C1388   1.111   1_554 S
O474   C475    1.409   .     S
C475   H477    1.114   .     S
C475   H1394   1.111   1_554 S
C475   H1396   1.109   1_554 S
H476   C1393   1.111   .     S
H478   C1393   1.109   .     S
O479   C480    1.412   .     S
C480   H483    1.106   .     S
C480   H482    1.109   .     S
C480   H481    1.116   .     S
O484   C485    1.416   .     S
C485   H486    1.117   .     S
C485   H487    1.111   .     S
C485   H488    1.105   .     S
O489   C490    1.412   .     S
C490   H492    1.110   .     S
C490   H493    1.110   .     S
C490   H491    1.115   .     S
O494   C495    1.412   .     S
C495   H496    1.115   .     S
C495   H498    1.108   .     S
C495   H497    1.113   .     S
N499   O501    1.301   .     A
N499   O500    1.301   .     A
N502   O504    1.300   .     A
N502   O503    1.301   .     A
N505   O506    1.302   .     A
N505   O507    1.302   .     A
N508   O510    1.300   .     A
N508   O509    1.302   .     A
O511   Zn525   2.018   .     S
O511   C517    1.297   .     A
O512   Zn526   2.018   .     S
O512   C518    1.292   .     A
O513   C518    1.306   .     A
O513   Zn525   1.982   .     S
O514   C517    1.300   .     A
O514   Zn526   1.982   .     S
N515   C530    1.366   .     A
N515   C528    1.380   .     A
N515   Zn525   2.032   .     S
N516   C529    1.374   .     A
N516   C527    1.390   .     A
N516   Zn526   2.032   .     S
C517   C548    1.450   .     S
C518   C547    1.449   .     S
O519   C523    1.301   .     A
O519   Zn525   2.018   .     S
O520   C524    1.306   .     A
O520   Zn526   2.018   .     S
O521   C524    1.296   .     A
O521   Zn525   1.995   .     S
O522   Zn526   1.995   .     S
O522   C523    1.303   .     A
C523   C543    1.465   .     S
C524   C544    1.456   .     S
C527   N549    1.444   .     S
C528   N552    1.440   .     S
C528   C835    1.427   .     S
C529   N555    1.437   .     S
C530   N558    1.436   .     S
C530   C833    1.425   .     S
C531   C548    1.407   .     A
C531   N601    1.441   .     S
C532   N604    1.438   .     S
C532   C547    1.403   .     A
C532   C330    1.389   1_655 S
C533   C547    1.417   .     A
C533   N607    1.437   .     S
C533   C327    1.390   1_655 S
C534   C548    1.407   .     A
C534   N610    1.445   .     S
C535   C539    1.404   .     A
C535   O561    1.384   .     S
C535   C545    1.405   .     A
C536   C546    1.408   .     A
C536   C540    1.384   .     A
C536   O566    1.386   .     S
C537   O571    1.384   .     S
C537   C541    1.403   .     A
C537   C546    1.410   .     A
C538   C545    1.405   .     A
C538   C542    1.381   .     A
C538   O576    1.385   .     S
C539   C543    1.416   .     A
C539   O581    1.387   .     S
C540   C544    1.400   .     A
C540   O586    1.375   .     S
C541   C544    1.409   .     A
C541   O591    1.388   .     S
C542   O596    1.378   .     S
C542   C543    1.407   .     A
C545   C1464   1.454   1_554 S
C546   C1463   1.454   .     S
N549   O551    1.302   .     A
N549   O550    1.290   .     A
N552   O554    1.300   .     A
N552   O553    1.294   .     A
N555   O556    1.298   .     A
N555   O557    1.300   .     A
N558   O559    1.298   .     A
N558   O560    1.300   .     A
O561   C562    1.409   .     S
C562   H565    1.109   .     S
C562   H564    1.115   .     S
C562   H563    1.110   .     S
O566   C567    1.409   .     S
C567   H569    1.116   .     S
C567   H1488   1.109   .     S
C567   H1486   1.110   .     S
H568   C1485   1.110   1_554 S
H570   C1485   1.109   1_554 S
O571   C572    1.410   .     S
C572   H574    1.114   .     S
C572   H575    1.109   .     S
C572   H1491   1.111   .     S
H573   C1490   1.111   1_554 S
O576   C577    1.409   .     S
C577   H579    1.114   .     S
C577   H1496   1.111   1_554 S
C577   H1498   1.109   1_554 S
H578   C1495   1.111   .     S
H580   C1495   1.109   .     S
O581   C582    1.412   .     S
C582   H585    1.106   .     S
C582   H584    1.109   .     S
C582   H583    1.116   .     S
O586   C587    1.416   .     S
C587   H588    1.117   .     S
C587   H589    1.111   .     S
C587   H590    1.105   .     S
O591   C592    1.412   .     S
C592   H594    1.110   .     S
C592   H595    1.110   .     S
C592   H593    1.115   .     S
O596   C597    1.412   .     S
C597   H598    1.115   .     S
C597   H600    1.108   .     S
C597   H599    1.113   .     S
N601   O603    1.301   .     A
N601   O602    1.301   .     A
N604   O606    1.300   .     A
N604   O605    1.301   .     A
N607   O608    1.302   .     A
N607   O609    1.302   .     A
N610   O612    1.300   .     A
N610   O611    1.302   .     A
O613   Zn627   2.018   .     S
O613   C619    1.297   .     A
O614   Zn628   2.018   .     S
O614   C620    1.292   .     A
O615   C620    1.306   .     A
O615   Zn627   1.982   .     S
O616   C619    1.300   .     A
O616   Zn628   1.982   .     S
N617   C632    1.366   .     A
N617   C630    1.380   .     A
N617   Zn627   2.032   .     S
N618   C631    1.374   .     A
N618   C629    1.390   .     A
N618   Zn628   2.032   .     S
C619   C650    1.450   .     S
C620   C649    1.449   .     S
O621   C625    1.301   .     A
O621   Zn627   2.018   .     S
O622   C626    1.306   .     A
O622   Zn628   2.018   .     S
O623   C626    1.296   .     A
O623   Zn627   1.995   .     S
O624   Zn628   1.995   .     S
O624   C625    1.303   .     A
C625   C645    1.465   .     S
C626   C646    1.456   .     S
C629   N651    1.444   .     S
C630   N654    1.440   .     S
C630   C19     1.427   1_565 S
C631   N657    1.437   .     S
C632   N660    1.436   .     S
C632   C17     1.425   1_565 S
C633   C650    1.407   .     A
C633   N703    1.441   .     S
C633   C839    1.390   1_455 S
C634   N706    1.438   .     S
C634   C649    1.403   .     A
C634   C738    1.389   .     S
C635   C649    1.417   .     A
C635   N709    1.437   .     S
C635   C735    1.390   .     S
C636   C650    1.407   .     A
C636   N712    1.445   .     S
C636   C838    1.389   1_455 S
C637   C641    1.404   .     A
C637   O663    1.384   .     S
C637   C647    1.405   .     A
C638   C648    1.408   .     A
C638   C642    1.384   .     A
C638   O668    1.386   .     S
C639   O673    1.384   .     S
C639   C643    1.403   .     A
C639   C648    1.410   .     A
C640   C647    1.405   .     A
C640   C644    1.381   .     A
C640   O678    1.385   .     S
C641   C645    1.416   .     A
C641   O683    1.387   .     S
C642   C646    1.400   .     A
C642   O688    1.375   .     S
C643   C646    1.409   .     A
C643   O693    1.388   .     S
C644   O698    1.378   .     S
C644   C645    1.407   .     A
C647   C1566   1.454   1_554 S
C648   C1565   1.454   .     S
N651   O653    1.302   .     A
N651   O652    1.290   .     A
N654   O656    1.300   .     A
N654   O655    1.294   .     A
N657   O658    1.298   .     A
N657   O659    1.300   .     A
N660   O661    1.298   .     A
N660   O662    1.300   .     A
O663   C664    1.409   .     S
C664   H667    1.109   .     S
C664   H666    1.115   .     S
C664   H665    1.110   .     S
O668   C669    1.409   .     S
C669   H671    1.116   .     S
C669   H1590   1.109   .     S
C669   H1588   1.110   .     S
H670   C1587   1.110   1_554 S
H672   C1587   1.109   1_554 S
O673   C674    1.410   .     S
C674   H676    1.114   .     S
C674   H677    1.109   .     S
C674   H1593   1.111   .     S
H675   C1592   1.111   1_554 S
O678   C679    1.409   .     S
C679   H681    1.114   .     S
C679   H1598   1.111   1_554 S
C679   H1600   1.109   1_554 S
H680   C1597   1.111   .     S
H682   C1597   1.109   .     S
O683   C684    1.412   .     S
C684   H687    1.106   .     S
C684   H686    1.109   .     S
C684   H685    1.116   .     S
O688   C689    1.416   .     S
C689   H690    1.117   .     S
C689   H691    1.111   .     S
C689   H692    1.105   .     S
O693   C694    1.412   .     S
C694   H696    1.110   .     S
C694   H697    1.110   .     S
C694   H695    1.115   .     S
O698   C699    1.412   .     S
C699   H700    1.115   .     S
C699   H702    1.108   .     S
C699   H701    1.113   .     S
N703   O705    1.301   .     A
N703   O704    1.301   .     A
N706   O708    1.300   .     A
N706   O707    1.301   .     A
N709   O710    1.302   .     A
N709   O711    1.302   .     A
N712   O714    1.300   .     A
N712   O713    1.302   .     A
O715   Zn729   2.018   .     S
O715   C721    1.297   .     A
O716   Zn730   2.018   .     S
O716   C722    1.292   .     A
O717   C722    1.306   .     A
O717   Zn729   1.982   .     S
O718   C721    1.300   .     A
O718   Zn730   1.982   .     S
N719   C734    1.366   .     A
N719   C732    1.380   .     A
N719   Zn729   2.032   .     S
N720   C733    1.374   .     A
N720   C731    1.390   .     A
N720   Zn730   2.032   .     S
C721   C752    1.450   .     S
C722   C751    1.449   .     S
O723   C727    1.301   .     A
O723   Zn729   2.018   .     S
O724   C728    1.306   .     A
O724   Zn730   2.018   .     S
O725   C728    1.296   .     A
O725   Zn729   1.995   .     S
O726   Zn730   1.995   .     S
O726   C727    1.303   .     A
C727   C747    1.465   .     S
C728   C748    1.456   .     S
C731   N753    1.444   .     S
C732   N756    1.440   .     S
C732   C121    1.427   1_565 S
C733   N759    1.437   .     S
C734   N762    1.436   .     S
C734   C119    1.425   1_565 S
C735   C752    1.407   .     A
C735   N805    1.441   .     S
C736   N808    1.438   .     S
C736   C751    1.403   .     A
C736   C840    1.389   .     S
C737   C751    1.417   .     A
C737   N811    1.437   .     S
C737   C837    1.390   .     S
C738   C752    1.407   .     A
C738   N814    1.445   .     S
C739   C743    1.404   .     A
C739   O765    1.384   .     S
C739   C749    1.405   .     A
C740   C750    1.408   .     A
C740   C744    1.384   .     A
C740   O770    1.386   .     S
C741   O775    1.384   .     S
C741   C745    1.403   .     A
C741   C750    1.410   .     A
C742   C749    1.405   .     A
C742   C746    1.381   .     A
C742   O780    1.385   .     S
C743   C747    1.416   .     A
C743   O785    1.387   .     S
C744   C748    1.400   .     A
C744   O790    1.375   .     S
C745   C748    1.409   .     A
C745   O795    1.388   .     S
C746   O800    1.378   .     S
C746   C747    1.407   .     A
C749   C1668   1.454   1_554 S
C750   C1667   1.454   .     S
N753   O755    1.302   .     A
N753   O754    1.290   .     A
N756   O758    1.300   .     A
N756   O757    1.294   .     A
N759   O760    1.298   .     A
N759   O761    1.300   .     A
N762   O763    1.298   .     A
N762   O764    1.300   .     A
O765   C766    1.409   .     S
C766   H769    1.109   .     S
C766   H768    1.115   .     S
C766   H767    1.110   .     S
O770   C771    1.409   .     S
C771   H773    1.116   .     S
C771   H1692   1.109   .     S
C771   H1690   1.110   .     S
H772   C1689   1.110   1_554 S
H774   C1689   1.109   1_554 S
O775   C776    1.410   .     S
C776   H778    1.114   .     S
C776   H779    1.109   .     S
C776   H1695   1.111   .     S
H777   C1694   1.111   1_554 S
O780   C781    1.409   .     S
C781   H783    1.114   .     S
C781   H1700   1.111   1_554 S
C781   H1702   1.109   1_554 S
H782   C1699   1.111   .     S
H784   C1699   1.109   .     S
O785   C786    1.412   .     S
C786   H789    1.106   .     S
C786   H788    1.109   .     S
C786   H787    1.116   .     S
O790   C791    1.416   .     S
C791   H792    1.117   .     S
C791   H793    1.111   .     S
C791   H794    1.105   .     S
O795   C796    1.412   .     S
C796   H798    1.110   .     S
C796   H799    1.110   .     S
C796   H797    1.115   .     S
O800   C801    1.412   .     S
C801   H802    1.115   .     S
C801   H804    1.108   .     S
C801   H803    1.113   .     S
N805   O807    1.301   .     A
N805   O806    1.301   .     A
N808   O810    1.300   .     A
N808   O809    1.301   .     A
N811   O812    1.302   .     A
N811   O813    1.302   .     A
N814   O816    1.300   .     A
N814   O815    1.302   .     A
O817   Zn831   2.018   .     S
O817   C823    1.297   .     A
O818   Zn832   2.018   .     S
O818   C824    1.292   .     A
O819   C824    1.306   .     A
O819   Zn831   1.982   .     S
O820   C823    1.300   .     A
O820   Zn832   1.982   .     S
N821   C836    1.366   .     A
N821   C834    1.380   .     A
N821   Zn831   2.032   .     S
N822   C835    1.374   .     A
N822   C833    1.390   .     A
N822   Zn832   2.032   .     S
C823   C854    1.450   .     S
C824   C853    1.449   .     S
O825   C829    1.301   .     A
O825   Zn831   2.018   .     S
O826   C830    1.306   .     A
O826   Zn832   2.018   .     S
O827   C830    1.296   .     A
O827   Zn831   1.995   .     S
O828   Zn832   1.995   .     S
O828   C829    1.303   .     A
C829   C849    1.465   .     S
C830   C850    1.456   .     S
C833   N855    1.444   .     S
C834   N858    1.440   .     S
C834   C223    1.427   1_565 S
C835   N861    1.437   .     S
C836   N864    1.436   .     S
C836   C221    1.425   1_565 S
C837   C854    1.407   .     A
C837   N907    1.441   .     S
C838   N910    1.438   .     S
C838   C853    1.403   .     A
C838   C636    1.389   1_655 S
C839   C853    1.417   .     A
C839   N913    1.437   .     S
C839   C633    1.390   1_655 S
C840   C854    1.407   .     A
C840   N916    1.445   .     S
C841   C845    1.404   .     A
C841   O867    1.384   .     S
C841   C851    1.405   .     A
C842   C852    1.408   .     A
C842   C846    1.384   .     A
C842   O872    1.386   .     S
C843   O877    1.384   .     S
C843   C847    1.403   .     A
C843   C852    1.410   .     A
C844   C851    1.405   .     A
C844   C848    1.381   .     A
C844   O882    1.385   .     S
C845   C849    1.416   .     A
C845   O887    1.387   .     S
C846   C850    1.400   .     A
C846   O892    1.375   .     S
C847   C850    1.409   .     A
C847   O897    1.388   .     S
C848   O902    1.378   .     S
C848   C849    1.407   .     A
C851   C1770   1.454   1_554 S
C852   C1769   1.454   .     S
N855   O857    1.302   .     A
N855   O856    1.290   .     A
N858   O860    1.300   .     A
N858   O859    1.294   .     A
N861   O862    1.298   .     A
N861   O863    1.300   .     A
N864   O865    1.298   .     A
N864   O866    1.300   .     A
O867   C868    1.409   .     S
C868   H871    1.109   .     S
C868   H870    1.115   .     S
C868   H869    1.110   .     S
O872   C873    1.409   .     S
C873   H875    1.116   .     S
C873   H1794   1.109   .     S
C873   H1792   1.110   .     S
H874   C1791   1.110   1_554 S
H876   C1791   1.109   1_554 S
O877   C878    1.410   .     S
C878   H880    1.114   .     S
C878   H881    1.109   .     S
C878   H1797   1.111   .     S
H879   C1796   1.111   1_554 S
O882   C883    1.409   .     S
C883   H885    1.114   .     S
C883   H1802   1.111   1_554 S
C883   H1804   1.109   1_554 S
H884   C1801   1.111   .     S
H886   C1801   1.109   .     S
O887   C888    1.412   .     S
C888   H891    1.106   .     S
C888   H890    1.109   .     S
C888   H889    1.116   .     S
O892   C893    1.416   .     S
C893   H894    1.117   .     S
C893   H895    1.111   .     S
C893   H896    1.105   .     S
O897   C898    1.412   .     S
C898   H900    1.110   .     S
C898   H901    1.110   .     S
C898   H899    1.115   .     S
O902   C903    1.412   .     S
C903   H904    1.115   .     S
C903   H906    1.108   .     S
C903   H905    1.113   .     S
N907   O909    1.301   .     A
N907   O908    1.301   .     A
N910   O912    1.300   .     A
N910   O911    1.301   .     A
N913   O914    1.302   .     A
N913   O915    1.302   .     A
N916   O918    1.300   .     A
N916   O917    1.302   .     A
O919   Zn933   2.018   .     S
O919   C925    1.297   .     A
O920   Zn934   2.018   .     S
O920   C926    1.292   .     A
O921   C926    1.306   .     A
O921   Zn933   1.982   .     S
O922   C925    1.300   .     A
O922   Zn934   1.982   .     S
N923   C938    1.366   .     A
N923   C936    1.380   .     A
N923   Zn933   2.032   .     S
N924   C937    1.374   .     A
N924   C935    1.390   .     A
N924   Zn934   2.032   .     S
C925   C956    1.450   .     S
C926   C955    1.449   .     S
O927   C931    1.301   .     A
O927   Zn933   2.018   .     S
O928   C932    1.306   .     A
O928   Zn934   2.018   .     S
O929   C932    1.296   .     A
O929   Zn933   1.995   .     S
O930   Zn934   1.995   .     S
O930   C931    1.303   .     A
C931   C951    1.465   .     S
C932   C952    1.456   .     S
C935   N957    1.444   .     S
C935   C1550   1.425   1_545 S
C936   N960    1.440   .     S
C936   C1243   1.427   .     S
C937   N963    1.437   .     S
C937   C1548   1.427   1_545 S
C938   N966    1.436   .     S
C938   C1241   1.425   .     S
C939   C956    1.407   .     A
C939   N1009   1.441   .     S
C939   C1145   1.390   1_455 S
C940   N1012   1.438   .     S
C940   C955    1.403   .     A
C940   C1044   1.389   .     S
C941   C955    1.417   .     A
C941   N1015   1.437   .     S
C941   C1041   1.390   .     S
C942   C956    1.407   .     A
C942   N1018   1.445   .     S
C942   C1144   1.389   1_455 S
C943   C947    1.404   .     A
C943   O969    1.384   .     S
C943   C953    1.405   .     A
C944   C954    1.408   .     A
C944   C948    1.384   .     A
C944   O974    1.386   .     S
C945   O979    1.384   .     S
C945   C949    1.403   .     A
C945   C954    1.410   .     A
C946   C953    1.405   .     A
C946   C950    1.381   .     A
C946   O984    1.385   .     S
C947   C951    1.416   .     A
C947   O989    1.387   .     S
C948   C952    1.400   .     A
C948   O994    1.375   .     S
C949   C952    1.409   .     A
C949   O999    1.388   .     S
C950   O1004   1.378   .     S
C950   C951    1.407   .     A
C954   C35     1.454   1_556 S
N957   O959    1.302   .     A
N957   O958    1.290   .     A
N960   O962    1.300   .     A
N960   O961    1.294   .     A
N963   O964    1.298   .     A
N963   O965    1.300   .     A
N966   O967    1.298   .     A
N966   O968    1.300   .     A
O969   C970    1.409   .     S
C970   H973    1.109   .     S
C970   H972    1.115   .     S
C970   H971    1.110   .     S
O974   C975    1.409   .     S
C975   H977    1.116   .     S
C975   H60     1.109   1_556 S
C975   H58     1.110   1_556 S
O979   C980    1.410   .     S
C980   H982    1.114   .     S
C980   H983    1.109   .     S
C980   H63     1.111   1_556 S
O984   C985    1.409   .     S
C985   H987    1.114   .     S
H986   C67     1.111   1_556 S
H988   C67     1.109   1_556 S
O989   C990    1.412   .     S
C990   H993    1.106   .     S
C990   H992    1.109   .     S
C990   H991    1.116   .     S
O994   C995    1.416   .     S
C995   H996    1.117   .     S
C995   H997    1.111   .     S
C995   H998    1.105   .     S
O999   C1000   1.412   .     S
C1000  H1002   1.110   .     S
C1000  H1003   1.110   .     S
C1000  H1001   1.115   .     S
O1004  C1005   1.412   .     S
C1005  H1006   1.115   .     S
C1005  H1008   1.108   .     S
C1005  H1007   1.113   .     S
N1009  O1011   1.301   .     A
N1009  O1010   1.301   .     A
N1012  O1014   1.300   .     A
N1012  O1013   1.301   .     A
N1015  O1016   1.302   .     A
N1015  O1017   1.302   .     A
N1018  O1020   1.300   .     A
N1018  O1019   1.302   .     A
O1021  Zn1035  2.018   .     S
O1021  C1027   1.297   .     A
O1022  Zn1036  2.018   .     S
O1022  C1028   1.292   .     A
O1023  C1028   1.306   .     A
O1023  Zn1035  1.982   .     S
O1024  C1027   1.300   .     A
O1024  Zn1036  1.982   .     S
N1025  C1040   1.366   .     A
N1025  C1038   1.380   .     A
N1025  Zn1035  2.032   .     S
N1026  C1039   1.374   .     A
N1026  C1037   1.390   .     A
N1026  Zn1036  2.032   .     S
C1027  C1058   1.450   .     S
C1028  C1057   1.449   .     S
O1029  C1033   1.301   .     A
O1029  Zn1035  2.018   .     S
O1030  C1034   1.306   .     A
O1030  Zn1036  2.018   .     S
O1031  C1034   1.296   .     A
O1031  Zn1035  1.995   .     S
O1032  Zn1036  1.995   .     S
O1032  C1033   1.303   .     A
C1033  C1053   1.465   .     S
C1034  C1054   1.456   .     S
C1037  N1059   1.444   .     S
C1037  C1652   1.425   1_545 S
C1038  N1062   1.440   .     S
C1038  C1345   1.427   .     S
C1039  N1065   1.437   .     S
C1039  C1650   1.427   1_545 S
C1040  N1068   1.436   .     S
C1040  C1343   1.425   .     S
C1041  C1058   1.407   .     A
C1041  N1111   1.441   .     S
C1042  N1114   1.438   .     S
C1042  C1057   1.403   .     A
C1042  C1146   1.389   .     S
C1043  C1057   1.417   .     A
C1043  N1117   1.437   .     S
C1043  C1143   1.390   .     S
C1044  C1058   1.407   .     A
C1044  N1120   1.445   .     S
C1045  C1049   1.404   .     A
C1045  O1071   1.384   .     S
C1045  C1055   1.405   .     A
C1046  C1056   1.408   .     A
C1046  C1050   1.384   .     A
C1046  O1076   1.386   .     S
C1047  O1081   1.384   .     S
C1047  C1051   1.403   .     A
C1047  C1056   1.410   .     A
C1048  C1055   1.405   .     A
C1048  C1052   1.381   .     A
C1048  O1086   1.385   .     S
C1049  C1053   1.416   .     A
C1049  O1091   1.387   .     S
C1050  C1054   1.400   .     A
C1050  O1096   1.375   .     S
C1051  C1054   1.409   .     A
C1051  O1101   1.388   .     S
C1052  O1106   1.378   .     S
C1052  C1053   1.407   .     A
C1056  C137    1.454   1_556 S
N1059  O1061   1.302   .     A
N1059  O1060   1.290   .     A
N1062  O1064   1.300   .     A
N1062  O1063   1.294   .     A
N1065  O1066   1.298   .     A
N1065  O1067   1.300   .     A
N1068  O1069   1.298   .     A
N1068  O1070   1.300   .     A
O1071  C1072   1.409   .     S
C1072  H1075   1.109   .     S
C1072  H1074   1.115   .     S
C1072  H1073   1.110   .     S
O1076  C1077   1.409   .     S
C1077  H1079   1.116   .     S
C1077  H162    1.109   1_556 S
C1077  H160    1.110   1_556 S
O1081  C1082   1.410   .     S
C1082  H1084   1.114   .     S
C1082  H1085   1.109   .     S
C1082  H165    1.111   1_556 S
O1086  C1087   1.409   .     S
C1087  H1089   1.114   .     S
H1088  C169    1.111   1_556 S
H1090  C169    1.109   1_556 S
O1091  C1092   1.412   .     S
C1092  H1095   1.106   .     S
C1092  H1094   1.109   .     S
C1092  H1093   1.116   .     S
O1096  C1097   1.416   .     S
C1097  H1098   1.117   .     S
C1097  H1099   1.111   .     S
C1097  H1100   1.105   .     S
O1101  C1102   1.412   .     S
C1102  H1104   1.110   .     S
C1102  H1105   1.110   .     S
C1102  H1103   1.115   .     S
O1106  C1107   1.412   .     S
C1107  H1108   1.115   .     S
C1107  H1110   1.108   .     S
C1107  H1109   1.113   .     S
N1111  O1113   1.301   .     A
N1111  O1112   1.301   .     A
N1114  O1116   1.300   .     A
N1114  O1115   1.301   .     A
N1117  O1118   1.302   .     A
N1117  O1119   1.302   .     A
N1120  O1122   1.300   .     A
N1120  O1121   1.302   .     A
O1123  Zn1137  2.018   .     S
O1123  C1129   1.297   .     A
O1124  Zn1138  2.018   .     S
O1124  C1130   1.292   .     A
O1125  C1130   1.306   .     A
O1125  Zn1137  1.982   .     S
O1126  C1129   1.300   .     A
O1126  Zn1138  1.982   .     S
N1127  C1142   1.366   .     A
N1127  C1140   1.380   .     A
N1127  Zn1137  2.032   .     S
N1128  C1141   1.374   .     A
N1128  C1139   1.390   .     A
N1128  Zn1138  2.032   .     S
C1129  C1160   1.450   .     S
C1130  C1159   1.449   .     S
O1131  C1135   1.301   .     A
O1131  Zn1137  2.018   .     S
O1132  C1136   1.306   .     A
O1132  Zn1138  2.018   .     S
O1133  C1136   1.296   .     A
O1133  Zn1137  1.995   .     S
O1134  Zn1138  1.995   .     S
O1134  C1135   1.303   .     A
C1135  C1155   1.465   .     S
C1136  C1156   1.456   .     S
C1139  N1161   1.444   .     S
C1139  C1754   1.425   1_545 S
C1140  N1164   1.440   .     S
C1140  C1447   1.427   .     S
C1141  N1167   1.437   .     S
C1141  C1752   1.427   1_545 S
C1142  N1170   1.436   .     S
C1142  C1445   1.425   .     S
C1143  C1160   1.407   .     A
C1143  N1213   1.441   .     S
C1144  N1216   1.438   .     S
C1144  C1159   1.403   .     A
C1144  C942    1.389   1_655 S
C1145  C1159   1.417   .     A
C1145  N1219   1.437   .     S
C1145  C939    1.390   1_655 S
C1146  C1160   1.407   .     A
C1146  N1222   1.445   .     S
C1147  C1151   1.404   .     A
C1147  O1173   1.384   .     S
C1147  C1157   1.405   .     A
C1148  C1158   1.408   .     A
C1148  C1152   1.384   .     A
C1148  O1178   1.386   .     S
C1149  O1183   1.384   .     S
C1149  C1153   1.403   .     A
C1149  C1158   1.410   .     A
C1150  C1157   1.405   .     A
C1150  C1154   1.381   .     A
C1150  O1188   1.385   .     S
C1151  C1155   1.416   .     A
C1151  O1193   1.387   .     S
C1152  C1156   1.400   .     A
C1152  O1198   1.375   .     S
C1153  C1156   1.409   .     A
C1153  O1203   1.388   .     S
C1154  O1208   1.378   .     S
C1154  C1155   1.407   .     A
C1158  C239    1.454   1_556 S
N1161  O1163   1.302   .     A
N1161  O1162   1.290   .     A
N1164  O1166   1.300   .     A
N1164  O1165   1.294   .     A
N1167  O1168   1.298   .     A
N1167  O1169   1.300   .     A
N1170  O1171   1.298   .     A
N1170  O1172   1.300   .     A
O1173  C1174   1.409   .     S
C1174  H1177   1.109   .     S
C1174  H1176   1.115   .     S
C1174  H1175   1.110   .     S
O1178  C1179   1.409   .     S
C1179  H1181   1.116   .     S
C1179  H264    1.109   1_556 S
C1179  H262    1.110   1_556 S
O1183  C1184   1.410   .     S
C1184  H1186   1.114   .     S
C1184  H1187   1.109   .     S
C1184  H267    1.111   1_556 S
O1188  C1189   1.409   .     S
C1189  H1191   1.114   .     S
H1190  C271    1.111   1_556 S
H1192  C271    1.109   1_556 S
O1193  C1194   1.412   .     S
C1194  H1197   1.106   .     S
C1194  H1196   1.109   .     S
C1194  H1195   1.116   .     S
O1198  C1199   1.416   .     S
C1199  H1200   1.117   .     S
C1199  H1201   1.111   .     S
C1199  H1202   1.105   .     S
O1203  C1204   1.412   .     S
C1204  H1206   1.110   .     S
C1204  H1207   1.110   .     S
C1204  H1205   1.115   .     S
O1208  C1209   1.412   .     S
C1209  H1210   1.115   .     S
C1209  H1212   1.108   .     S
C1209  H1211   1.113   .     S
N1213  O1215   1.301   .     A
N1213  O1214   1.301   .     A
N1216  O1218   1.300   .     A
N1216  O1217   1.301   .     A
N1219  O1220   1.302   .     A
N1219  O1221   1.302   .     A
N1222  O1224   1.300   .     A
N1222  O1223   1.302   .     A
O1225  Zn1239  2.018   .     S
O1225  C1231   1.297   .     A
O1226  Zn1240  2.018   .     S
O1226  C1232   1.292   .     A
O1227  C1232   1.306   .     A
O1227  Zn1239  1.982   .     S
O1228  C1231   1.300   .     A
O1228  Zn1240  1.982   .     S
N1229  C1244   1.366   .     A
N1229  C1242   1.380   .     A
N1229  Zn1239  2.032   .     S
N1230  C1243   1.374   .     A
N1230  C1241   1.390   .     A
N1230  Zn1240  2.032   .     S
C1231  C1262   1.450   .     S
C1232  C1261   1.449   .     S
O1233  C1237   1.301   .     A
O1233  Zn1239  2.018   .     S
O1234  C1238   1.306   .     A
O1234  Zn1240  2.018   .     S
O1235  C1238   1.296   .     A
O1235  Zn1239  1.995   .     S
O1236  Zn1240  1.995   .     S
O1236  C1237   1.303   .     A
C1237  C1257   1.465   .     S
C1238  C1258   1.456   .     S
C1241  N1263   1.444   .     S
C1242  N1266   1.440   .     S
C1242  C1549   1.427   .     S
C1243  N1269   1.437   .     S
C1244  N1272   1.436   .     S
C1244  C1547   1.425   .     S
C1245  C1262   1.407   .     A
C1245  N1315   1.441   .     S
C1245  C1451   1.390   1_455 S
C1246  N1318   1.438   .     S
C1246  C1261   1.403   .     A
C1246  C1350   1.389   .     S
C1247  C1261   1.417   .     A
C1247  N1321   1.437   .     S
C1247  C1347   1.390   .     S
C1248  C1262   1.407   .     A
C1248  N1324   1.445   .     S
C1248  C1450   1.389   1_455 S
C1249  C1253   1.404   .     A
C1249  O1275   1.384   .     S
C1249  C1259   1.405   .     A
C1250  C1260   1.408   .     A
C1250  C1254   1.384   .     A
C1250  O1280   1.386   .     S
C1251  O1285   1.384   .     S
C1251  C1255   1.403   .     A
C1251  C1260   1.410   .     A
C1252  C1259   1.405   .     A
C1252  C1256   1.381   .     A
C1252  O1290   1.385   .     S
C1253  C1257   1.416   .     A
C1253  O1295   1.387   .     S
C1254  C1258   1.400   .     A
C1254  O1300   1.375   .     S
C1255  C1258   1.409   .     A
C1255  O1305   1.388   .     S
C1256  O1310   1.378   .     S
C1256  C1257   1.407   .     A
C1260  C341    1.454   1_556 S
N1263  O1265   1.302   .     A
N1263  O1264   1.290   .     A
N1266  O1268   1.300   .     A
N1266  O1267   1.294   .     A
N1269  O1270   1.298   .     A
N1269  O1271   1.300   .     A
N1272  O1273   1.298   .     A
N1272  O1274   1.300   .     A
O1275  C1276   1.409   .     S
C1276  H1279   1.109   .     S
C1276  H1278   1.115   .     S
C1276  H1277   1.110   .     S
O1280  C1281   1.409   .     S
C1281  H1283   1.116   .     S
C1281  H366    1.109   1_556 S
C1281  H364    1.110   1_556 S
O1285  C1286   1.410   .     S
C1286  H1288   1.114   .     S
C1286  H1289   1.109   .     S
C1286  H369    1.111   1_556 S
O1290  C1291   1.409   .     S
C1291  H1293   1.114   .     S
H1292  C373    1.111   1_556 S
H1294  C373    1.109   1_556 S
O1295  C1296   1.412   .     S
C1296  H1299   1.106   .     S
C1296  H1298   1.109   .     S
C1296  H1297   1.116   .     S
O1300  C1301   1.416   .     S
C1301  H1302   1.117   .     S
C1301  H1303   1.111   .     S
C1301  H1304   1.105   .     S
O1305  C1306   1.412   .     S
C1306  H1308   1.110   .     S
C1306  H1309   1.110   .     S
C1306  H1307   1.115   .     S
O1310  C1311   1.412   .     S
C1311  H1312   1.115   .     S
C1311  H1314   1.108   .     S
C1311  H1313   1.113   .     S
N1315  O1317   1.301   .     A
N1315  O1316   1.301   .     A
N1318  O1320   1.300   .     A
N1318  O1319   1.301   .     A
N1321  O1322   1.302   .     A
N1321  O1323   1.302   .     A
N1324  O1326   1.300   .     A
N1324  O1325   1.302   .     A
O1327  Zn1341  2.018   .     S
O1327  C1333   1.297   .     A
O1328  Zn1342  2.018   .     S
O1328  C1334   1.292   .     A
O1329  C1334   1.306   .     A
O1329  Zn1341  1.982   .     S
O1330  C1333   1.300   .     A
O1330  Zn1342  1.982   .     S
N1331  C1346   1.366   .     A
N1331  C1344   1.380   .     A
N1331  Zn1341  2.032   .     S
N1332  C1345   1.374   .     A
N1332  C1343   1.390   .     A
N1332  Zn1342  2.032   .     S
C1333  C1364   1.450   .     S
C1334  C1363   1.449   .     S
O1335  C1339   1.301   .     A
O1335  Zn1341  2.018   .     S
O1336  C1340   1.306   .     A
O1336  Zn1342  2.018   .     S
O1337  C1340   1.296   .     A
O1337  Zn1341  1.995   .     S
O1338  Zn1342  1.995   .     S
O1338  C1339   1.303   .     A
C1339  C1359   1.465   .     S
C1340  C1360   1.456   .     S
C1343  N1365   1.444   .     S
C1344  N1368   1.440   .     S
C1344  C1651   1.427   .     S
C1345  N1371   1.437   .     S
C1346  N1374   1.436   .     S
C1346  C1649   1.425   .     S
C1347  C1364   1.407   .     A
C1347  N1417   1.441   .     S
C1348  N1420   1.438   .     S
C1348  C1363   1.403   .     A
C1348  C1452   1.389   .     S
C1349  C1363   1.417   .     A
C1349  N1423   1.437   .     S
C1349  C1449   1.390   .     S
C1350  C1364   1.407   .     A
C1350  N1426   1.445   .     S
C1351  C1355   1.404   .     A
C1351  O1377   1.384   .     S
C1351  C1361   1.405   .     A
C1352  C1362   1.408   .     A
C1352  C1356   1.384   .     A
C1352  O1382   1.386   .     S
C1353  O1387   1.384   .     S
C1353  C1357   1.403   .     A
C1353  C1362   1.410   .     A
C1354  C1361   1.405   .     A
C1354  C1358   1.381   .     A
C1354  O1392   1.385   .     S
C1355  C1359   1.416   .     A
C1355  O1397   1.387   .     S
C1356  C1360   1.400   .     A
C1356  O1402   1.375   .     S
C1357  C1360   1.409   .     A
C1357  O1407   1.388   .     S
C1358  O1412   1.378   .     S
C1358  C1359   1.407   .     A
C1362  C443    1.454   1_556 S
N1365  O1367   1.302   .     A
N1365  O1366   1.290   .     A
N1368  O1370   1.300   .     A
N1368  O1369   1.294   .     A
N1371  O1372   1.298   .     A
N1371  O1373   1.300   .     A
N1374  O1375   1.298   .     A
N1374  O1376   1.300   .     A
O1377  C1378   1.409   .     S
C1378  H1381   1.109   .     S
C1378  H1380   1.115   .     S
C1378  H1379   1.110   .     S
O1382  C1383   1.409   .     S
C1383  H1385   1.116   .     S
C1383  H468    1.109   1_556 S
C1383  H466    1.110   1_556 S
O1387  C1388   1.410   .     S
C1388  H1390   1.114   .     S
C1388  H1391   1.109   .     S
C1388  H471    1.111   1_556 S
O1392  C1393   1.409   .     S
C1393  H1395   1.114   .     S
H1394  C475    1.111   1_556 S
H1396  C475    1.109   1_556 S
O1397  C1398   1.412   .     S
C1398  H1401   1.106   .     S
C1398  H1400   1.109   .     S
C1398  H1399   1.116   .     S
O1402  C1403   1.416   .     S
C1403  H1404   1.117   .     S
C1403  H1405   1.111   .     S
C1403  H1406   1.105   .     S
O1407  C1408   1.412   .     S
C1408  H1410   1.110   .     S
C1408  H1411   1.110   .     S
C1408  H1409   1.115   .     S
O1412  C1413   1.412   .     S
C1413  H1414   1.115   .     S
C1413  H1416   1.108   .     S
C1413  H1415   1.113   .     S
N1417  O1419   1.301   .     A
N1417  O1418   1.301   .     A
N1420  O1422   1.300   .     A
N1420  O1421   1.301   .     A
N1423  O1424   1.302   .     A
N1423  O1425   1.302   .     A
N1426  O1428   1.300   .     A
N1426  O1427   1.302   .     A
O1429  Zn1443  2.018   .     S
O1429  C1435   1.297   .     A
O1430  Zn1444  2.018   .     S
O1430  C1436   1.292   .     A
O1431  C1436   1.306   .     A
O1431  Zn1443  1.982   .     S
O1432  C1435   1.300   .     A
O1432  Zn1444  1.982   .     S
N1433  C1448   1.366   .     A
N1433  C1446   1.380   .     A
N1433  Zn1443  2.032   .     S
N1434  C1447   1.374   .     A
N1434  C1445   1.390   .     A
N1434  Zn1444  2.032   .     S
C1435  C1466   1.450   .     S
C1436  C1465   1.449   .     S
O1437  C1441   1.301   .     A
O1437  Zn1443  2.018   .     S
O1438  C1442   1.306   .     A
O1438  Zn1444  2.018   .     S
O1439  C1442   1.296   .     A
O1439  Zn1443  1.995   .     S
O1440  Zn1444  1.995   .     S
O1440  C1441   1.303   .     A
C1441  C1461   1.465   .     S
C1442  C1462   1.456   .     S
C1445  N1467   1.444   .     S
C1446  N1470   1.440   .     S
C1446  C1753   1.427   .     S
C1447  N1473   1.437   .     S
C1448  N1476   1.436   .     S
C1448  C1751   1.425   .     S
C1449  C1466   1.407   .     A
C1449  N1519   1.441   .     S
C1450  N1522   1.438   .     S
C1450  C1465   1.403   .     A
C1450  C1248   1.389   1_655 S
C1451  C1465   1.417   .     A
C1451  N1525   1.437   .     S
C1451  C1245   1.390   1_655 S
C1452  C1466   1.407   .     A
C1452  N1528   1.445   .     S
C1453  C1457   1.404   .     A
C1453  O1479   1.384   .     S
C1453  C1463   1.405   .     A
C1454  C1464   1.408   .     A
C1454  C1458   1.384   .     A
C1454  O1484   1.386   .     S
C1455  O1489   1.384   .     S
C1455  C1459   1.403   .     A
C1455  C1464   1.410   .     A
C1456  C1463   1.405   .     A
C1456  C1460   1.381   .     A
C1456  O1494   1.385   .     S
C1457  C1461   1.416   .     A
C1457  O1499   1.387   .     S
C1458  C1462   1.400   .     A
C1458  O1504   1.375   .     S
C1459  C1462   1.409   .     A
C1459  O1509   1.388   .     S
C1460  O1514   1.378   .     S
C1460  C1461   1.407   .     A
C1464  C545    1.454   1_556 S
N1467  O1469   1.302   .     A
N1467  O1468   1.290   .     A
N1470  O1472   1.300   .     A
N1470  O1471   1.294   .     A
N1473  O1474   1.298   .     A
N1473  O1475   1.300   .     A
N1476  O1477   1.298   .     A
N1476  O1478   1.300   .     A
O1479  C1480   1.409   .     S
C1480  H1483   1.109   .     S
C1480  H1482   1.115   .     S
C1480  H1481   1.110   .     S
O1484  C1485   1.409   .     S
C1485  H1487   1.116   .     S
C1485  H570    1.109   1_556 S
C1485  H568    1.110   1_556 S
O1489  C1490   1.410   .     S
C1490  H1492   1.114   .     S
C1490  H1493   1.109   .     S
C1490  H573    1.111   1_556 S
O1494  C1495   1.409   .     S
C1495  H1497   1.114   .     S
H1496  C577    1.111   1_556 S
H1498  C577    1.109   1_556 S
O1499  C1500   1.412   .     S
C1500  H1503   1.106   .     S
C1500  H1502   1.109   .     S
C1500  H1501   1.116   .     S
O1504  C1505   1.416   .     S
C1505  H1506   1.117   .     S
C1505  H1507   1.111   .     S
C1505  H1508   1.105   .     S
O1509  C1510   1.412   .     S
C1510  H1512   1.110   .     S
C1510  H1513   1.110   .     S
C1510  H1511   1.115   .     S
O1514  C1515   1.412   .     S
C1515  H1516   1.115   .     S
C1515  H1518   1.108   .     S
C1515  H1517   1.113   .     S
N1519  O1521   1.301   .     A
N1519  O1520   1.301   .     A
N1522  O1524   1.300   .     A
N1522  O1523   1.301   .     A
N1525  O1526   1.302   .     A
N1525  O1527   1.302   .     A
N1528  O1530   1.300   .     A
N1528  O1529   1.302   .     A
O1531  Zn1545  2.018   .     S
O1531  C1537   1.297   .     A
O1532  Zn1546  2.018   .     S
O1532  C1538   1.292   .     A
O1533  C1538   1.306   .     A
O1533  Zn1545  1.982   .     S
O1534  C1537   1.300   .     A
O1534  Zn1546  1.982   .     S
N1535  C1550   1.366   .     A
N1535  C1548   1.380   .     A
N1535  Zn1545  2.032   .     S
N1536  C1549   1.374   .     A
N1536  C1547   1.390   .     A
N1536  Zn1546  2.032   .     S
C1537  C1568   1.450   .     S
C1538  C1567   1.449   .     S
O1539  C1543   1.301   .     A
O1539  Zn1545  2.018   .     S
O1540  C1544   1.306   .     A
O1540  Zn1546  2.018   .     S
O1541  C1544   1.296   .     A
O1541  Zn1545  1.995   .     S
O1542  Zn1546  1.995   .     S
O1542  C1543   1.303   .     A
C1543  C1563   1.465   .     S
C1544  C1564   1.456   .     S
C1547  N1569   1.444   .     S
C1548  N1572   1.440   .     S
C1548  C937    1.427   1_565 S
C1549  N1575   1.437   .     S
C1550  N1578   1.436   .     S
C1550  C935    1.425   1_565 S
C1551  C1568   1.407   .     A
C1551  N1621   1.441   .     S
C1551  C1757   1.390   1_455 S
C1552  N1624   1.438   .     S
C1552  C1567   1.403   .     A
C1552  C1656   1.389   .     S
C1553  C1567   1.417   .     A
C1553  N1627   1.437   .     S
C1553  C1653   1.390   .     S
C1554  C1568   1.407   .     A
C1554  N1630   1.445   .     S
C1554  C1756   1.389   1_455 S
C1555  C1559   1.404   .     A
C1555  O1581   1.384   .     S
C1555  C1565   1.405   .     A
C1556  C1566   1.408   .     A
C1556  C1560   1.384   .     A
C1556  O1586   1.386   .     S
C1557  O1591   1.384   .     S
C1557  C1561   1.403   .     A
C1557  C1566   1.410   .     A
C1558  C1565   1.405   .     A
C1558  C1562   1.381   .     A
C1558  O1596   1.385   .     S
C1559  C1563   1.416   .     A
C1559  O1601   1.387   .     S
C1560  C1564   1.400   .     A
C1560  O1606   1.375   .     S
C1561  C1564   1.409   .     A
C1561  O1611   1.388   .     S
C1562  O1616   1.378   .     S
C1562  C1563   1.407   .     A
C1566  C647    1.454   1_556 S
N1569  O1571   1.302   .     A
N1569  O1570   1.290   .     A
N1572  O1574   1.300   .     A
N1572  O1573   1.294   .     A
N1575  O1576   1.298   .     A
N1575  O1577   1.300   .     A
N1578  O1579   1.298   .     A
N1578  O1580   1.300   .     A
O1581  C1582   1.409   .     S
C1582  H1585   1.109   .     S
C1582  H1584   1.115   .     S
C1582  H1583   1.110   .     S
O1586  C1587   1.409   .     S
C1587  H1589   1.116   .     S
C1587  H672    1.109   1_556 S
C1587  H670    1.110   1_556 S
O1591  C1592   1.410   .     S
C1592  H1594   1.114   .     S
C1592  H1595   1.109   .     S
C1592  H675    1.111   1_556 S
O1596  C1597   1.409   .     S
C1597  H1599   1.114   .     S
H1598  C679    1.111   1_556 S
H1600  C679    1.109   1_556 S
O1601  C1602   1.412   .     S
C1602  H1605   1.106   .     S
C1602  H1604   1.109   .     S
C1602  H1603   1.116   .     S
O1606  C1607   1.416   .     S
C1607  H1608   1.117   .     S
C1607  H1609   1.111   .     S
C1607  H1610   1.105   .     S
O1611  C1612   1.412   .     S
C1612  H1614   1.110   .     S
C1612  H1615   1.110   .     S
C1612  H1613   1.115   .     S
O1616  C1617   1.412   .     S
C1617  H1618   1.115   .     S
C1617  H1620   1.108   .     S
C1617  H1619   1.113   .     S
N1621  O1623   1.301   .     A
N1621  O1622   1.301   .     A
N1624  O1626   1.300   .     A
N1624  O1625   1.301   .     A
N1627  O1628   1.302   .     A
N1627  O1629   1.302   .     A
N1630  O1632   1.300   .     A
N1630  O1631   1.302   .     A
O1633  Zn1647  2.018   .     S
O1633  C1639   1.297   .     A
O1634  Zn1648  2.018   .     S
O1634  C1640   1.292   .     A
O1635  C1640   1.306   .     A
O1635  Zn1647  1.982   .     S
O1636  C1639   1.300   .     A
O1636  Zn1648  1.982   .     S
N1637  C1652   1.366   .     A
N1637  C1650   1.380   .     A
N1637  Zn1647  2.032   .     S
N1638  C1651   1.374   .     A
N1638  C1649   1.390   .     A
N1638  Zn1648  2.032   .     S
C1639  C1670   1.450   .     S
C1640  C1669   1.449   .     S
O1641  C1645   1.301   .     A
O1641  Zn1647  2.018   .     S
O1642  C1646   1.306   .     A
O1642  Zn1648  2.018   .     S
O1643  C1646   1.296   .     A
O1643  Zn1647  1.995   .     S
O1644  Zn1648  1.995   .     S
O1644  C1645   1.303   .     A
C1645  C1665   1.465   .     S
C1646  C1666   1.456   .     S
C1649  N1671   1.444   .     S
C1650  N1674   1.440   .     S
C1650  C1039   1.427   1_565 S
C1651  N1677   1.437   .     S
C1652  N1680   1.436   .     S
C1652  C1037   1.425   1_565 S
C1653  C1670   1.407   .     A
C1653  N1723   1.441   .     S
C1654  N1726   1.438   .     S
C1654  C1669   1.403   .     A
C1654  C1758   1.389   .     S
C1655  C1669   1.417   .     A
C1655  N1729   1.437   .     S
C1655  C1755   1.390   .     S
C1656  C1670   1.407   .     A
C1656  N1732   1.445   .     S
C1657  C1661   1.404   .     A
C1657  O1683   1.384   .     S
C1657  C1667   1.405   .     A
C1658  C1668   1.408   .     A
C1658  C1662   1.384   .     A
C1658  O1688   1.386   .     S
C1659  O1693   1.384   .     S
C1659  C1663   1.403   .     A
C1659  C1668   1.410   .     A
C1660  C1667   1.405   .     A
C1660  C1664   1.381   .     A
C1660  O1698   1.385   .     S
C1661  C1665   1.416   .     A
C1661  O1703   1.387   .     S
C1662  C1666   1.400   .     A
C1662  O1708   1.375   .     S
C1663  C1666   1.409   .     A
C1663  O1713   1.388   .     S
C1664  O1718   1.378   .     S
C1664  C1665   1.407   .     A
C1668  C749    1.454   1_556 S
N1671  O1673   1.302   .     A
N1671  O1672   1.290   .     A
N1674  O1676   1.300   .     A
N1674  O1675   1.294   .     A
N1677  O1678   1.298   .     A
N1677  O1679   1.300   .     A
N1680  O1681   1.298   .     A
N1680  O1682   1.300   .     A
O1683  C1684   1.409   .     S
C1684  H1687   1.109   .     S
C1684  H1686   1.115   .     S
C1684  H1685   1.110   .     S
O1688  C1689   1.409   .     S
C1689  H1691   1.116   .     S
C1689  H774    1.109   1_556 S
C1689  H772    1.110   1_556 S
O1693  C1694   1.410   .     S
C1694  H1696   1.114   .     S
C1694  H1697   1.109   .     S
C1694  H777    1.111   1_556 S
O1698  C1699   1.409   .     S
C1699  H1701   1.114   .     S
H1700  C781    1.111   1_556 S
H1702  C781    1.109   1_556 S
O1703  C1704   1.412   .     S
C1704  H1707   1.106   .     S
C1704  H1706   1.109   .     S
C1704  H1705   1.116   .     S
O1708  C1709   1.416   .     S
C1709  H1710   1.117   .     S
C1709  H1711   1.111   .     S
C1709  H1712   1.105   .     S
O1713  C1714   1.412   .     S
C1714  H1716   1.110   .     S
C1714  H1717   1.110   .     S
C1714  H1715   1.115   .     S
O1718  C1719   1.412   .     S
C1719  H1720   1.115   .     S
C1719  H1722   1.108   .     S
C1719  H1721   1.113   .     S
N1723  O1725   1.301   .     A
N1723  O1724   1.301   .     A
N1726  O1728   1.300   .     A
N1726  O1727   1.301   .     A
N1729  O1730   1.302   .     A
N1729  O1731   1.302   .     A
N1732  O1734   1.300   .     A
N1732  O1733   1.302   .     A
O1735  Zn1749  2.018   .     S
O1735  C1741   1.297   .     A
O1736  Zn1750  2.018   .     S
O1736  C1742   1.292   .     A
O1737  C1742   1.306   .     A
O1737  Zn1749  1.982   .     S
O1738  C1741   1.300   .     A
O1738  Zn1750  1.982   .     S
N1739  C1754   1.366   .     A
N1739  C1752   1.380   .     A
N1739  Zn1749  2.032   .     S
N1740  C1753   1.374   .     A
N1740  C1751   1.390   .     A
N1740  Zn1750  2.032   .     S
C1741  C1772   1.450   .     S
C1742  C1771   1.449   .     S
O1743  C1747   1.301   .     A
O1743  Zn1749  2.018   .     S
O1744  C1748   1.306   .     A
O1744  Zn1750  2.018   .     S
O1745  C1748   1.296   .     A
O1745  Zn1749  1.995   .     S
O1746  Zn1750  1.995   .     S
O1746  C1747   1.303   .     A
C1747  C1767   1.465   .     S
C1748  C1768   1.456   .     S
C1751  N1773   1.444   .     S
C1752  N1776   1.440   .     S
C1752  C1141   1.427   1_565 S
C1753  N1779   1.437   .     S
C1754  N1782   1.436   .     S
C1754  C1139   1.425   1_565 S
C1755  C1772   1.407   .     A
C1755  N1825   1.441   .     S
C1756  N1828   1.438   .     S
C1756  C1771   1.403   .     A
C1756  C1554   1.389   1_655 S
C1757  C1771   1.417   .     A
C1757  N1831   1.437   .     S
C1757  C1551   1.390   1_655 S
C1758  C1772   1.407   .     A
C1758  N1834   1.445   .     S
C1759  C1763   1.404   .     A
C1759  O1785   1.384   .     S
C1759  C1769   1.405   .     A
C1760  C1770   1.408   .     A
C1760  C1764   1.384   .     A
C1760  O1790   1.386   .     S
C1761  O1795   1.384   .     S
C1761  C1765   1.403   .     A
C1761  C1770   1.410   .     A
C1762  C1769   1.405   .     A
C1762  C1766   1.381   .     A
C1762  O1800   1.385   .     S
C1763  C1767   1.416   .     A
C1763  O1805   1.387   .     S
C1764  C1768   1.400   .     A
C1764  O1810   1.375   .     S
C1765  C1768   1.409   .     A
C1765  O1815   1.388   .     S
C1766  O1820   1.378   .     S
C1766  C1767   1.407   .     A
C1770  C851    1.454   1_556 S
N1773  O1775   1.302   .     A
N1773  O1774   1.290   .     A
N1776  O1778   1.300   .     A
N1776  O1777   1.294   .     A
N1779  O1780   1.298   .     A
N1779  O1781   1.300   .     A
N1782  O1783   1.298   .     A
N1782  O1784   1.300   .     A
O1785  C1786   1.409   .     S
C1786  H1789   1.109   .     S
C1786  H1788   1.115   .     S
C1786  H1787   1.110   .     S
O1790  C1791   1.409   .     S
C1791  H1793   1.116   .     S
C1791  H876    1.109   1_556 S
C1791  H874    1.110   1_556 S
O1795  C1796   1.410   .     S
C1796  H1798   1.114   .     S
C1796  H1799   1.109   .     S
C1796  H879    1.111   1_556 S
O1800  C1801   1.409   .     S
C1801  H1803   1.114   .     S
H1802  C883    1.111   1_556 S
H1804  C883    1.109   1_556 S
O1805  C1806   1.412   .     S
C1806  H1809   1.106   .     S
C1806  H1808   1.109   .     S
C1806  H1807   1.116   .     S
O1810  C1811   1.416   .     S
C1811  H1812   1.117   .     S
C1811  H1813   1.111   .     S
C1811  H1814   1.105   .     S
O1815  C1816   1.412   .     S
C1816  H1818   1.110   .     S
C1816  H1819   1.110   .     S
C1816  H1817   1.115   .     S
O1820  C1821   1.412   .     S
C1821  H1822   1.115   .     S
C1821  H1824   1.108   .     S
C1821  H1823   1.113   .     S
N1825  O1827   1.301   .     A
N1825  O1826   1.301   .     A
N1828  O1830   1.300   .     A
N1828  O1829   1.301   .     A
N1831  O1832   1.302   .     A
N1831  O1833   1.302   .     A
N1834  O1836   1.300   .     A
N1834  O1835   1.302   .     A
