data_str_m2_o10_o17_pcu_sym.2
_audit_creation_date              2020-01-03
_audit_creation_method            'Materials Studio'
_symmetry_space_group_name_H-M    'P1'
_symmetry_Int_Tables_number       1
_symmetry_cell_setting            triclinic
loop_
_symmetry_equiv_pos_as_xyz
  x,y,z
_cell_length_a                    30.0384
_cell_length_b                    25.9643
_cell_length_c                    22.6813
_cell_angle_alpha                 102.5020
_cell_angle_beta                  95.5327
_cell_angle_gamma                 93.9337
loop_
_atom_site_label
_atom_site_type_symbol
_atom_site_fract_x
_atom_site_fract_y
_atom_site_fract_z
_atom_site_U_iso_or_equiv
_atom_site_adp_type
_atom_site_occupancy
C1     C     0.24762   0.06672   0.15133   0.00000  Uiso   1.00
C2     C     0.08973   0.12351   0.13983   0.00000  Uiso   1.00
C3     C     0.38321   0.16366   0.16592   0.00000  Uiso   1.00
C4     C     0.11679   0.16968   0.16741   0.00000  Uiso   1.00
C5     C     0.40183   0.11715   0.13869   0.00000  Uiso   1.00
C6     C     0.09817   0.21620   0.19463   0.00000  Uiso   1.00
C7     C     0.44901   0.11852   0.13877   0.00000  Uiso   1.00
C8     C     0.05098   0.21483   0.19454   0.00000  Uiso   1.00
C9     C     0.47646   0.16599   0.16654   0.00000  Uiso   1.00
C10    C     0.02354   0.16737   0.16677   0.00000  Uiso   1.00
C11    C     0.45687   0.21202   0.19413   0.00000  Uiso   1.00
C12    C     0.25238   0.26661   0.18201   0.00000  Uiso   1.00
C13    C     0.04313   0.12133   0.13918   0.00000  Uiso   1.00
C14    C     0.46933   0.07339   0.11180   0.00000  Uiso   1.00
C15    C     0.03067   0.25998   0.22148   0.00000  Uiso   1.00
C16    C     0.37209   0.06615   0.11132   0.00000  Uiso   1.00
C17    C     0.12792   0.26718   0.22201   0.00000  Uiso   1.00
C18    C     0.03514   0.02387   0.08225   0.00000  Uiso   1.00
C19    C     0.46486   0.30951   0.25099   0.00000  Uiso   1.00
C20    C     0.21605   0.10166   0.31236   0.00000  Uiso   1.00
C21    C     0.28396   0.23168   0.02097   0.00000  Uiso   1.00
C22    C     0.01578   0.07411   0.11175   0.00000  Uiso   1.00
C23    C     0.48422   0.25926   0.22154   0.00000  Uiso   1.00
C24    C     0.24401   0.01062   0.14334   0.00000  Uiso   1.00
C25    C     0.25600   0.32271   0.18999   0.00000  Uiso   1.00
C26    C     0.16481   0.16759   0.16691   0.00000  Uiso   1.00
C27    C     0.33519   0.16575   0.16642   0.00000  Uiso   1.00
C28    C     0.41027   0.20984   0.19350   0.00000  Uiso   1.00
Cu29   Cu    0.25501   0.17246   0.22813   0.00000  Uiso   1.00
Cu30   Cu    0.24500   0.16087   0.10521   0.00000  Uiso   1.00
H31    H     0.39411   0.24429   0.21388   0.00000  Uiso   1.00
H32    H     0.11761   0.29891   0.19909   0.00000  Uiso   1.00
H33    H     0.12496   0.27944   0.27142   0.00000  Uiso   1.00
H34    H     0.16391   0.26400   0.21695   0.00000  Uiso   1.00
H35    H     0.00866   0.32418   0.06320   0.00000  Uiso   1.00
H36    H     0.05372   0.03093   0.04430   0.00000  Uiso   1.00
H37    H     0.05813   0.01085   0.11640   0.00000  Uiso   1.00
H38    H     0.49133   0.00922   0.27001   0.00000  Uiso   1.00
H39    H     0.44186   0.32251   0.21682   0.00000  Uiso   1.00
H40    H     0.44628   0.30249   0.28896   0.00000  Uiso   1.00
H41    H     0.19255   0.08628   0.00732   0.00000  Uiso   1.00
H42    H     0.10589   0.08905   0.11944   0.00000  Uiso   1.00
H43    H     0.19495   0.10463   0.27108   0.00000  Uiso   1.00
H44    H     0.24149   0.07298   0.30379   0.00000  Uiso   1.00
H45    H     0.30745   0.24705   0.32601   0.00000  Uiso   1.00
H46    H     0.25851   0.26036   0.02954   0.00000  Uiso   1.00
H47    H     0.30505   0.22870   0.06226   0.00000  Uiso   1.00
H48    H     0.44924   0.03681   0.09021   0.00000  Uiso   1.00
H49    H     0.05076   0.29657   0.24305   0.00000  Uiso   1.00
H50    H     0.23043   0.32015   0.09906   0.00000  Uiso   1.00
H51    H     0.26958   0.01319   0.23427   0.00000  Uiso   1.00
H52    H     0.38241   0.03443   0.13423   0.00000  Uiso   1.00
H53    H     0.33611   0.06933   0.11640   0.00000  Uiso   1.00
H54    H     0.37503   0.05389   0.06192   0.00000  Uiso   1.00
N55    N     0.23745   0.15214   0.01284   0.00000  Uiso   1.00
N56    N     0.26256   0.18119   0.32049   0.00000  Uiso   1.00
O57    O     0.25326   0.09538   0.20659   0.00000  Uiso   1.00
O58    O     0.24675   0.23796   0.12674   0.00000  Uiso   1.00
O59    O     0.24480   0.08559   0.10279   0.00000  Uiso   1.00
O60    O     0.25520   0.24774   0.23055   0.00000  Uiso   1.00
O61    O     0.18936   0.17155   0.21857   0.00000  Uiso   1.00
O62    O     0.31065   0.16179   0.11476   0.00000  Uiso   1.00
O63    O     0.18090   0.16176   0.11477   0.00000  Uiso   1.00
O64    O     0.31910   0.17157   0.21857   0.00000  Uiso   1.00
C65    C     0.74762   0.06672   0.15133   0.00000  Uiso   1.00
C66    C     0.58973   0.12351   0.13983   0.00000  Uiso   1.00
C67    C     0.88321   0.16366   0.16592   0.00000  Uiso   1.00
C68    C     0.61679   0.16968   0.16741   0.00000  Uiso   1.00
C69    C     0.90183   0.11715   0.13869   0.00000  Uiso   1.00
C70    C     0.59817   0.21620   0.19463   0.00000  Uiso   1.00
C71    C     0.94901   0.11852   0.13877   0.00000  Uiso   1.00
C72    C     0.55098   0.21483   0.19454   0.00000  Uiso   1.00
C73    C     0.97646   0.16599   0.16654   0.00000  Uiso   1.00
C74    C     0.52354   0.16737   0.16677   0.00000  Uiso   1.00
C75    C     0.95687   0.21202   0.19413   0.00000  Uiso   1.00
C76    C     0.75238   0.26661   0.18201   0.00000  Uiso   1.00
C77    C     0.54313   0.12133   0.13918   0.00000  Uiso   1.00
C78    C     0.96933   0.07339   0.11180   0.00000  Uiso   1.00
C79    C     0.53067   0.25998   0.22148   0.00000  Uiso   1.00
C80    C     0.87209   0.06615   0.11132   0.00000  Uiso   1.00
C81    C     0.62792   0.26718   0.22201   0.00000  Uiso   1.00
C82    C     0.53514   0.02387   0.08225   0.00000  Uiso   1.00
C83    C     0.96486   0.30951   0.25099   0.00000  Uiso   1.00
C84    C     0.71605   0.10166   0.31236   0.00000  Uiso   1.00
C85    C     0.78396   0.23168   0.02097   0.00000  Uiso   1.00
C86    C     0.51578   0.07411   0.11175   0.00000  Uiso   1.00
C87    C     0.98422   0.25926   0.22154   0.00000  Uiso   1.00
C88    C     0.74401   0.01062   0.14334   0.00000  Uiso   1.00
C89    C     0.75600   0.32271   0.18999   0.00000  Uiso   1.00
C90    C     0.66481   0.16759   0.16691   0.00000  Uiso   1.00
C91    C     0.83519   0.16575   0.16642   0.00000  Uiso   1.00
C92    C     0.91027   0.20984   0.19350   0.00000  Uiso   1.00
Cu93   Cu    0.75501   0.17246   0.22813   0.00000  Uiso   1.00
Cu94   Cu    0.74500   0.16087   0.10521   0.00000  Uiso   1.00
H95    H     0.89411   0.24429   0.21388   0.00000  Uiso   1.00
H96    H     0.61761   0.29891   0.19909   0.00000  Uiso   1.00
H97    H     0.62496   0.27944   0.27142   0.00000  Uiso   1.00
H98    H     0.66391   0.26400   0.21695   0.00000  Uiso   1.00
H99    H     0.50866   0.32418   0.06320   0.00000  Uiso   1.00
H100   H     0.55372   0.03093   0.04430   0.00000  Uiso   1.00
H101   H     0.55813   0.01085   0.11640   0.00000  Uiso   1.00
H102   H     0.99133   0.00922   0.27001   0.00000  Uiso   1.00
H103   H     0.94186   0.32251   0.21682   0.00000  Uiso   1.00
H104   H     0.94628   0.30249   0.28896   0.00000  Uiso   1.00
H105   H     0.69255   0.08628   0.00732   0.00000  Uiso   1.00
H106   H     0.60589   0.08905   0.11944   0.00000  Uiso   1.00
H107   H     0.69495   0.10463   0.27108   0.00000  Uiso   1.00
H108   H     0.74149   0.07298   0.30379   0.00000  Uiso   1.00
H109   H     0.80745   0.24705   0.32601   0.00000  Uiso   1.00
H110   H     0.75851   0.26036   0.02954   0.00000  Uiso   1.00
H111   H     0.80505   0.22870   0.06226   0.00000  Uiso   1.00
H112   H     0.94924   0.03681   0.09021   0.00000  Uiso   1.00
H113   H     0.55076   0.29657   0.24305   0.00000  Uiso   1.00
H114   H     0.73043   0.32015   0.09906   0.00000  Uiso   1.00
H115   H     0.76958   0.01319   0.23427   0.00000  Uiso   1.00
H116   H     0.88241   0.03443   0.13423   0.00000  Uiso   1.00
H117   H     0.83611   0.06933   0.11640   0.00000  Uiso   1.00
H118   H     0.87503   0.05389   0.06192   0.00000  Uiso   1.00
N119   N     0.73745   0.15214   0.01284   0.00000  Uiso   1.00
N120   N     0.76256   0.18119   0.32049   0.00000  Uiso   1.00
O121   O     0.75326   0.09538   0.20659   0.00000  Uiso   1.00
O122   O     0.74675   0.23796   0.12674   0.00000  Uiso   1.00
O123   O     0.74480   0.08559   0.10279   0.00000  Uiso   1.00
O124   O     0.75520   0.24774   0.23055   0.00000  Uiso   1.00
O125   O     0.68936   0.17155   0.21857   0.00000  Uiso   1.00
O126   O     0.81065   0.16179   0.11476   0.00000  Uiso   1.00
O127   O     0.68090   0.16176   0.11477   0.00000  Uiso   1.00
O128   O     0.81910   0.17157   0.21857   0.00000  Uiso   1.00
C129   C     0.24762   0.40006   0.15133   0.00000  Uiso   1.00
C130   C     0.08973   0.45685   0.13983   0.00000  Uiso   1.00
C131   C     0.38321   0.49700   0.16592   0.00000  Uiso   1.00
C132   C     0.11679   0.50301   0.16741   0.00000  Uiso   1.00
C133   C     0.40183   0.45048   0.13869   0.00000  Uiso   1.00
C134   C     0.09817   0.54953   0.19463   0.00000  Uiso   1.00
C135   C     0.44901   0.45186   0.13877   0.00000  Uiso   1.00
C136   C     0.05098   0.54816   0.19454   0.00000  Uiso   1.00
C137   C     0.47646   0.49932   0.16654   0.00000  Uiso   1.00
C138   C     0.02354   0.50070   0.16677   0.00000  Uiso   1.00
C139   C     0.45687   0.54536   0.19413   0.00000  Uiso   1.00
C140   C     0.25238   0.59994   0.18201   0.00000  Uiso   1.00
C141   C     0.04313   0.45466   0.13918   0.00000  Uiso   1.00
C142   C     0.46933   0.40672   0.11180   0.00000  Uiso   1.00
C143   C     0.03067   0.59332   0.22148   0.00000  Uiso   1.00
C144   C     0.37209   0.39949   0.11132   0.00000  Uiso   1.00
C145   C     0.12792   0.60052   0.22201   0.00000  Uiso   1.00
C146   C     0.03514   0.35720   0.08225   0.00000  Uiso   1.00
C147   C     0.46486   0.64285   0.25099   0.00000  Uiso   1.00
C148   C     0.21605   0.43499   0.31236   0.00000  Uiso   1.00
C149   C     0.28396   0.56501   0.02097   0.00000  Uiso   1.00
C150   C     0.01578   0.40744   0.11175   0.00000  Uiso   1.00
C151   C     0.48422   0.59260   0.22154   0.00000  Uiso   1.00
C152   C     0.24401   0.34395   0.14334   0.00000  Uiso   1.00
C153   C     0.25600   0.65605   0.18999   0.00000  Uiso   1.00
C154   C     0.16481   0.50092   0.16691   0.00000  Uiso   1.00
C155   C     0.33519   0.49908   0.16642   0.00000  Uiso   1.00
C156   C     0.41027   0.54317   0.19350   0.00000  Uiso   1.00
Cu157  Cu    0.25501   0.50579   0.22813   0.00000  Uiso   1.00
Cu158  Cu    0.24500   0.49421   0.10521   0.00000  Uiso   1.00
H159   H     0.39411   0.57763   0.21388   0.00000  Uiso   1.00
H160   H     0.11761   0.63224   0.19909   0.00000  Uiso   1.00
H161   H     0.12496   0.61278   0.27142   0.00000  Uiso   1.00
H162   H     0.16391   0.59733   0.21695   0.00000  Uiso   1.00
H163   H     0.00866   0.65751   0.06320   0.00000  Uiso   1.00
H164   H     0.05372   0.36426   0.04430   0.00000  Uiso   1.00
H165   H     0.05813   0.34418   0.11640   0.00000  Uiso   1.00
H166   H     0.49133   0.34255   0.27001   0.00000  Uiso   1.00
H167   H     0.44186   0.65584   0.21682   0.00000  Uiso   1.00
H168   H     0.44628   0.63582   0.28896   0.00000  Uiso   1.00
H169   H     0.19255   0.41962   0.00732   0.00000  Uiso   1.00
H170   H     0.10589   0.42239   0.11944   0.00000  Uiso   1.00
H171   H     0.19495   0.43797   0.27108   0.00000  Uiso   1.00
H172   H     0.24149   0.40631   0.30379   0.00000  Uiso   1.00
H173   H     0.30745   0.58038   0.32601   0.00000  Uiso   1.00
H174   H     0.25851   0.59369   0.02954   0.00000  Uiso   1.00
H175   H     0.30505   0.56204   0.06226   0.00000  Uiso   1.00
H176   H     0.44924   0.37015   0.09021   0.00000  Uiso   1.00
H177   H     0.05076   0.62990   0.24305   0.00000  Uiso   1.00
H178   H     0.23043   0.65348   0.09906   0.00000  Uiso   1.00
H179   H     0.26958   0.34652   0.23427   0.00000  Uiso   1.00
H180   H     0.38241   0.36776   0.13423   0.00000  Uiso   1.00
H181   H     0.33611   0.40266   0.11640   0.00000  Uiso   1.00
H182   H     0.37503   0.38722   0.06192   0.00000  Uiso   1.00
N183   N     0.23745   0.48547   0.01284   0.00000  Uiso   1.00
N184   N     0.26256   0.51453   0.32049   0.00000  Uiso   1.00
O185   O     0.25326   0.42871   0.20659   0.00000  Uiso   1.00
O186   O     0.24675   0.57129   0.12674   0.00000  Uiso   1.00
O187   O     0.24480   0.41892   0.10279   0.00000  Uiso   1.00
O188   O     0.25520   0.58108   0.23055   0.00000  Uiso   1.00
O189   O     0.18936   0.50488   0.21857   0.00000  Uiso   1.00
O190   O     0.31065   0.49512   0.11476   0.00000  Uiso   1.00
O191   O     0.18090   0.49510   0.11477   0.00000  Uiso   1.00
O192   O     0.31910   0.50490   0.21857   0.00000  Uiso   1.00
C193   C     0.74762   0.40006   0.15133   0.00000  Uiso   1.00
C194   C     0.58973   0.45685   0.13983   0.00000  Uiso   1.00
C195   C     0.88321   0.49700   0.16592   0.00000  Uiso   1.00
C196   C     0.61679   0.50301   0.16741   0.00000  Uiso   1.00
C197   C     0.90183   0.45048   0.13869   0.00000  Uiso   1.00
C198   C     0.59817   0.54953   0.19463   0.00000  Uiso   1.00
C199   C     0.94901   0.45186   0.13877   0.00000  Uiso   1.00
C200   C     0.55098   0.54816   0.19454   0.00000  Uiso   1.00
C201   C     0.97646   0.49932   0.16654   0.00000  Uiso   1.00
C202   C     0.52354   0.50070   0.16677   0.00000  Uiso   1.00
C203   C     0.95687   0.54536   0.19413   0.00000  Uiso   1.00
C204   C     0.75238   0.59994   0.18201   0.00000  Uiso   1.00
C205   C     0.54313   0.45466   0.13918   0.00000  Uiso   1.00
C206   C     0.96933   0.40672   0.11180   0.00000  Uiso   1.00
C207   C     0.53067   0.59332   0.22148   0.00000  Uiso   1.00
C208   C     0.87209   0.39949   0.11132   0.00000  Uiso   1.00
C209   C     0.62792   0.60052   0.22201   0.00000  Uiso   1.00
C210   C     0.53514   0.35720   0.08225   0.00000  Uiso   1.00
C211   C     0.96486   0.64285   0.25099   0.00000  Uiso   1.00
C212   C     0.71605   0.43499   0.31236   0.00000  Uiso   1.00
C213   C     0.78396   0.56501   0.02097   0.00000  Uiso   1.00
C214   C     0.51578   0.40744   0.11175   0.00000  Uiso   1.00
C215   C     0.98422   0.59260   0.22154   0.00000  Uiso   1.00
C216   C     0.74401   0.34395   0.14334   0.00000  Uiso   1.00
C217   C     0.75600   0.65605   0.18999   0.00000  Uiso   1.00
C218   C     0.66481   0.50092   0.16691   0.00000  Uiso   1.00
C219   C     0.83519   0.49908   0.16642   0.00000  Uiso   1.00
C220   C     0.91027   0.54317   0.19350   0.00000  Uiso   1.00
Cu221  Cu    0.75501   0.50579   0.22813   0.00000  Uiso   1.00
Cu222  Cu    0.74500   0.49421   0.10521   0.00000  Uiso   1.00
H223   H     0.89411   0.57763   0.21388   0.00000  Uiso   1.00
H224   H     0.61761   0.63224   0.19909   0.00000  Uiso   1.00
H225   H     0.62496   0.61278   0.27142   0.00000  Uiso   1.00
H226   H     0.66391   0.59733   0.21695   0.00000  Uiso   1.00
H227   H     0.50866   0.65751   0.06320   0.00000  Uiso   1.00
H228   H     0.55372   0.36426   0.04430   0.00000  Uiso   1.00
H229   H     0.55813   0.34418   0.11640   0.00000  Uiso   1.00
H230   H     0.99133   0.34255   0.27001   0.00000  Uiso   1.00
H231   H     0.94186   0.65584   0.21682   0.00000  Uiso   1.00
H232   H     0.94628   0.63582   0.28896   0.00000  Uiso   1.00
H233   H     0.69255   0.41962   0.00732   0.00000  Uiso   1.00
H234   H     0.60589   0.42239   0.11944   0.00000  Uiso   1.00
H235   H     0.69495   0.43797   0.27108   0.00000  Uiso   1.00
H236   H     0.74149   0.40631   0.30379   0.00000  Uiso   1.00
H237   H     0.80745   0.58038   0.32601   0.00000  Uiso   1.00
H238   H     0.75851   0.59369   0.02954   0.00000  Uiso   1.00
H239   H     0.80505   0.56204   0.06226   0.00000  Uiso   1.00
H240   H     0.94924   0.37015   0.09021   0.00000  Uiso   1.00
H241   H     0.55076   0.62990   0.24305   0.00000  Uiso   1.00
H242   H     0.73043   0.65348   0.09906   0.00000  Uiso   1.00
H243   H     0.76958   0.34652   0.23427   0.00000  Uiso   1.00
H244   H     0.88241   0.36776   0.13423   0.00000  Uiso   1.00
H245   H     0.83611   0.40266   0.11640   0.00000  Uiso   1.00
H246   H     0.87503   0.38722   0.06192   0.00000  Uiso   1.00
N247   N     0.73745   0.48547   0.01284   0.00000  Uiso   1.00
N248   N     0.76256   0.51453   0.32049   0.00000  Uiso   1.00
O249   O     0.75326   0.42871   0.20659   0.00000  Uiso   1.00
O250   O     0.74675   0.57129   0.12674   0.00000  Uiso   1.00
O251   O     0.74480   0.41892   0.10279   0.00000  Uiso   1.00
O252   O     0.75520   0.58108   0.23055   0.00000  Uiso   1.00
O253   O     0.68936   0.50488   0.21857   0.00000  Uiso   1.00
O254   O     0.81065   0.49512   0.11476   0.00000  Uiso   1.00
O255   O     0.68090   0.49510   0.11477   0.00000  Uiso   1.00
O256   O     0.81910   0.50490   0.21857   0.00000  Uiso   1.00
C257   C     0.24762   0.73339   0.15133   0.00000  Uiso   1.00
C258   C     0.08973   0.79018   0.13983   0.00000  Uiso   1.00
C259   C     0.38321   0.83033   0.16592   0.00000  Uiso   1.00
C260   C     0.11679   0.83634   0.16741   0.00000  Uiso   1.00
C261   C     0.40183   0.78382   0.13869   0.00000  Uiso   1.00
C262   C     0.09817   0.88286   0.19463   0.00000  Uiso   1.00
C263   C     0.44901   0.78519   0.13877   0.00000  Uiso   1.00
C264   C     0.05098   0.88150   0.19454   0.00000  Uiso   1.00
C265   C     0.47646   0.83265   0.16654   0.00000  Uiso   1.00
C266   C     0.02354   0.83403   0.16677   0.00000  Uiso   1.00
C267   C     0.45687   0.87869   0.19413   0.00000  Uiso   1.00
C268   C     0.25238   0.93328   0.18201   0.00000  Uiso   1.00
C269   C     0.04313   0.78800   0.13918   0.00000  Uiso   1.00
C270   C     0.46933   0.74005   0.11180   0.00000  Uiso   1.00
C271   C     0.03067   0.92665   0.22148   0.00000  Uiso   1.00
C272   C     0.37209   0.73282   0.11132   0.00000  Uiso   1.00
C273   C     0.12792   0.93385   0.22201   0.00000  Uiso   1.00
C274   C     0.03514   0.69054   0.08225   0.00000  Uiso   1.00
C275   C     0.46486   0.97618   0.25099   0.00000  Uiso   1.00
C276   C     0.21605   0.76832   0.31236   0.00000  Uiso   1.00
C277   C     0.28396   0.89834   0.02097   0.00000  Uiso   1.00
C278   C     0.01578   0.74077   0.11175   0.00000  Uiso   1.00
C279   C     0.48422   0.92593   0.22154   0.00000  Uiso   1.00
C280   C     0.24401   0.67729   0.14334   0.00000  Uiso   1.00
C281   C     0.25600   0.98938   0.18999   0.00000  Uiso   1.00
C282   C     0.16481   0.83425   0.16691   0.00000  Uiso   1.00
C283   C     0.33519   0.83241   0.16642   0.00000  Uiso   1.00
C284   C     0.41027   0.87650   0.19350   0.00000  Uiso   1.00
Cu285  Cu    0.25501   0.83913   0.22813   0.00000  Uiso   1.00
Cu286  Cu    0.24500   0.82754   0.10521   0.00000  Uiso   1.00
H287   H     0.39411   0.91096   0.21388   0.00000  Uiso   1.00
H288   H     0.11761   0.96558   0.19909   0.00000  Uiso   1.00
H289   H     0.12496   0.94611   0.27142   0.00000  Uiso   1.00
H290   H     0.16391   0.93067   0.21695   0.00000  Uiso   1.00
H291   H     0.00866   0.99084   0.06320   0.00000  Uiso   1.00
H292   H     0.05372   0.69759   0.04430   0.00000  Uiso   1.00
H293   H     0.05813   0.67752   0.11640   0.00000  Uiso   1.00
H294   H     0.49133   0.67588   0.27001   0.00000  Uiso   1.00
H295   H     0.44186   0.98917   0.21682   0.00000  Uiso   1.00
H296   H     0.44628   0.96915   0.28896   0.00000  Uiso   1.00
H297   H     0.19255   0.75295   0.00732   0.00000  Uiso   1.00
H298   H     0.10589   0.75572   0.11944   0.00000  Uiso   1.00
H299   H     0.19495   0.77130   0.27108   0.00000  Uiso   1.00
H300   H     0.24149   0.73964   0.30379   0.00000  Uiso   1.00
H301   H     0.30745   0.91372   0.32601   0.00000  Uiso   1.00
H302   H     0.25851   0.92702   0.02954   0.00000  Uiso   1.00
H303   H     0.30505   0.89537   0.06226   0.00000  Uiso   1.00
H304   H     0.44924   0.70348   0.09021   0.00000  Uiso   1.00
H305   H     0.05076   0.96323   0.24305   0.00000  Uiso   1.00
H306   H     0.23043   0.98681   0.09906   0.00000  Uiso   1.00
H307   H     0.26958   0.67985   0.23427   0.00000  Uiso   1.00
H308   H     0.38241   0.70110   0.13423   0.00000  Uiso   1.00
H309   H     0.33611   0.73600   0.11640   0.00000  Uiso   1.00
H310   H     0.37503   0.72056   0.06192   0.00000  Uiso   1.00
N311   N     0.23745   0.81881   0.01284   0.00000  Uiso   1.00
N312   N     0.26256   0.84786   0.32049   0.00000  Uiso   1.00
O313   O     0.25326   0.76204   0.20659   0.00000  Uiso   1.00
O314   O     0.24675   0.90462   0.12674   0.00000  Uiso   1.00
O315   O     0.24480   0.75226   0.10279   0.00000  Uiso   1.00
O316   O     0.25520   0.91441   0.23055   0.00000  Uiso   1.00
O317   O     0.18936   0.83821   0.21857   0.00000  Uiso   1.00
O318   O     0.31065   0.82845   0.11476   0.00000  Uiso   1.00
O319   O     0.18090   0.82843   0.11477   0.00000  Uiso   1.00
O320   O     0.31910   0.83824   0.21857   0.00000  Uiso   1.00
C321   C     0.74762   0.73339   0.15133   0.00000  Uiso   1.00
C322   C     0.58973   0.79018   0.13983   0.00000  Uiso   1.00
C323   C     0.88321   0.83033   0.16592   0.00000  Uiso   1.00
C324   C     0.61679   0.83634   0.16741   0.00000  Uiso   1.00
C325   C     0.90183   0.78382   0.13869   0.00000  Uiso   1.00
C326   C     0.59817   0.88286   0.19463   0.00000  Uiso   1.00
C327   C     0.94901   0.78519   0.13877   0.00000  Uiso   1.00
C328   C     0.55098   0.88150   0.19454   0.00000  Uiso   1.00
C329   C     0.97646   0.83265   0.16654   0.00000  Uiso   1.00
C330   C     0.52354   0.83403   0.16677   0.00000  Uiso   1.00
C331   C     0.95687   0.87869   0.19413   0.00000  Uiso   1.00
C332   C     0.75238   0.93328   0.18201   0.00000  Uiso   1.00
C333   C     0.54313   0.78800   0.13918   0.00000  Uiso   1.00
C334   C     0.96933   0.74005   0.11180   0.00000  Uiso   1.00
C335   C     0.53067   0.92665   0.22148   0.00000  Uiso   1.00
C336   C     0.87209   0.73282   0.11132   0.00000  Uiso   1.00
C337   C     0.62792   0.93385   0.22201   0.00000  Uiso   1.00
C338   C     0.53514   0.69054   0.08225   0.00000  Uiso   1.00
C339   C     0.96486   0.97618   0.25099   0.00000  Uiso   1.00
C340   C     0.71605   0.76832   0.31236   0.00000  Uiso   1.00
C341   C     0.78396   0.89834   0.02097   0.00000  Uiso   1.00
C342   C     0.51578   0.74077   0.11175   0.00000  Uiso   1.00
C343   C     0.98422   0.92593   0.22154   0.00000  Uiso   1.00
C344   C     0.74401   0.67729   0.14334   0.00000  Uiso   1.00
C345   C     0.75600   0.98938   0.18999   0.00000  Uiso   1.00
C346   C     0.66481   0.83425   0.16691   0.00000  Uiso   1.00
C347   C     0.83519   0.83241   0.16642   0.00000  Uiso   1.00
C348   C     0.91027   0.87650   0.19350   0.00000  Uiso   1.00
Cu349  Cu    0.75501   0.83913   0.22813   0.00000  Uiso   1.00
Cu350  Cu    0.74500   0.82754   0.10521   0.00000  Uiso   1.00
H351   H     0.89411   0.91096   0.21388   0.00000  Uiso   1.00
H352   H     0.61761   0.96558   0.19909   0.00000  Uiso   1.00
H353   H     0.62496   0.94611   0.27142   0.00000  Uiso   1.00
H354   H     0.66391   0.93067   0.21695   0.00000  Uiso   1.00
H355   H     0.50866   0.99084   0.06320   0.00000  Uiso   1.00
H356   H     0.55372   0.69759   0.04430   0.00000  Uiso   1.00
H357   H     0.55813   0.67752   0.11640   0.00000  Uiso   1.00
H358   H     0.99133   0.67588   0.27001   0.00000  Uiso   1.00
H359   H     0.94186   0.98917   0.21682   0.00000  Uiso   1.00
H360   H     0.94628   0.96915   0.28896   0.00000  Uiso   1.00
H361   H     0.69255   0.75295   0.00732   0.00000  Uiso   1.00
H362   H     0.60589   0.75572   0.11944   0.00000  Uiso   1.00
H363   H     0.69495   0.77130   0.27108   0.00000  Uiso   1.00
H364   H     0.74149   0.73964   0.30379   0.00000  Uiso   1.00
H365   H     0.80745   0.91372   0.32601   0.00000  Uiso   1.00
H366   H     0.75851   0.92702   0.02954   0.00000  Uiso   1.00
H367   H     0.80505   0.89537   0.06226   0.00000  Uiso   1.00
H368   H     0.94924   0.70348   0.09021   0.00000  Uiso   1.00
H369   H     0.55076   0.96323   0.24305   0.00000  Uiso   1.00
H370   H     0.73043   0.98681   0.09906   0.00000  Uiso   1.00
H371   H     0.76958   0.67985   0.23427   0.00000  Uiso   1.00
H372   H     0.88241   0.70110   0.13423   0.00000  Uiso   1.00
H373   H     0.83611   0.73600   0.11640   0.00000  Uiso   1.00
H374   H     0.87503   0.72056   0.06192   0.00000  Uiso   1.00
N375   N     0.73745   0.81881   0.01284   0.00000  Uiso   1.00
N376   N     0.76256   0.84786   0.32049   0.00000  Uiso   1.00
O377   O     0.75326   0.76204   0.20659   0.00000  Uiso   1.00
O378   O     0.74675   0.90462   0.12674   0.00000  Uiso   1.00
O379   O     0.74480   0.75226   0.10279   0.00000  Uiso   1.00
O380   O     0.75520   0.91441   0.23055   0.00000  Uiso   1.00
O381   O     0.68936   0.83821   0.21857   0.00000  Uiso   1.00
O382   O     0.81065   0.82845   0.11476   0.00000  Uiso   1.00
O383   O     0.68090   0.82843   0.11477   0.00000  Uiso   1.00
O384   O     0.81910   0.83824   0.21857   0.00000  Uiso   1.00
C385   C     0.24762   0.06672   0.48466   0.00000  Uiso   1.00
C386   C     0.08973   0.12351   0.47316   0.00000  Uiso   1.00
C387   C     0.38321   0.16366   0.49926   0.00000  Uiso   1.00
C388   C     0.11679   0.16968   0.50074   0.00000  Uiso   1.00
C389   C     0.40183   0.11715   0.47203   0.00000  Uiso   1.00
C390   C     0.09817   0.21620   0.52796   0.00000  Uiso   1.00
C391   C     0.44901   0.11852   0.47211   0.00000  Uiso   1.00
C392   C     0.05098   0.21483   0.52787   0.00000  Uiso   1.00
C393   C     0.47646   0.16599   0.49987   0.00000  Uiso   1.00
C394   C     0.02354   0.16737   0.50010   0.00000  Uiso   1.00
C395   C     0.45687   0.21202   0.52746   0.00000  Uiso   1.00
C396   C     0.25238   0.26661   0.51534   0.00000  Uiso   1.00
C397   C     0.04313   0.12133   0.47251   0.00000  Uiso   1.00
C398   C     0.46933   0.07339   0.44513   0.00000  Uiso   1.00
C399   C     0.03067   0.25998   0.55482   0.00000  Uiso   1.00
C400   C     0.37209   0.06615   0.44466   0.00000  Uiso   1.00
C401   C     0.12792   0.26718   0.55534   0.00000  Uiso   1.00
C402   C     0.03514   0.02387   0.41558   0.00000  Uiso   1.00
C403   C     0.46486   0.30951   0.58432   0.00000  Uiso   1.00
C404   C     0.21605   0.10166   0.64569   0.00000  Uiso   1.00
C405   C     0.28396   0.23168   0.35431   0.00000  Uiso   1.00
C406   C     0.01578   0.07411   0.44508   0.00000  Uiso   1.00
C407   C     0.48422   0.25926   0.55487   0.00000  Uiso   1.00
C408   C     0.24401   0.01062   0.47668   0.00000  Uiso   1.00
C409   C     0.25600   0.32271   0.52332   0.00000  Uiso   1.00
C410   C     0.16481   0.16759   0.50024   0.00000  Uiso   1.00
C411   C     0.33519   0.16575   0.49976   0.00000  Uiso   1.00
C412   C     0.41027   0.20984   0.52683   0.00000  Uiso   1.00
Cu413  Cu    0.25501   0.17246   0.56146   0.00000  Uiso   1.00
Cu414  Cu    0.24500   0.16087   0.43854   0.00000  Uiso   1.00
H415   H     0.39411   0.24429   0.54721   0.00000  Uiso   1.00
H416   H     0.11761   0.29891   0.53242   0.00000  Uiso   1.00
H417   H     0.12496   0.27944   0.60475   0.00000  Uiso   1.00
H418   H     0.16391   0.26400   0.55028   0.00000  Uiso   1.00
H419   H     0.00866   0.32418   0.39654   0.00000  Uiso   1.00
H420   H     0.05372   0.03093   0.37763   0.00000  Uiso   1.00
H421   H     0.05813   0.01085   0.44973   0.00000  Uiso   1.00
H422   H     0.49133   0.00922   0.60334   0.00000  Uiso   1.00
H423   H     0.44186   0.32251   0.55015   0.00000  Uiso   1.00
H424   H     0.44628   0.30249   0.62230   0.00000  Uiso   1.00
H425   H     0.19255   0.08628   0.34065   0.00000  Uiso   1.00
H426   H     0.10589   0.08905   0.45277   0.00000  Uiso   1.00
H427   H     0.19495   0.10463   0.60441   0.00000  Uiso   1.00
H428   H     0.24149   0.07298   0.63713   0.00000  Uiso   1.00
H429   H     0.30745   0.24705   0.65935   0.00000  Uiso   1.00
H430   H     0.25851   0.26036   0.36287   0.00000  Uiso   1.00
H431   H     0.30505   0.22870   0.39559   0.00000  Uiso   1.00
H432   H     0.44924   0.03681   0.42355   0.00000  Uiso   1.00
H433   H     0.05076   0.29657   0.57639   0.00000  Uiso   1.00
H434   H     0.23043   0.32015   0.43240   0.00000  Uiso   1.00
H435   H     0.26958   0.01319   0.56760   0.00000  Uiso   1.00
H436   H     0.38241   0.03443   0.46756   0.00000  Uiso   1.00
H437   H     0.33611   0.06933   0.44974   0.00000  Uiso   1.00
H438   H     0.37503   0.05389   0.39526   0.00000  Uiso   1.00
N439   N     0.23745   0.15214   0.34617   0.00000  Uiso   1.00
N440   N     0.26256   0.18119   0.65383   0.00000  Uiso   1.00
O441   O     0.25326   0.09538   0.53992   0.00000  Uiso   1.00
O442   O     0.24675   0.23796   0.46008   0.00000  Uiso   1.00
O443   O     0.24480   0.08559   0.43612   0.00000  Uiso   1.00
O444   O     0.25520   0.24774   0.56388   0.00000  Uiso   1.00
O445   O     0.18936   0.17155   0.55191   0.00000  Uiso   1.00
O446   O     0.31065   0.16179   0.44809   0.00000  Uiso   1.00
O447   O     0.18090   0.16176   0.44810   0.00000  Uiso   1.00
O448   O     0.31910   0.17157   0.55190   0.00000  Uiso   1.00
C449   C     0.74762   0.06672   0.48466   0.00000  Uiso   1.00
C450   C     0.58973   0.12351   0.47316   0.00000  Uiso   1.00
C451   C     0.88321   0.16366   0.49926   0.00000  Uiso   1.00
C452   C     0.61679   0.16968   0.50074   0.00000  Uiso   1.00
C453   C     0.90183   0.11715   0.47203   0.00000  Uiso   1.00
C454   C     0.59817   0.21620   0.52796   0.00000  Uiso   1.00
C455   C     0.94901   0.11852   0.47211   0.00000  Uiso   1.00
C456   C     0.55098   0.21483   0.52787   0.00000  Uiso   1.00
C457   C     0.97646   0.16599   0.49987   0.00000  Uiso   1.00
C458   C     0.52354   0.16737   0.50010   0.00000  Uiso   1.00
C459   C     0.95687   0.21202   0.52746   0.00000  Uiso   1.00
C460   C     0.75238   0.26661   0.51534   0.00000  Uiso   1.00
C461   C     0.54313   0.12133   0.47251   0.00000  Uiso   1.00
C462   C     0.96933   0.07339   0.44513   0.00000  Uiso   1.00
C463   C     0.53067   0.25998   0.55482   0.00000  Uiso   1.00
C464   C     0.87209   0.06615   0.44466   0.00000  Uiso   1.00
C465   C     0.62792   0.26718   0.55534   0.00000  Uiso   1.00
C466   C     0.53514   0.02387   0.41558   0.00000  Uiso   1.00
C467   C     0.96486   0.30951   0.58432   0.00000  Uiso   1.00
C468   C     0.71605   0.10166   0.64569   0.00000  Uiso   1.00
C469   C     0.78396   0.23168   0.35431   0.00000  Uiso   1.00
C470   C     0.51578   0.07411   0.44508   0.00000  Uiso   1.00
C471   C     0.98422   0.25926   0.55487   0.00000  Uiso   1.00
C472   C     0.74401   0.01062   0.47668   0.00000  Uiso   1.00
C473   C     0.75600   0.32271   0.52332   0.00000  Uiso   1.00
C474   C     0.66481   0.16759   0.50024   0.00000  Uiso   1.00
C475   C     0.83519   0.16575   0.49976   0.00000  Uiso   1.00
C476   C     0.91027   0.20984   0.52683   0.00000  Uiso   1.00
Cu477  Cu    0.75501   0.17246   0.56146   0.00000  Uiso   1.00
Cu478  Cu    0.74500   0.16087   0.43854   0.00000  Uiso   1.00
H479   H     0.89411   0.24429   0.54721   0.00000  Uiso   1.00
H480   H     0.61761   0.29891   0.53242   0.00000  Uiso   1.00
H481   H     0.62496   0.27944   0.60475   0.00000  Uiso   1.00
H482   H     0.66391   0.26400   0.55028   0.00000  Uiso   1.00
H483   H     0.50866   0.32418   0.39654   0.00000  Uiso   1.00
H484   H     0.55372   0.03093   0.37763   0.00000  Uiso   1.00
H485   H     0.55813   0.01085   0.44973   0.00000  Uiso   1.00
H486   H     0.99133   0.00922   0.60334   0.00000  Uiso   1.00
H487   H     0.94186   0.32251   0.55015   0.00000  Uiso   1.00
H488   H     0.94628   0.30249   0.62230   0.00000  Uiso   1.00
H489   H     0.69255   0.08628   0.34065   0.00000  Uiso   1.00
H490   H     0.60589   0.08905   0.45277   0.00000  Uiso   1.00
H491   H     0.69495   0.10463   0.60441   0.00000  Uiso   1.00
H492   H     0.74149   0.07298   0.63713   0.00000  Uiso   1.00
H493   H     0.80745   0.24705   0.65935   0.00000  Uiso   1.00
H494   H     0.75851   0.26036   0.36287   0.00000  Uiso   1.00
H495   H     0.80505   0.22870   0.39559   0.00000  Uiso   1.00
H496   H     0.94924   0.03681   0.42355   0.00000  Uiso   1.00
H497   H     0.55076   0.29657   0.57639   0.00000  Uiso   1.00
H498   H     0.73043   0.32015   0.43240   0.00000  Uiso   1.00
H499   H     0.76958   0.01319   0.56760   0.00000  Uiso   1.00
H500   H     0.88241   0.03443   0.46756   0.00000  Uiso   1.00
H501   H     0.83611   0.06933   0.44974   0.00000  Uiso   1.00
H502   H     0.87503   0.05389   0.39526   0.00000  Uiso   1.00
N503   N     0.73745   0.15214   0.34617   0.00000  Uiso   1.00
N504   N     0.76256   0.18119   0.65383   0.00000  Uiso   1.00
O505   O     0.75326   0.09538   0.53992   0.00000  Uiso   1.00
O506   O     0.74675   0.23796   0.46008   0.00000  Uiso   1.00
O507   O     0.74480   0.08559   0.43612   0.00000  Uiso   1.00
O508   O     0.75520   0.24774   0.56388   0.00000  Uiso   1.00
O509   O     0.68936   0.17155   0.55191   0.00000  Uiso   1.00
O510   O     0.81065   0.16179   0.44809   0.00000  Uiso   1.00
O511   O     0.68090   0.16176   0.44810   0.00000  Uiso   1.00
O512   O     0.81910   0.17157   0.55190   0.00000  Uiso   1.00
C513   C     0.24762   0.40006   0.48466   0.00000  Uiso   1.00
C514   C     0.08973   0.45685   0.47316   0.00000  Uiso   1.00
C515   C     0.38321   0.49700   0.49926   0.00000  Uiso   1.00
C516   C     0.11679   0.50301   0.50074   0.00000  Uiso   1.00
C517   C     0.40183   0.45048   0.47203   0.00000  Uiso   1.00
C518   C     0.09817   0.54953   0.52796   0.00000  Uiso   1.00
C519   C     0.44901   0.45186   0.47211   0.00000  Uiso   1.00
C520   C     0.05098   0.54816   0.52787   0.00000  Uiso   1.00
C521   C     0.47646   0.49932   0.49987   0.00000  Uiso   1.00
C522   C     0.02354   0.50070   0.50010   0.00000  Uiso   1.00
C523   C     0.45687   0.54536   0.52746   0.00000  Uiso   1.00
C524   C     0.25238   0.59994   0.51534   0.00000  Uiso   1.00
C525   C     0.04313   0.45466   0.47251   0.00000  Uiso   1.00
C526   C     0.46933   0.40672   0.44513   0.00000  Uiso   1.00
C527   C     0.03067   0.59332   0.55482   0.00000  Uiso   1.00
C528   C     0.37209   0.39949   0.44466   0.00000  Uiso   1.00
C529   C     0.12792   0.60052   0.55534   0.00000  Uiso   1.00
C530   C     0.03514   0.35720   0.41558   0.00000  Uiso   1.00
C531   C     0.46486   0.64285   0.58432   0.00000  Uiso   1.00
C532   C     0.21605   0.43499   0.64569   0.00000  Uiso   1.00
C533   C     0.28396   0.56501   0.35431   0.00000  Uiso   1.00
C534   C     0.01578   0.40744   0.44508   0.00000  Uiso   1.00
C535   C     0.48422   0.59260   0.55487   0.00000  Uiso   1.00
C536   C     0.24401   0.34395   0.47668   0.00000  Uiso   1.00
C537   C     0.25600   0.65605   0.52332   0.00000  Uiso   1.00
C538   C     0.16481   0.50092   0.50024   0.00000  Uiso   1.00
C539   C     0.33519   0.49908   0.49976   0.00000  Uiso   1.00
C540   C     0.41027   0.54317   0.52683   0.00000  Uiso   1.00
Cu541  Cu    0.25501   0.50579   0.56146   0.00000  Uiso   1.00
Cu542  Cu    0.24500   0.49421   0.43854   0.00000  Uiso   1.00
H543   H     0.39411   0.57763   0.54721   0.00000  Uiso   1.00
H544   H     0.11761   0.63224   0.53242   0.00000  Uiso   1.00
H545   H     0.12496   0.61278   0.60475   0.00000  Uiso   1.00
H546   H     0.16391   0.59733   0.55028   0.00000  Uiso   1.00
H547   H     0.00866   0.65751   0.39654   0.00000  Uiso   1.00
H548   H     0.05372   0.36426   0.37763   0.00000  Uiso   1.00
H549   H     0.05813   0.34418   0.44973   0.00000  Uiso   1.00
H550   H     0.49133   0.34255   0.60334   0.00000  Uiso   1.00
H551   H     0.44186   0.65584   0.55015   0.00000  Uiso   1.00
H552   H     0.44628   0.63582   0.62230   0.00000  Uiso   1.00
H553   H     0.19255   0.41962   0.34065   0.00000  Uiso   1.00
H554   H     0.10589   0.42239   0.45277   0.00000  Uiso   1.00
H555   H     0.19495   0.43797   0.60441   0.00000  Uiso   1.00
H556   H     0.24149   0.40631   0.63713   0.00000  Uiso   1.00
H557   H     0.30745   0.58038   0.65935   0.00000  Uiso   1.00
H558   H     0.25851   0.59369   0.36287   0.00000  Uiso   1.00
H559   H     0.30505   0.56204   0.39559   0.00000  Uiso   1.00
H560   H     0.44924   0.37015   0.42355   0.00000  Uiso   1.00
H561   H     0.05076   0.62990   0.57639   0.00000  Uiso   1.00
H562   H     0.23043   0.65348   0.43240   0.00000  Uiso   1.00
H563   H     0.26958   0.34652   0.56760   0.00000  Uiso   1.00
H564   H     0.38241   0.36776   0.46756   0.00000  Uiso   1.00
H565   H     0.33611   0.40266   0.44974   0.00000  Uiso   1.00
H566   H     0.37503   0.38722   0.39526   0.00000  Uiso   1.00
N567   N     0.23745   0.48547   0.34617   0.00000  Uiso   1.00
N568   N     0.26256   0.51453   0.65383   0.00000  Uiso   1.00
O569   O     0.25326   0.42871   0.53992   0.00000  Uiso   1.00
O570   O     0.24675   0.57129   0.46008   0.00000  Uiso   1.00
O571   O     0.24480   0.41892   0.43612   0.00000  Uiso   1.00
O572   O     0.25520   0.58108   0.56388   0.00000  Uiso   1.00
O573   O     0.18936   0.50488   0.55191   0.00000  Uiso   1.00
O574   O     0.31065   0.49512   0.44809   0.00000  Uiso   1.00
O575   O     0.18090   0.49510   0.44810   0.00000  Uiso   1.00
O576   O     0.31910   0.50490   0.55190   0.00000  Uiso   1.00
C577   C     0.74762   0.40006   0.48466   0.00000  Uiso   1.00
C578   C     0.58973   0.45685   0.47316   0.00000  Uiso   1.00
C579   C     0.88321   0.49700   0.49926   0.00000  Uiso   1.00
C580   C     0.61679   0.50301   0.50074   0.00000  Uiso   1.00
C581   C     0.90183   0.45048   0.47203   0.00000  Uiso   1.00
C582   C     0.59817   0.54953   0.52796   0.00000  Uiso   1.00
C583   C     0.94901   0.45186   0.47211   0.00000  Uiso   1.00
C584   C     0.55098   0.54816   0.52787   0.00000  Uiso   1.00
C585   C     0.97646   0.49932   0.49987   0.00000  Uiso   1.00
C586   C     0.52354   0.50070   0.50010   0.00000  Uiso   1.00
C587   C     0.95687   0.54536   0.52746   0.00000  Uiso   1.00
C588   C     0.75238   0.59994   0.51534   0.00000  Uiso   1.00
C589   C     0.54313   0.45466   0.47251   0.00000  Uiso   1.00
C590   C     0.96933   0.40672   0.44513   0.00000  Uiso   1.00
C591   C     0.53067   0.59332   0.55482   0.00000  Uiso   1.00
C592   C     0.87209   0.39949   0.44466   0.00000  Uiso   1.00
C593   C     0.62792   0.60052   0.55534   0.00000  Uiso   1.00
C594   C     0.53514   0.35720   0.41558   0.00000  Uiso   1.00
C595   C     0.96486   0.64285   0.58432   0.00000  Uiso   1.00
C596   C     0.71605   0.43499   0.64569   0.00000  Uiso   1.00
C597   C     0.78396   0.56501   0.35431   0.00000  Uiso   1.00
C598   C     0.51578   0.40744   0.44508   0.00000  Uiso   1.00
C599   C     0.98422   0.59260   0.55487   0.00000  Uiso   1.00
C600   C     0.74401   0.34395   0.47668   0.00000  Uiso   1.00
C601   C     0.75600   0.65605   0.52332   0.00000  Uiso   1.00
C602   C     0.66481   0.50092   0.50024   0.00000  Uiso   1.00
C603   C     0.83519   0.49908   0.49976   0.00000  Uiso   1.00
C604   C     0.91027   0.54317   0.52683   0.00000  Uiso   1.00
Cu605  Cu    0.75501   0.50579   0.56146   0.00000  Uiso   1.00
Cu606  Cu    0.74500   0.49421   0.43854   0.00000  Uiso   1.00
H607   H     0.89411   0.57763   0.54721   0.00000  Uiso   1.00
H608   H     0.61761   0.63224   0.53242   0.00000  Uiso   1.00
H609   H     0.62496   0.61278   0.60475   0.00000  Uiso   1.00
H610   H     0.66391   0.59733   0.55028   0.00000  Uiso   1.00
H611   H     0.50866   0.65751   0.39654   0.00000  Uiso   1.00
H612   H     0.55372   0.36426   0.37763   0.00000  Uiso   1.00
H613   H     0.55813   0.34418   0.44973   0.00000  Uiso   1.00
H614   H     0.99133   0.34255   0.60334   0.00000  Uiso   1.00
H615   H     0.94186   0.65584   0.55015   0.00000  Uiso   1.00
H616   H     0.94628   0.63582   0.62230   0.00000  Uiso   1.00
H617   H     0.69255   0.41962   0.34065   0.00000  Uiso   1.00
H618   H     0.60589   0.42239   0.45277   0.00000  Uiso   1.00
H619   H     0.69495   0.43797   0.60441   0.00000  Uiso   1.00
H620   H     0.74149   0.40631   0.63713   0.00000  Uiso   1.00
H621   H     0.80745   0.58038   0.65935   0.00000  Uiso   1.00
H622   H     0.75851   0.59369   0.36287   0.00000  Uiso   1.00
H623   H     0.80505   0.56204   0.39559   0.00000  Uiso   1.00
H624   H     0.94924   0.37015   0.42355   0.00000  Uiso   1.00
H625   H     0.55076   0.62990   0.57639   0.00000  Uiso   1.00
H626   H     0.73043   0.65348   0.43240   0.00000  Uiso   1.00
H627   H     0.76958   0.34652   0.56760   0.00000  Uiso   1.00
H628   H     0.88241   0.36776   0.46756   0.00000  Uiso   1.00
H629   H     0.83611   0.40266   0.44974   0.00000  Uiso   1.00
H630   H     0.87503   0.38722   0.39526   0.00000  Uiso   1.00
N631   N     0.73745   0.48547   0.34617   0.00000  Uiso   1.00
N632   N     0.76256   0.51453   0.65383   0.00000  Uiso   1.00
O633   O     0.75326   0.42871   0.53992   0.00000  Uiso   1.00
O634   O     0.74675   0.57129   0.46008   0.00000  Uiso   1.00
O635   O     0.74480   0.41892   0.43612   0.00000  Uiso   1.00
O636   O     0.75520   0.58108   0.56388   0.00000  Uiso   1.00
O637   O     0.68936   0.50488   0.55191   0.00000  Uiso   1.00
O638   O     0.81065   0.49512   0.44809   0.00000  Uiso   1.00
O639   O     0.68090   0.49510   0.44810   0.00000  Uiso   1.00
O640   O     0.81910   0.50490   0.55190   0.00000  Uiso   1.00
C641   C     0.24762   0.73339   0.48466   0.00000  Uiso   1.00
C642   C     0.08973   0.79018   0.47316   0.00000  Uiso   1.00
C643   C     0.38321   0.83033   0.49926   0.00000  Uiso   1.00
C644   C     0.11679   0.83634   0.50074   0.00000  Uiso   1.00
C645   C     0.40183   0.78382   0.47203   0.00000  Uiso   1.00
C646   C     0.09817   0.88286   0.52796   0.00000  Uiso   1.00
C647   C     0.44901   0.78519   0.47211   0.00000  Uiso   1.00
C648   C     0.05098   0.88150   0.52787   0.00000  Uiso   1.00
C649   C     0.47646   0.83265   0.49987   0.00000  Uiso   1.00
C650   C     0.02354   0.83403   0.50010   0.00000  Uiso   1.00
C651   C     0.45687   0.87869   0.52746   0.00000  Uiso   1.00
C652   C     0.25238   0.93328   0.51534   0.00000  Uiso   1.00
C653   C     0.04313   0.78800   0.47251   0.00000  Uiso   1.00
C654   C     0.46933   0.74005   0.44513   0.00000  Uiso   1.00
C655   C     0.03067   0.92665   0.55482   0.00000  Uiso   1.00
C656   C     0.37209   0.73282   0.44466   0.00000  Uiso   1.00
C657   C     0.12792   0.93385   0.55534   0.00000  Uiso   1.00
C658   C     0.03514   0.69054   0.41558   0.00000  Uiso   1.00
C659   C     0.46486   0.97618   0.58432   0.00000  Uiso   1.00
C660   C     0.21605   0.76832   0.64569   0.00000  Uiso   1.00
C661   C     0.28396   0.89834   0.35431   0.00000  Uiso   1.00
C662   C     0.01578   0.74077   0.44508   0.00000  Uiso   1.00
C663   C     0.48422   0.92593   0.55487   0.00000  Uiso   1.00
C664   C     0.24401   0.67729   0.47668   0.00000  Uiso   1.00
C665   C     0.25600   0.98938   0.52332   0.00000  Uiso   1.00
C666   C     0.16481   0.83425   0.50024   0.00000  Uiso   1.00
C667   C     0.33519   0.83241   0.49976   0.00000  Uiso   1.00
C668   C     0.41027   0.87650   0.52683   0.00000  Uiso   1.00
Cu669  Cu    0.25501   0.83913   0.56146   0.00000  Uiso   1.00
Cu670  Cu    0.24500   0.82754   0.43854   0.00000  Uiso   1.00
H671   H     0.39411   0.91096   0.54721   0.00000  Uiso   1.00
H672   H     0.11761   0.96558   0.53242   0.00000  Uiso   1.00
H673   H     0.12496   0.94611   0.60475   0.00000  Uiso   1.00
H674   H     0.16391   0.93067   0.55028   0.00000  Uiso   1.00
H675   H     0.00866   0.99084   0.39654   0.00000  Uiso   1.00
H676   H     0.05372   0.69759   0.37763   0.00000  Uiso   1.00
H677   H     0.05813   0.67752   0.44973   0.00000  Uiso   1.00
H678   H     0.49133   0.67588   0.60334   0.00000  Uiso   1.00
H679   H     0.44186   0.98917   0.55015   0.00000  Uiso   1.00
H680   H     0.44628   0.96915   0.62230   0.00000  Uiso   1.00
H681   H     0.19255   0.75295   0.34065   0.00000  Uiso   1.00
H682   H     0.10589   0.75572   0.45277   0.00000  Uiso   1.00
H683   H     0.19495   0.77130   0.60441   0.00000  Uiso   1.00
H684   H     0.24149   0.73964   0.63713   0.00000  Uiso   1.00
H685   H     0.30745   0.91372   0.65935   0.00000  Uiso   1.00
H686   H     0.25851   0.92702   0.36287   0.00000  Uiso   1.00
H687   H     0.30505   0.89537   0.39559   0.00000  Uiso   1.00
H688   H     0.44924   0.70348   0.42355   0.00000  Uiso   1.00
H689   H     0.05076   0.96323   0.57639   0.00000  Uiso   1.00
H690   H     0.23043   0.98681   0.43240   0.00000  Uiso   1.00
H691   H     0.26958   0.67985   0.56760   0.00000  Uiso   1.00
H692   H     0.38241   0.70110   0.46756   0.00000  Uiso   1.00
H693   H     0.33611   0.73600   0.44974   0.00000  Uiso   1.00
H694   H     0.37503   0.72056   0.39526   0.00000  Uiso   1.00
N695   N     0.23745   0.81881   0.34617   0.00000  Uiso   1.00
N696   N     0.26256   0.84786   0.65383   0.00000  Uiso   1.00
O697   O     0.25326   0.76204   0.53992   0.00000  Uiso   1.00
O698   O     0.24675   0.90462   0.46008   0.00000  Uiso   1.00
O699   O     0.24480   0.75226   0.43612   0.00000  Uiso   1.00
O700   O     0.25520   0.91441   0.56388   0.00000  Uiso   1.00
O701   O     0.18936   0.83821   0.55191   0.00000  Uiso   1.00
O702   O     0.31065   0.82845   0.44809   0.00000  Uiso   1.00
O703   O     0.18090   0.82843   0.44810   0.00000  Uiso   1.00
O704   O     0.31910   0.83824   0.55190   0.00000  Uiso   1.00
C705   C     0.74762   0.73339   0.48466   0.00000  Uiso   1.00
C706   C     0.58973   0.79018   0.47316   0.00000  Uiso   1.00
C707   C     0.88321   0.83033   0.49926   0.00000  Uiso   1.00
C708   C     0.61679   0.83634   0.50074   0.00000  Uiso   1.00
C709   C     0.90183   0.78382   0.47203   0.00000  Uiso   1.00
C710   C     0.59817   0.88286   0.52796   0.00000  Uiso   1.00
C711   C     0.94901   0.78519   0.47211   0.00000  Uiso   1.00
C712   C     0.55098   0.88150   0.52787   0.00000  Uiso   1.00
C713   C     0.97646   0.83265   0.49987   0.00000  Uiso   1.00
C714   C     0.52354   0.83403   0.50010   0.00000  Uiso   1.00
C715   C     0.95687   0.87869   0.52746   0.00000  Uiso   1.00
C716   C     0.75238   0.93328   0.51534   0.00000  Uiso   1.00
C717   C     0.54313   0.78800   0.47251   0.00000  Uiso   1.00
C718   C     0.96933   0.74005   0.44513   0.00000  Uiso   1.00
C719   C     0.53067   0.92665   0.55482   0.00000  Uiso   1.00
C720   C     0.87209   0.73282   0.44466   0.00000  Uiso   1.00
C721   C     0.62792   0.93385   0.55534   0.00000  Uiso   1.00
C722   C     0.53514   0.69054   0.41558   0.00000  Uiso   1.00
C723   C     0.96486   0.97618   0.58432   0.00000  Uiso   1.00
C724   C     0.71605   0.76832   0.64569   0.00000  Uiso   1.00
C725   C     0.78396   0.89834   0.35431   0.00000  Uiso   1.00
C726   C     0.51578   0.74077   0.44508   0.00000  Uiso   1.00
C727   C     0.98422   0.92593   0.55487   0.00000  Uiso   1.00
C728   C     0.74401   0.67729   0.47668   0.00000  Uiso   1.00
C729   C     0.75600   0.98938   0.52332   0.00000  Uiso   1.00
C730   C     0.66481   0.83425   0.50024   0.00000  Uiso   1.00
C731   C     0.83519   0.83241   0.49976   0.00000  Uiso   1.00
C732   C     0.91027   0.87650   0.52683   0.00000  Uiso   1.00
Cu733  Cu    0.75501   0.83913   0.56146   0.00000  Uiso   1.00
Cu734  Cu    0.74500   0.82754   0.43854   0.00000  Uiso   1.00
H735   H     0.89411   0.91096   0.54721   0.00000  Uiso   1.00
H736   H     0.61761   0.96558   0.53242   0.00000  Uiso   1.00
H737   H     0.62496   0.94611   0.60475   0.00000  Uiso   1.00
H738   H     0.66391   0.93067   0.55028   0.00000  Uiso   1.00
H739   H     0.50866   0.99084   0.39654   0.00000  Uiso   1.00
H740   H     0.55372   0.69759   0.37763   0.00000  Uiso   1.00
H741   H     0.55813   0.67752   0.44973   0.00000  Uiso   1.00
H742   H     0.99133   0.67588   0.60334   0.00000  Uiso   1.00
H743   H     0.94186   0.98917   0.55015   0.00000  Uiso   1.00
H744   H     0.94628   0.96915   0.62230   0.00000  Uiso   1.00
H745   H     0.69255   0.75295   0.34065   0.00000  Uiso   1.00
H746   H     0.60589   0.75572   0.45277   0.00000  Uiso   1.00
H747   H     0.69495   0.77130   0.60441   0.00000  Uiso   1.00
H748   H     0.74149   0.73964   0.63713   0.00000  Uiso   1.00
H749   H     0.80745   0.91372   0.65935   0.00000  Uiso   1.00
H750   H     0.75851   0.92702   0.36287   0.00000  Uiso   1.00
H751   H     0.80505   0.89537   0.39559   0.00000  Uiso   1.00
H752   H     0.94924   0.70348   0.42355   0.00000  Uiso   1.00
H753   H     0.55076   0.96323   0.57639   0.00000  Uiso   1.00
H754   H     0.73043   0.98681   0.43240   0.00000  Uiso   1.00
H755   H     0.76958   0.67985   0.56760   0.00000  Uiso   1.00
H756   H     0.88241   0.70110   0.46756   0.00000  Uiso   1.00
H757   H     0.83611   0.73600   0.44974   0.00000  Uiso   1.00
H758   H     0.87503   0.72056   0.39526   0.00000  Uiso   1.00
N759   N     0.73745   0.81881   0.34617   0.00000  Uiso   1.00
N760   N     0.76256   0.84786   0.65383   0.00000  Uiso   1.00
O761   O     0.75326   0.76204   0.53992   0.00000  Uiso   1.00
O762   O     0.74675   0.90462   0.46008   0.00000  Uiso   1.00
O763   O     0.74480   0.75226   0.43612   0.00000  Uiso   1.00
O764   O     0.75520   0.91441   0.56388   0.00000  Uiso   1.00
O765   O     0.68936   0.83821   0.55191   0.00000  Uiso   1.00
O766   O     0.81065   0.82845   0.44809   0.00000  Uiso   1.00
O767   O     0.68090   0.82843   0.44810   0.00000  Uiso   1.00
O768   O     0.81910   0.83824   0.55190   0.00000  Uiso   1.00
C769   C     0.24762   0.06672   0.81799   0.00000  Uiso   1.00
C770   C     0.08973   0.12351   0.80649   0.00000  Uiso   1.00
C771   C     0.38321   0.16366   0.83259   0.00000  Uiso   1.00
C772   C     0.11679   0.16968   0.83408   0.00000  Uiso   1.00
C773   C     0.40183   0.11715   0.80536   0.00000  Uiso   1.00
C774   C     0.09817   0.21620   0.86130   0.00000  Uiso   1.00
C775   C     0.44901   0.11852   0.80544   0.00000  Uiso   1.00
C776   C     0.05098   0.21483   0.86120   0.00000  Uiso   1.00
C777   C     0.47646   0.16599   0.83321   0.00000  Uiso   1.00
C778   C     0.02354   0.16737   0.83344   0.00000  Uiso   1.00
C779   C     0.45687   0.21202   0.86080   0.00000  Uiso   1.00
C780   C     0.25238   0.26661   0.84867   0.00000  Uiso   1.00
C781   C     0.04313   0.12133   0.80584   0.00000  Uiso   1.00
C782   C     0.46933   0.07339   0.77847   0.00000  Uiso   1.00
C783   C     0.03067   0.25998   0.88815   0.00000  Uiso   1.00
C784   C     0.37209   0.06615   0.77799   0.00000  Uiso   1.00
C785   C     0.12792   0.26718   0.88868   0.00000  Uiso   1.00
C786   C     0.03514   0.02387   0.74892   0.00000  Uiso   1.00
C787   C     0.46486   0.30951   0.91766   0.00000  Uiso   1.00
C788   C     0.21605   0.10166   0.97903   0.00000  Uiso   1.00
C789   C     0.28396   0.23168   0.68764   0.00000  Uiso   1.00
C790   C     0.01578   0.07411   0.77841   0.00000  Uiso   1.00
C791   C     0.48422   0.25926   0.88820   0.00000  Uiso   1.00
C792   C     0.24401   0.01062   0.81001   0.00000  Uiso   1.00
C793   C     0.25600   0.32271   0.85666   0.00000  Uiso   1.00
C794   C     0.16481   0.16759   0.83358   0.00000  Uiso   1.00
C795   C     0.33519   0.16575   0.83309   0.00000  Uiso   1.00
C796   C     0.41027   0.20984   0.86016   0.00000  Uiso   1.00
Cu797  Cu    0.25501   0.17246   0.89479   0.00000  Uiso   1.00
Cu798  Cu    0.24500   0.16087   0.77187   0.00000  Uiso   1.00
H799   H     0.39411   0.24429   0.88055   0.00000  Uiso   1.00
H800   H     0.11761   0.29891   0.86575   0.00000  Uiso   1.00
H801   H     0.12496   0.27944   0.93808   0.00000  Uiso   1.00
H802   H     0.16391   0.26400   0.88362   0.00000  Uiso   1.00
H803   H     0.00866   0.32418   0.72987   0.00000  Uiso   1.00
H804   H     0.05372   0.03093   0.71096   0.00000  Uiso   1.00
H805   H     0.05813   0.01085   0.78307   0.00000  Uiso   1.00
H806   H     0.49133   0.00922   0.93668   0.00000  Uiso   1.00
H807   H     0.44186   0.32251   0.88349   0.00000  Uiso   1.00
H808   H     0.44628   0.30249   0.95563   0.00000  Uiso   1.00
H809   H     0.19255   0.08628   0.67398   0.00000  Uiso   1.00
H810   H     0.10589   0.08905   0.78611   0.00000  Uiso   1.00
H811   H     0.19495   0.10463   0.93774   0.00000  Uiso   1.00
H812   H     0.24149   0.07298   0.97046   0.00000  Uiso   1.00
H813   H     0.30745   0.24705   0.99268   0.00000  Uiso   1.00
H814   H     0.25851   0.26036   0.69621   0.00000  Uiso   1.00
H815   H     0.30505   0.22870   0.72892   0.00000  Uiso   1.00
H816   H     0.44924   0.03681   0.75688   0.00000  Uiso   1.00
H817   H     0.05076   0.29657   0.90972   0.00000  Uiso   1.00
H818   H     0.23043   0.32015   0.76573   0.00000  Uiso   1.00
H819   H     0.26958   0.01319   0.90094   0.00000  Uiso   1.00
H820   H     0.38241   0.03443   0.80090   0.00000  Uiso   1.00
H821   H     0.33611   0.06933   0.78307   0.00000  Uiso   1.00
H822   H     0.37503   0.05389   0.72859   0.00000  Uiso   1.00
N823   N     0.23745   0.15214   0.67951   0.00000  Uiso   1.00
N824   N     0.26256   0.18119   0.98716   0.00000  Uiso   1.00
O825   O     0.25326   0.09538   0.87326   0.00000  Uiso   1.00
O826   O     0.24675   0.23796   0.79341   0.00000  Uiso   1.00
O827   O     0.24480   0.08559   0.76945   0.00000  Uiso   1.00
O828   O     0.25520   0.24774   0.89721   0.00000  Uiso   1.00
O829   O     0.18936   0.17155   0.88524   0.00000  Uiso   1.00
O830   O     0.31065   0.16179   0.78143   0.00000  Uiso   1.00
O831   O     0.18090   0.16176   0.78143   0.00000  Uiso   1.00
O832   O     0.31910   0.17157   0.88523   0.00000  Uiso   1.00
C833   C     0.74762   0.06672   0.81799   0.00000  Uiso   1.00
C834   C     0.58973   0.12351   0.80649   0.00000  Uiso   1.00
C835   C     0.88321   0.16366   0.83259   0.00000  Uiso   1.00
C836   C     0.61679   0.16968   0.83408   0.00000  Uiso   1.00
C837   C     0.90183   0.11715   0.80536   0.00000  Uiso   1.00
C838   C     0.59817   0.21620   0.86130   0.00000  Uiso   1.00
C839   C     0.94901   0.11852   0.80544   0.00000  Uiso   1.00
C840   C     0.55098   0.21483   0.86120   0.00000  Uiso   1.00
C841   C     0.97646   0.16599   0.83321   0.00000  Uiso   1.00
C842   C     0.52354   0.16737   0.83344   0.00000  Uiso   1.00
C843   C     0.95687   0.21202   0.86080   0.00000  Uiso   1.00
C844   C     0.75238   0.26661   0.84867   0.00000  Uiso   1.00
C845   C     0.54313   0.12133   0.80584   0.00000  Uiso   1.00
C846   C     0.96933   0.07339   0.77847   0.00000  Uiso   1.00
C847   C     0.53067   0.25998   0.88815   0.00000  Uiso   1.00
C848   C     0.87209   0.06615   0.77799   0.00000  Uiso   1.00
C849   C     0.62792   0.26718   0.88868   0.00000  Uiso   1.00
C850   C     0.53514   0.02387   0.74892   0.00000  Uiso   1.00
C851   C     0.96486   0.30951   0.91766   0.00000  Uiso   1.00
C852   C     0.71605   0.10166   0.97903   0.00000  Uiso   1.00
C853   C     0.78396   0.23168   0.68764   0.00000  Uiso   1.00
C854   C     0.51578   0.07411   0.77841   0.00000  Uiso   1.00
C855   C     0.98422   0.25926   0.88820   0.00000  Uiso   1.00
C856   C     0.74401   0.01062   0.81001   0.00000  Uiso   1.00
C857   C     0.75600   0.32271   0.85666   0.00000  Uiso   1.00
C858   C     0.66481   0.16759   0.83358   0.00000  Uiso   1.00
C859   C     0.83519   0.16575   0.83309   0.00000  Uiso   1.00
C860   C     0.91027   0.20984   0.86016   0.00000  Uiso   1.00
Cu861  Cu    0.75501   0.17246   0.89479   0.00000  Uiso   1.00
Cu862  Cu    0.74500   0.16087   0.77187   0.00000  Uiso   1.00
H863   H     0.89411   0.24429   0.88055   0.00000  Uiso   1.00
H864   H     0.61761   0.29891   0.86575   0.00000  Uiso   1.00
H865   H     0.62496   0.27944   0.93808   0.00000  Uiso   1.00
H866   H     0.66391   0.26400   0.88362   0.00000  Uiso   1.00
H867   H     0.50866   0.32418   0.72987   0.00000  Uiso   1.00
H868   H     0.55372   0.03093   0.71096   0.00000  Uiso   1.00
H869   H     0.55813   0.01085   0.78307   0.00000  Uiso   1.00
H870   H     0.99133   0.00922   0.93668   0.00000  Uiso   1.00
H871   H     0.94186   0.32251   0.88349   0.00000  Uiso   1.00
H872   H     0.94628   0.30249   0.95563   0.00000  Uiso   1.00
H873   H     0.69255   0.08628   0.67398   0.00000  Uiso   1.00
H874   H     0.60589   0.08905   0.78611   0.00000  Uiso   1.00
H875   H     0.69495   0.10463   0.93774   0.00000  Uiso   1.00
H876   H     0.74149   0.07298   0.97046   0.00000  Uiso   1.00
H877   H     0.80745   0.24705   0.99268   0.00000  Uiso   1.00
H878   H     0.75851   0.26036   0.69621   0.00000  Uiso   1.00
H879   H     0.80505   0.22870   0.72892   0.00000  Uiso   1.00
H880   H     0.94924   0.03681   0.75688   0.00000  Uiso   1.00
H881   H     0.55076   0.29657   0.90972   0.00000  Uiso   1.00
H882   H     0.73043   0.32015   0.76573   0.00000  Uiso   1.00
H883   H     0.76958   0.01319   0.90094   0.00000  Uiso   1.00
H884   H     0.88241   0.03443   0.80090   0.00000  Uiso   1.00
H885   H     0.83611   0.06933   0.78307   0.00000  Uiso   1.00
H886   H     0.87503   0.05389   0.72859   0.00000  Uiso   1.00
N887   N     0.73745   0.15214   0.67951   0.00000  Uiso   1.00
N888   N     0.76256   0.18119   0.98716   0.00000  Uiso   1.00
O889   O     0.75326   0.09538   0.87326   0.00000  Uiso   1.00
O890   O     0.74675   0.23796   0.79341   0.00000  Uiso   1.00
O891   O     0.74480   0.08559   0.76945   0.00000  Uiso   1.00
O892   O     0.75520   0.24774   0.89721   0.00000  Uiso   1.00
O893   O     0.68936   0.17155   0.88524   0.00000  Uiso   1.00
O894   O     0.81065   0.16179   0.78143   0.00000  Uiso   1.00
O895   O     0.68090   0.16176   0.78143   0.00000  Uiso   1.00
O896   O     0.81910   0.17157   0.88523   0.00000  Uiso   1.00
C897   C     0.24762   0.40006   0.81799   0.00000  Uiso   1.00
C898   C     0.08973   0.45685   0.80649   0.00000  Uiso   1.00
C899   C     0.38321   0.49700   0.83259   0.00000  Uiso   1.00
C900   C     0.11679   0.50301   0.83408   0.00000  Uiso   1.00
C901   C     0.40183   0.45048   0.80536   0.00000  Uiso   1.00
C902   C     0.09817   0.54953   0.86130   0.00000  Uiso   1.00
C903   C     0.44901   0.45186   0.80544   0.00000  Uiso   1.00
C904   C     0.05098   0.54816   0.86120   0.00000  Uiso   1.00
C905   C     0.47646   0.49932   0.83321   0.00000  Uiso   1.00
C906   C     0.02354   0.50070   0.83344   0.00000  Uiso   1.00
C907   C     0.45687   0.54536   0.86080   0.00000  Uiso   1.00
C908   C     0.25238   0.59994   0.84867   0.00000  Uiso   1.00
C909   C     0.04313   0.45466   0.80584   0.00000  Uiso   1.00
C910   C     0.46933   0.40672   0.77847   0.00000  Uiso   1.00
C911   C     0.03067   0.59332   0.88815   0.00000  Uiso   1.00
C912   C     0.37209   0.39949   0.77799   0.00000  Uiso   1.00
C913   C     0.12792   0.60052   0.88868   0.00000  Uiso   1.00
C914   C     0.03514   0.35720   0.74892   0.00000  Uiso   1.00
C915   C     0.46486   0.64285   0.91766   0.00000  Uiso   1.00
C916   C     0.21605   0.43499   0.97903   0.00000  Uiso   1.00
C917   C     0.28396   0.56501   0.68764   0.00000  Uiso   1.00
C918   C     0.01578   0.40744   0.77841   0.00000  Uiso   1.00
C919   C     0.48422   0.59260   0.88820   0.00000  Uiso   1.00
C920   C     0.24401   0.34395   0.81001   0.00000  Uiso   1.00
C921   C     0.25600   0.65605   0.85666   0.00000  Uiso   1.00
C922   C     0.16481   0.50092   0.83358   0.00000  Uiso   1.00
C923   C     0.33519   0.49908   0.83309   0.00000  Uiso   1.00
C924   C     0.41027   0.54317   0.86016   0.00000  Uiso   1.00
Cu925  Cu    0.25501   0.50579   0.89479   0.00000  Uiso   1.00
Cu926  Cu    0.24500   0.49421   0.77187   0.00000  Uiso   1.00
H927   H     0.39411   0.57763   0.88055   0.00000  Uiso   1.00
H928   H     0.11761   0.63224   0.86575   0.00000  Uiso   1.00
H929   H     0.12496   0.61278   0.93808   0.00000  Uiso   1.00
H930   H     0.16391   0.59733   0.88362   0.00000  Uiso   1.00
H931   H     0.00866   0.65751   0.72987   0.00000  Uiso   1.00
H932   H     0.05372   0.36426   0.71096   0.00000  Uiso   1.00
H933   H     0.05813   0.34418   0.78307   0.00000  Uiso   1.00
H934   H     0.49133   0.34255   0.93668   0.00000  Uiso   1.00
H935   H     0.44186   0.65584   0.88349   0.00000  Uiso   1.00
H936   H     0.44628   0.63582   0.95563   0.00000  Uiso   1.00
H937   H     0.19255   0.41962   0.67398   0.00000  Uiso   1.00
H938   H     0.10589   0.42239   0.78611   0.00000  Uiso   1.00
H939   H     0.19495   0.43797   0.93774   0.00000  Uiso   1.00
H940   H     0.24149   0.40631   0.97046   0.00000  Uiso   1.00
H941   H     0.30745   0.58038   0.99268   0.00000  Uiso   1.00
H942   H     0.25851   0.59369   0.69621   0.00000  Uiso   1.00
H943   H     0.30505   0.56204   0.72892   0.00000  Uiso   1.00
H944   H     0.44924   0.37015   0.75688   0.00000  Uiso   1.00
H945   H     0.05076   0.62990   0.90972   0.00000  Uiso   1.00
H946   H     0.23043   0.65348   0.76573   0.00000  Uiso   1.00
H947   H     0.26958   0.34652   0.90094   0.00000  Uiso   1.00
H948   H     0.38241   0.36776   0.80090   0.00000  Uiso   1.00
H949   H     0.33611   0.40266   0.78307   0.00000  Uiso   1.00
H950   H     0.37503   0.38722   0.72859   0.00000  Uiso   1.00
N951   N     0.23745   0.48547   0.67951   0.00000  Uiso   1.00
N952   N     0.26256   0.51453   0.98716   0.00000  Uiso   1.00
O953   O     0.25326   0.42871   0.87326   0.00000  Uiso   1.00
O954   O     0.24675   0.57129   0.79341   0.00000  Uiso   1.00
O955   O     0.24480   0.41892   0.76945   0.00000  Uiso   1.00
O956   O     0.25520   0.58108   0.89721   0.00000  Uiso   1.00
O957   O     0.18936   0.50488   0.88524   0.00000  Uiso   1.00
O958   O     0.31065   0.49512   0.78143   0.00000  Uiso   1.00
O959   O     0.18090   0.49510   0.78143   0.00000  Uiso   1.00
O960   O     0.31910   0.50490   0.88523   0.00000  Uiso   1.00
C961   C     0.74762   0.40006   0.81799   0.00000  Uiso   1.00
C962   C     0.58973   0.45685   0.80649   0.00000  Uiso   1.00
C963   C     0.88321   0.49700   0.83259   0.00000  Uiso   1.00
C964   C     0.61679   0.50301   0.83408   0.00000  Uiso   1.00
C965   C     0.90183   0.45048   0.80536   0.00000  Uiso   1.00
C966   C     0.59817   0.54953   0.86130   0.00000  Uiso   1.00
C967   C     0.94901   0.45186   0.80544   0.00000  Uiso   1.00
C968   C     0.55098   0.54816   0.86120   0.00000  Uiso   1.00
C969   C     0.97646   0.49932   0.83321   0.00000  Uiso   1.00
C970   C     0.52354   0.50070   0.83344   0.00000  Uiso   1.00
C971   C     0.95687   0.54536   0.86080   0.00000  Uiso   1.00
C972   C     0.75238   0.59994   0.84867   0.00000  Uiso   1.00
C973   C     0.54313   0.45466   0.80584   0.00000  Uiso   1.00
C974   C     0.96933   0.40672   0.77847   0.00000  Uiso   1.00
C975   C     0.53067   0.59332   0.88815   0.00000  Uiso   1.00
C976   C     0.87209   0.39949   0.77799   0.00000  Uiso   1.00
C977   C     0.62792   0.60052   0.88868   0.00000  Uiso   1.00
C978   C     0.53514   0.35720   0.74892   0.00000  Uiso   1.00
C979   C     0.96486   0.64285   0.91766   0.00000  Uiso   1.00
C980   C     0.71605   0.43499   0.97903   0.00000  Uiso   1.00
C981   C     0.78396   0.56501   0.68764   0.00000  Uiso   1.00
C982   C     0.51578   0.40744   0.77841   0.00000  Uiso   1.00
C983   C     0.98422   0.59260   0.88820   0.00000  Uiso   1.00
C984   C     0.74401   0.34395   0.81001   0.00000  Uiso   1.00
C985   C     0.75600   0.65605   0.85666   0.00000  Uiso   1.00
C986   C     0.66481   0.50092   0.83358   0.00000  Uiso   1.00
C987   C     0.83519   0.49908   0.83309   0.00000  Uiso   1.00
C988   C     0.91027   0.54317   0.86016   0.00000  Uiso   1.00
Cu989  Cu    0.75501   0.50579   0.89479   0.00000  Uiso   1.00
Cu990  Cu    0.74500   0.49421   0.77187   0.00000  Uiso   1.00
H991   H     0.89411   0.57763   0.88055   0.00000  Uiso   1.00
H992   H     0.61761   0.63224   0.86575   0.00000  Uiso   1.00
H993   H     0.62496   0.61278   0.93808   0.00000  Uiso   1.00
H994   H     0.66391   0.59733   0.88362   0.00000  Uiso   1.00
H995   H     0.50866   0.65751   0.72987   0.00000  Uiso   1.00
H996   H     0.55372   0.36426   0.71096   0.00000  Uiso   1.00
H997   H     0.55813   0.34418   0.78307   0.00000  Uiso   1.00
H998   H     0.99133   0.34255   0.93668   0.00000  Uiso   1.00
H999   H     0.94186   0.65584   0.88349   0.00000  Uiso   1.00
H1000  H     0.94628   0.63582   0.95563   0.00000  Uiso   1.00
H1001  H     0.69255   0.41962   0.67398   0.00000  Uiso   1.00
H1002  H     0.60589   0.42239   0.78611   0.00000  Uiso   1.00
H1003  H     0.69495   0.43797   0.93774   0.00000  Uiso   1.00
H1004  H     0.74149   0.40631   0.97046   0.00000  Uiso   1.00
H1005  H     0.80745   0.58038   0.99268   0.00000  Uiso   1.00
H1006  H     0.75851   0.59369   0.69621   0.00000  Uiso   1.00
H1007  H     0.80505   0.56204   0.72892   0.00000  Uiso   1.00
H1008  H     0.94924   0.37015   0.75688   0.00000  Uiso   1.00
H1009  H     0.55076   0.62990   0.90972   0.00000  Uiso   1.00
H1010  H     0.73043   0.65348   0.76573   0.00000  Uiso   1.00
H1011  H     0.76958   0.34652   0.90094   0.00000  Uiso   1.00
H1012  H     0.88241   0.36776   0.80090   0.00000  Uiso   1.00
H1013  H     0.83611   0.40266   0.78307   0.00000  Uiso   1.00
H1014  H     0.87503   0.38722   0.72859   0.00000  Uiso   1.00
N1015  N     0.73745   0.48547   0.67951   0.00000  Uiso   1.00
N1016  N     0.76256   0.51453   0.98716   0.00000  Uiso   1.00
O1017  O     0.75326   0.42871   0.87326   0.00000  Uiso   1.00
O1018  O     0.74675   0.57129   0.79341   0.00000  Uiso   1.00
O1019  O     0.74480   0.41892   0.76945   0.00000  Uiso   1.00
O1020  O     0.75520   0.58108   0.89721   0.00000  Uiso   1.00
O1021  O     0.68936   0.50488   0.88524   0.00000  Uiso   1.00
O1022  O     0.81065   0.49512   0.78143   0.00000  Uiso   1.00
O1023  O     0.68090   0.49510   0.78143   0.00000  Uiso   1.00
O1024  O     0.81910   0.50490   0.88523   0.00000  Uiso   1.00
C1025  C     0.24762   0.73339   0.81799   0.00000  Uiso   1.00
C1026  C     0.08973   0.79018   0.80649   0.00000  Uiso   1.00
C1027  C     0.38321   0.83033   0.83259   0.00000  Uiso   1.00
C1028  C     0.11679   0.83634   0.83408   0.00000  Uiso   1.00
C1029  C     0.40183   0.78382   0.80536   0.00000  Uiso   1.00
C1030  C     0.09817   0.88286   0.86130   0.00000  Uiso   1.00
C1031  C     0.44901   0.78519   0.80544   0.00000  Uiso   1.00
C1032  C     0.05098   0.88150   0.86120   0.00000  Uiso   1.00
C1033  C     0.47646   0.83265   0.83321   0.00000  Uiso   1.00
C1034  C     0.02354   0.83403   0.83344   0.00000  Uiso   1.00
C1035  C     0.45687   0.87869   0.86080   0.00000  Uiso   1.00
C1036  C     0.25238   0.93328   0.84867   0.00000  Uiso   1.00
C1037  C     0.04313   0.78800   0.80584   0.00000  Uiso   1.00
C1038  C     0.46933   0.74005   0.77847   0.00000  Uiso   1.00
C1039  C     0.03067   0.92665   0.88815   0.00000  Uiso   1.00
C1040  C     0.37209   0.73282   0.77799   0.00000  Uiso   1.00
C1041  C     0.12792   0.93385   0.88868   0.00000  Uiso   1.00
C1042  C     0.03514   0.69054   0.74892   0.00000  Uiso   1.00
C1043  C     0.46486   0.97618   0.91766   0.00000  Uiso   1.00
C1044  C     0.21605   0.76832   0.97903   0.00000  Uiso   1.00
C1045  C     0.28396   0.89834   0.68764   0.00000  Uiso   1.00
C1046  C     0.01578   0.74077   0.77841   0.00000  Uiso   1.00
C1047  C     0.48422   0.92593   0.88820   0.00000  Uiso   1.00
C1048  C     0.24401   0.67729   0.81001   0.00000  Uiso   1.00
C1049  C     0.25600   0.98938   0.85666   0.00000  Uiso   1.00
C1050  C     0.16481   0.83425   0.83358   0.00000  Uiso   1.00
C1051  C     0.33519   0.83241   0.83309   0.00000  Uiso   1.00
C1052  C     0.41027   0.87650   0.86016   0.00000  Uiso   1.00
Cu1053 Cu    0.25501   0.83913   0.89479   0.00000  Uiso   1.00
Cu1054 Cu    0.24500   0.82754   0.77187   0.00000  Uiso   1.00
H1055  H     0.39411   0.91096   0.88055   0.00000  Uiso   1.00
H1056  H     0.11761   0.96558   0.86575   0.00000  Uiso   1.00
H1057  H     0.12496   0.94611   0.93808   0.00000  Uiso   1.00
H1058  H     0.16391   0.93067   0.88362   0.00000  Uiso   1.00
H1059  H     0.00866   0.99084   0.72987   0.00000  Uiso   1.00
H1060  H     0.05372   0.69759   0.71096   0.00000  Uiso   1.00
H1061  H     0.05813   0.67752   0.78307   0.00000  Uiso   1.00
H1062  H     0.49133   0.67588   0.93668   0.00000  Uiso   1.00
H1063  H     0.44186   0.98917   0.88349   0.00000  Uiso   1.00
H1064  H     0.44628   0.96915   0.95563   0.00000  Uiso   1.00
H1065  H     0.19255   0.75295   0.67398   0.00000  Uiso   1.00
H1066  H     0.10589   0.75572   0.78611   0.00000  Uiso   1.00
H1067  H     0.19495   0.77130   0.93774   0.00000  Uiso   1.00
H1068  H     0.24149   0.73964   0.97046   0.00000  Uiso   1.00
H1069  H     0.30745   0.91372   0.99268   0.00000  Uiso   1.00
H1070  H     0.25851   0.92702   0.69621   0.00000  Uiso   1.00
H1071  H     0.30505   0.89537   0.72892   0.00000  Uiso   1.00
H1072  H     0.44924   0.70348   0.75688   0.00000  Uiso   1.00
H1073  H     0.05076   0.96323   0.90972   0.00000  Uiso   1.00
H1074  H     0.23043   0.98681   0.76573   0.00000  Uiso   1.00
H1075  H     0.26958   0.67985   0.90094   0.00000  Uiso   1.00
H1076  H     0.38241   0.70110   0.80090   0.00000  Uiso   1.00
H1077  H     0.33611   0.73600   0.78307   0.00000  Uiso   1.00
H1078  H     0.37503   0.72056   0.72859   0.00000  Uiso   1.00
N1079  N     0.23745   0.81881   0.67951   0.00000  Uiso   1.00
N1080  N     0.26256   0.84786   0.98716   0.00000  Uiso   1.00
O1081  O     0.25326   0.76204   0.87326   0.00000  Uiso   1.00
O1082  O     0.24675   0.90462   0.79341   0.00000  Uiso   1.00
O1083  O     0.24480   0.75226   0.76945   0.00000  Uiso   1.00
O1084  O     0.25520   0.91441   0.89721   0.00000  Uiso   1.00
O1085  O     0.18936   0.83821   0.88524   0.00000  Uiso   1.00
O1086  O     0.31065   0.82845   0.78143   0.00000  Uiso   1.00
O1087  O     0.18090   0.82843   0.78143   0.00000  Uiso   1.00
O1088  O     0.31910   0.83824   0.88523   0.00000  Uiso   1.00
C1089  C     0.74762   0.73339   0.81799   0.00000  Uiso   1.00
C1090  C     0.58973   0.79018   0.80649   0.00000  Uiso   1.00
C1091  C     0.88321   0.83033   0.83259   0.00000  Uiso   1.00
C1092  C     0.61679   0.83634   0.83408   0.00000  Uiso   1.00
C1093  C     0.90183   0.78382   0.80536   0.00000  Uiso   1.00
C1094  C     0.59817   0.88286   0.86130   0.00000  Uiso   1.00
C1095  C     0.94901   0.78519   0.80544   0.00000  Uiso   1.00
C1096  C     0.55098   0.88150   0.86120   0.00000  Uiso   1.00
C1097  C     0.97646   0.83265   0.83321   0.00000  Uiso   1.00
C1098  C     0.52354   0.83403   0.83344   0.00000  Uiso   1.00
C1099  C     0.95687   0.87869   0.86080   0.00000  Uiso   1.00
C1100  C     0.75238   0.93328   0.84867   0.00000  Uiso   1.00
C1101  C     0.54313   0.78800   0.80584   0.00000  Uiso   1.00
C1102  C     0.96933   0.74005   0.77847   0.00000  Uiso   1.00
C1103  C     0.53067   0.92665   0.88815   0.00000  Uiso   1.00
C1104  C     0.87209   0.73282   0.77799   0.00000  Uiso   1.00
C1105  C     0.62792   0.93385   0.88868   0.00000  Uiso   1.00
C1106  C     0.53514   0.69054   0.74892   0.00000  Uiso   1.00
C1107  C     0.96486   0.97618   0.91766   0.00000  Uiso   1.00
C1108  C     0.71605   0.76832   0.97903   0.00000  Uiso   1.00
C1109  C     0.78396   0.89834   0.68764   0.00000  Uiso   1.00
C1110  C     0.51578   0.74077   0.77841   0.00000  Uiso   1.00
C1111  C     0.98422   0.92593   0.88820   0.00000  Uiso   1.00
C1112  C     0.74401   0.67729   0.81001   0.00000  Uiso   1.00
C1113  C     0.75600   0.98938   0.85666   0.00000  Uiso   1.00
C1114  C     0.66481   0.83425   0.83358   0.00000  Uiso   1.00
C1115  C     0.83519   0.83241   0.83309   0.00000  Uiso   1.00
C1116  C     0.91027   0.87650   0.86016   0.00000  Uiso   1.00
Cu1117 Cu    0.75501   0.83913   0.89479   0.00000  Uiso   1.00
Cu1118 Cu    0.74500   0.82754   0.77187   0.00000  Uiso   1.00
H1119  H     0.89411   0.91096   0.88055   0.00000  Uiso   1.00
H1120  H     0.61761   0.96558   0.86575   0.00000  Uiso   1.00
H1121  H     0.62496   0.94611   0.93808   0.00000  Uiso   1.00
H1122  H     0.66391   0.93067   0.88362   0.00000  Uiso   1.00
H1123  H     0.50866   0.99084   0.72987   0.00000  Uiso   1.00
H1124  H     0.55372   0.69759   0.71096   0.00000  Uiso   1.00
H1125  H     0.55813   0.67752   0.78307   0.00000  Uiso   1.00
H1126  H     0.99133   0.67588   0.93668   0.00000  Uiso   1.00
H1127  H     0.94186   0.98917   0.88349   0.00000  Uiso   1.00
H1128  H     0.94628   0.96915   0.95563   0.00000  Uiso   1.00
H1129  H     0.69255   0.75295   0.67398   0.00000  Uiso   1.00
H1130  H     0.60589   0.75572   0.78611   0.00000  Uiso   1.00
H1131  H     0.69495   0.77130   0.93774   0.00000  Uiso   1.00
H1132  H     0.74149   0.73964   0.97046   0.00000  Uiso   1.00
H1133  H     0.80745   0.91372   0.99268   0.00000  Uiso   1.00
H1134  H     0.75851   0.92702   0.69621   0.00000  Uiso   1.00
H1135  H     0.80505   0.89537   0.72892   0.00000  Uiso   1.00
H1136  H     0.94924   0.70348   0.75688   0.00000  Uiso   1.00
H1137  H     0.55076   0.96323   0.90972   0.00000  Uiso   1.00
H1138  H     0.73043   0.98681   0.76573   0.00000  Uiso   1.00
H1139  H     0.76958   0.67985   0.90094   0.00000  Uiso   1.00
H1140  H     0.88241   0.70110   0.80090   0.00000  Uiso   1.00
H1141  H     0.83611   0.73600   0.78307   0.00000  Uiso   1.00
H1142  H     0.87503   0.72056   0.72859   0.00000  Uiso   1.00
N1143  N     0.73745   0.81881   0.67951   0.00000  Uiso   1.00
N1144  N     0.76256   0.84786   0.98716   0.00000  Uiso   1.00
O1145  O     0.75326   0.76204   0.87326   0.00000  Uiso   1.00
O1146  O     0.74675   0.90462   0.79341   0.00000  Uiso   1.00
O1147  O     0.74480   0.75226   0.76945   0.00000  Uiso   1.00
O1148  O     0.75520   0.91441   0.89721   0.00000  Uiso   1.00
O1149  O     0.68936   0.83821   0.88524   0.00000  Uiso   1.00
O1150  O     0.81065   0.82845   0.78143   0.00000  Uiso   1.00
O1151  O     0.68090   0.82843   0.78143   0.00000  Uiso   1.00
O1152  O     0.81910   0.83824   0.88523   0.00000  Uiso   1.00
loop_
_geom_bond_atom_site_label_1
_geom_bond_atom_site_label_2
_geom_bond_distance
_geom_bond_site_symmetry_2
_ccdc_geom_bond_type
C1     O57     1.301   .     A
C1     O59     1.296   .     A
C1     C24     1.424   .     S
C2     C4      1.390   .     A
C2     H42     1.083   .     S
C2     C13     1.396   .     A
C3     C28     1.390   .     A
C3     C27     1.448   .     S
C3     C5      1.410   .     A
C4     C26     1.448   .     S
C4     C6      1.410   .     A
C5     C7      1.415   .     A
C5     C16     1.520   .     S
C6     C17     1.520   .     S
C6     C8      1.415   .     A
C7     C9      1.421   .     A
C7     C14     1.407   .     A
C8     C15     1.407   .     A
C8     C10     1.421   .     A
C9     C11     1.418   .     A
C9     C74     1.412   .     S
C10    C13     1.418   .     A
C10    C73     1.412   1_455 S
C11    C28     1.396   .     A
C11    C23     1.414   .     A
C12    C25     1.424   .     S
C12    O58     1.301   .     A
C12    O60     1.296   .     A
C13    C22     1.414   .     A
C14    H48     1.081   .     S
C14    C86     1.394   .     S
C15    H49     1.081   .     S
C15    C87     1.394   1_455 S
C16    H54     1.111   .     S
C16    H53     1.105   .     S
C16    H52     1.111   .     S
C17    H33     1.111   .     S
C17    H34     1.105   .     S
C17    H32     1.111   .     S
C18    C22     1.513   .     S
C18    H36     1.110   .     S
C18    H37     1.111   .     S
C18    H291    1.111   1_545 S
C19    C23     1.513   .     S
C19    H40     1.111   .     S
C19    H39     1.111   .     S
C19    H166    1.111   .     S
C20    H43     1.099   .     S
C20    H44     1.105   .     S
C20    H425    1.108   .     S
C20    N439    1.440   .     S
C21    H46     1.105   .     S
C21    H47     1.099   .     S
C21    H813    1.108   1_554 S
C21    N824    1.440   1_554 S
C22    C78     1.394   1_455 S
C23    C79     1.394   .     S
C24    C281    1.327   1_545 S
C24    H306    1.084   1_545 S
C25    C152    1.327   .     S
C25    H179    1.084   .     S
C26    O63     1.303   .     A
C26    O61     1.303   .     A
C27    O62     1.303   .     A
C27    O64     1.303   .     A
C28    H31     1.083   .     S
Cu29   Cu30    2.723   .     S
Cu29   O60     1.943   .     S
Cu29   O64     1.959   .     S
Cu29   O61     1.961   .     S
Cu29   N56     2.046   .     S
Cu29   O57     1.950   .     S
Cu30   N55     2.046   .     S
Cu30   O59     1.943   .     S
Cu30   O63     1.959   .     S
Cu30   O62     1.961   .     S
Cu30   O58     1.950   .     S
H35    C146    1.111   .     S
H38    C275    1.111   1_545 S
H41    C788    1.108   1_554 S
H45    C405    1.108   .     S
H50    C152    1.084   .     S
H51    C281    1.084   1_545 S
N55    C788    1.440   1_554 S
N55    N824    1.294   1_554 S
N56    N439    1.294   .     S
N56    C405    1.440   .     S
C65    O121    1.301   .     A
C65    O123    1.296   .     A
C65    C88     1.424   .     S
C66    C68     1.390   .     A
C66    H106    1.083   .     S
C66    C77     1.396   .     A
C67    C92     1.390   .     A
C67    C91     1.448   .     S
C67    C69     1.410   .     A
C68    C90     1.448   .     S
C68    C70     1.410   .     A
C69    C71     1.415   .     A
C69    C80     1.520   .     S
C70    C81     1.520   .     S
C70    C72     1.415   .     A
C71    C73     1.421   .     A
C71    C78     1.407   .     A
C72    C79     1.407   .     A
C72    C74     1.421   .     A
C73    C75     1.418   .     A
C73    C10     1.412   1_655 S
C74    C77     1.418   .     A
C75    C92     1.396   .     A
C75    C87     1.414   .     A
C76    C89     1.424   .     S
C76    O122    1.301   .     A
C76    O124    1.296   .     A
C77    C86     1.414   .     A
C78    H112    1.081   .     S
C78    C22     1.394   1_655 S
C79    H113    1.081   .     S
C80    H118    1.111   .     S
C80    H117    1.105   .     S
C80    H116    1.111   .     S
C81    H97     1.111   .     S
C81    H98     1.105   .     S
C81    H96     1.111   .     S
C82    C86     1.513   .     S
C82    H100    1.110   .     S
C82    H101    1.111   .     S
C82    H355    1.111   1_545 S
C83    C87     1.513   .     S
C83    H104    1.111   .     S
C83    H103    1.111   .     S
C83    H230    1.111   .     S
C84    H107    1.099   .     S
C84    H108    1.105   .     S
C84    H489    1.108   .     S
C84    N503    1.440   .     S
C85    H110    1.105   .     S
C85    H111    1.099   .     S
C85    H877    1.108   1_554 S
C85    N888    1.440   1_554 S
C87    C15     1.394   1_655 S
C88    C345    1.327   1_545 S
C88    H370    1.084   1_545 S
C89    C216    1.327   .     S
C89    H243    1.084   .     S
C90    O127    1.303   .     A
C90    O125    1.303   .     A
C91    O126    1.303   .     A
C91    O128    1.303   .     A
C92    H95     1.083   .     S
Cu93   Cu94    2.723   .     S
Cu93   O124    1.943   .     S
Cu93   O128    1.959   .     S
Cu93   O125    1.961   .     S
Cu93   N120    2.046   .     S
Cu93   O121    1.950   .     S
Cu94   N119    2.046   .     S
Cu94   O123    1.943   .     S
Cu94   O127    1.959   .     S
Cu94   O126    1.961   .     S
Cu94   O122    1.950   .     S
H99    C210    1.111   .     S
H102   C339    1.111   1_545 S
H105   C852    1.108   1_554 S
H109   C469    1.108   .     S
H114   C216    1.084   .     S
H115   C345    1.084   1_545 S
N119   C852    1.440   1_554 S
N119   N888    1.294   1_554 S
N120   N503    1.294   .     S
N120   C469    1.440   .     S
C129   O185    1.301   .     A
C129   O187    1.296   .     A
C129   C152    1.424   .     S
C130   C132    1.390   .     A
C130   H170    1.083   .     S
C130   C141    1.396   .     A
C131   C156    1.390   .     A
C131   C155    1.448   .     S
C131   C133    1.410   .     A
C132   C154    1.448   .     S
C132   C134    1.410   .     A
C133   C135    1.415   .     A
C133   C144    1.520   .     S
C134   C145    1.520   .     S
C134   C136    1.415   .     A
C135   C137    1.421   .     A
C135   C142    1.407   .     A
C136   C143    1.407   .     A
C136   C138    1.421   .     A
C137   C139    1.418   .     A
C137   C202    1.412   .     S
C138   C141    1.418   .     A
C138   C201    1.412   1_455 S
C139   C156    1.396   .     A
C139   C151    1.414   .     A
C140   C153    1.424   .     S
C140   O186    1.301   .     A
C140   O188    1.296   .     A
C141   C150    1.414   .     A
C142   H176    1.081   .     S
C142   C214    1.394   .     S
C143   H177    1.081   .     S
C143   C215    1.394   1_455 S
C144   H182    1.111   .     S
C144   H181    1.105   .     S
C144   H180    1.111   .     S
C145   H161    1.111   .     S
C145   H162    1.105   .     S
C145   H160    1.111   .     S
C146   C150    1.513   .     S
C146   H164    1.110   .     S
C146   H165    1.111   .     S
C147   C151    1.513   .     S
C147   H168    1.111   .     S
C147   H167    1.111   .     S
C147   H294    1.111   .     S
C148   H171    1.099   .     S
C148   H172    1.105   .     S
C148   H553    1.108   .     S
C148   N567    1.440   .     S
C149   H174    1.105   .     S
C149   H175    1.099   .     S
C149   H941    1.108   1_554 S
C149   N952    1.440   1_554 S
C150   C206    1.394   1_455 S
C151   C207    1.394   .     S
C153   C280    1.327   .     S
C153   H307    1.084   .     S
C154   O191    1.303   .     A
C154   O189    1.303   .     A
C155   O190    1.303   .     A
C155   O192    1.303   .     A
C156   H159    1.083   .     S
Cu157  Cu158   2.723   .     S
Cu157  O188    1.943   .     S
Cu157  O192    1.959   .     S
Cu157  O189    1.961   .     S
Cu157  N184    2.046   .     S
Cu157  O185    1.950   .     S
Cu158  N183    2.046   .     S
Cu158  O187    1.943   .     S
Cu158  O191    1.959   .     S
Cu158  O190    1.961   .     S
Cu158  O186    1.950   .     S
H163   C274    1.111   .     S
H169   C916    1.108   1_554 S
H173   C533    1.108   .     S
H178   C280    1.084   .     S
N183   C916    1.440   1_554 S
N183   N952    1.294   1_554 S
N184   N567    1.294   .     S
N184   C533    1.440   .     S
C193   O249    1.301   .     A
C193   O251    1.296   .     A
C193   C216    1.424   .     S
C194   C196    1.390   .     A
C194   H234    1.083   .     S
C194   C205    1.396   .     A
C195   C220    1.390   .     A
C195   C219    1.448   .     S
C195   C197    1.410   .     A
C196   C218    1.448   .     S
C196   C198    1.410   .     A
C197   C199    1.415   .     A
C197   C208    1.520   .     S
C198   C209    1.520   .     S
C198   C200    1.415   .     A
C199   C201    1.421   .     A
C199   C206    1.407   .     A
C200   C207    1.407   .     A
C200   C202    1.421   .     A
C201   C203    1.418   .     A
C201   C138    1.412   1_655 S
C202   C205    1.418   .     A
C203   C220    1.396   .     A
C203   C215    1.414   .     A
C204   C217    1.424   .     S
C204   O250    1.301   .     A
C204   O252    1.296   .     A
C205   C214    1.414   .     A
C206   H240    1.081   .     S
C206   C150    1.394   1_655 S
C207   H241    1.081   .     S
C208   H246    1.111   .     S
C208   H245    1.105   .     S
C208   H244    1.111   .     S
C209   H225    1.111   .     S
C209   H226    1.105   .     S
C209   H224    1.111   .     S
C210   C214    1.513   .     S
C210   H228    1.110   .     S
C210   H229    1.111   .     S
C211   C215    1.513   .     S
C211   H232    1.111   .     S
C211   H231    1.111   .     S
C211   H358    1.111   .     S
C212   H235    1.099   .     S
C212   H236    1.105   .     S
C212   H617    1.108   .     S
C212   N631    1.440   .     S
C213   H238    1.105   .     S
C213   H239    1.099   .     S
C213   H1005   1.108   1_554 S
C213   N1016   1.440   1_554 S
C215   C143    1.394   1_655 S
C217   C344    1.327   .     S
C217   H371    1.084   .     S
C218   O255    1.303   .     A
C218   O253    1.303   .     A
C219   O254    1.303   .     A
C219   O256    1.303   .     A
C220   H223    1.083   .     S
Cu221  Cu222   2.723   .     S
Cu221  O252    1.943   .     S
Cu221  O256    1.959   .     S
Cu221  O253    1.961   .     S
Cu221  N248    2.046   .     S
Cu221  O249    1.950   .     S
Cu222  N247    2.046   .     S
Cu222  O251    1.943   .     S
Cu222  O255    1.959   .     S
Cu222  O254    1.961   .     S
Cu222  O250    1.950   .     S
H227   C338    1.111   .     S
H233   C980    1.108   1_554 S
H237   C597    1.108   .     S
H242   C344    1.084   .     S
N247   C980    1.440   1_554 S
N247   N1016   1.294   1_554 S
N248   N631    1.294   .     S
N248   C597    1.440   .     S
C257   O313    1.301   .     A
C257   O315    1.296   .     A
C257   C280    1.424   .     S
C258   C260    1.390   .     A
C258   H298    1.083   .     S
C258   C269    1.396   .     A
C259   C284    1.390   .     A
C259   C283    1.448   .     S
C259   C261    1.410   .     A
C260   C282    1.448   .     S
C260   C262    1.410   .     A
C261   C263    1.415   .     A
C261   C272    1.520   .     S
C262   C273    1.520   .     S
C262   C264    1.415   .     A
C263   C265    1.421   .     A
C263   C270    1.407   .     A
C264   C271    1.407   .     A
C264   C266    1.421   .     A
C265   C267    1.418   .     A
C265   C330    1.412   .     S
C266   C269    1.418   .     A
C266   C329    1.412   1_455 S
C267   C284    1.396   .     A
C267   C279    1.414   .     A
C268   C281    1.424   .     S
C268   O314    1.301   .     A
C268   O316    1.296   .     A
C269   C278    1.414   .     A
C270   H304    1.081   .     S
C270   C342    1.394   .     S
C271   H305    1.081   .     S
C271   C343    1.394   1_455 S
C272   H310    1.111   .     S
C272   H309    1.105   .     S
C272   H308    1.111   .     S
C273   H289    1.111   .     S
C273   H290    1.105   .     S
C273   H288    1.111   .     S
C274   C278    1.513   .     S
C274   H292    1.110   .     S
C274   H293    1.111   .     S
C275   C279    1.513   .     S
C275   H296    1.111   .     S
C275   H295    1.111   .     S
C275   H38     1.111   1_565 S
C276   H299    1.099   .     S
C276   H300    1.105   .     S
C276   H681    1.108   .     S
C276   N695    1.440   .     S
C277   H302    1.105   .     S
C277   H303    1.099   .     S
C277   H1069   1.108   1_554 S
C277   N1080   1.440   1_554 S
C278   C334    1.394   1_455 S
C279   C335    1.394   .     S
C281   C24     1.327   1_565 S
C281   H51     1.084   1_565 S
C282   O319    1.303   .     A
C282   O317    1.303   .     A
C283   O318    1.303   .     A
C283   O320    1.303   .     A
C284   H287    1.083   .     S
Cu285  Cu286   2.723   .     S
Cu285  O316    1.943   .     S
Cu285  O320    1.959   .     S
Cu285  O317    1.961   .     S
Cu285  N312    2.046   .     S
Cu285  O313    1.950   .     S
Cu286  N311    2.046   .     S
Cu286  O315    1.943   .     S
Cu286  O319    1.959   .     S
Cu286  O318    1.961   .     S
Cu286  O314    1.950   .     S
H291   C18     1.111   1_565 S
H297   C1044   1.108   1_554 S
H301   C661    1.108   .     S
H306   C24     1.084   1_565 S
N311   C1044   1.440   1_554 S
N311   N1080   1.294   1_554 S
N312   N695    1.294   .     S
N312   C661    1.440   .     S
C321   O377    1.301   .     A
C321   O379    1.296   .     A
C321   C344    1.424   .     S
C322   C324    1.390   .     A
C322   H362    1.083   .     S
C322   C333    1.396   .     A
C323   C348    1.390   .     A
C323   C347    1.448   .     S
C323   C325    1.410   .     A
C324   C346    1.448   .     S
C324   C326    1.410   .     A
C325   C327    1.415   .     A
C325   C336    1.520   .     S
C326   C337    1.520   .     S
C326   C328    1.415   .     A
C327   C329    1.421   .     A
C327   C334    1.407   .     A
C328   C335    1.407   .     A
C328   C330    1.421   .     A
C329   C331    1.418   .     A
C329   C266    1.412   1_655 S
C330   C333    1.418   .     A
C331   C348    1.396   .     A
C331   C343    1.414   .     A
C332   C345    1.424   .     S
C332   O378    1.301   .     A
C332   O380    1.296   .     A
C333   C342    1.414   .     A
C334   H368    1.081   .     S
C334   C278    1.394   1_655 S
C335   H369    1.081   .     S
C336   H374    1.111   .     S
C336   H373    1.105   .     S
C336   H372    1.111   .     S
C337   H353    1.111   .     S
C337   H354    1.105   .     S
C337   H352    1.111   .     S
C338   C342    1.513   .     S
C338   H356    1.110   .     S
C338   H357    1.111   .     S
C339   C343    1.513   .     S
C339   H360    1.111   .     S
C339   H359    1.111   .     S
C339   H102    1.111   1_565 S
C340   H363    1.099   .     S
C340   H364    1.105   .     S
C340   H745    1.108   .     S
C340   N759    1.440   .     S
C341   H366    1.105   .     S
C341   H367    1.099   .     S
C341   H1133   1.108   1_554 S
C341   N1144   1.440   1_554 S
C343   C271    1.394   1_655 S
C345   C88     1.327   1_565 S
C345   H115    1.084   1_565 S
C346   O383    1.303   .     A
C346   O381    1.303   .     A
C347   O382    1.303   .     A
C347   O384    1.303   .     A
C348   H351    1.083   .     S
Cu349  Cu350   2.723   .     S
Cu349  O380    1.943   .     S
Cu349  O384    1.959   .     S
Cu349  O381    1.961   .     S
Cu349  N376    2.046   .     S
Cu349  O377    1.950   .     S
Cu350  N375    2.046   .     S
Cu350  O379    1.943   .     S
Cu350  O383    1.959   .     S
Cu350  O382    1.961   .     S
Cu350  O378    1.950   .     S
H355   C82     1.111   1_565 S
H361   C1108   1.108   1_554 S
H365   C725    1.108   .     S
H370   C88     1.084   1_565 S
N375   C1108   1.440   1_554 S
N375   N1144   1.294   1_554 S
N376   N759    1.294   .     S
N376   C725    1.440   .     S
C385   O441    1.301   .     A
C385   O443    1.296   .     A
C385   C408    1.424   .     S
C386   C388    1.390   .     A
C386   H426    1.083   .     S
C386   C397    1.396   .     A
C387   C412    1.390   .     A
C387   C411    1.448   .     S
C387   C389    1.410   .     A
C388   C410    1.448   .     S
C388   C390    1.410   .     A
C389   C391    1.415   .     A
C389   C400    1.520   .     S
C390   C401    1.520   .     S
C390   C392    1.415   .     A
C391   C393    1.421   .     A
C391   C398    1.407   .     A
C392   C399    1.407   .     A
C392   C394    1.421   .     A
C393   C395    1.418   .     A
C393   C458    1.412   .     S
C394   C397    1.418   .     A
C394   C457    1.412   1_455 S
C395   C412    1.396   .     A
C395   C407    1.414   .     A
C396   C409    1.424   .     S
C396   O442    1.301   .     A
C396   O444    1.296   .     A
C397   C406    1.414   .     A
C398   H432    1.081   .     S
C398   C470    1.394   .     S
C399   H433    1.081   .     S
C399   C471    1.394   1_455 S
C400   H438    1.111   .     S
C400   H437    1.105   .     S
C400   H436    1.111   .     S
C401   H417    1.111   .     S
C401   H418    1.105   .     S
C401   H416    1.111   .     S
C402   C406    1.513   .     S
C402   H420    1.110   .     S
C402   H421    1.111   .     S
C402   H675    1.111   1_545 S
C403   C407    1.513   .     S
C403   H424    1.111   .     S
C403   H423    1.111   .     S
C403   H550    1.111   .     S
C404   H427    1.099   .     S
C404   H428    1.105   .     S
C404   H809    1.108   .     S
C404   N823    1.440   .     S
C405   H430    1.105   .     S
C405   H431    1.099   .     S
C406   C462    1.394   1_455 S
C407   C463    1.394   .     S
C408   C665    1.327   1_545 S
C408   H690    1.084   1_545 S
C409   C536    1.327   .     S
C409   H563    1.084   .     S
C410   O447    1.303   .     A
C410   O445    1.303   .     A
C411   O446    1.303   .     A
C411   O448    1.303   .     A
C412   H415    1.083   .     S
Cu413  Cu414   2.723   .     S
Cu413  O444    1.943   .     S
Cu413  O448    1.959   .     S
Cu413  O445    1.961   .     S
Cu413  N440    2.046   .     S
Cu413  O441    1.950   .     S
Cu414  N439    2.046   .     S
Cu414  O443    1.943   .     S
Cu414  O447    1.959   .     S
Cu414  O446    1.961   .     S
Cu414  O442    1.950   .     S
H419   C530    1.111   .     S
H422   C659    1.111   1_545 S
H429   C789    1.108   .     S
H434   C536    1.084   .     S
H435   C665    1.084   1_545 S
N440   N823    1.294   .     S
N440   C789    1.440   .     S
C449   O505    1.301   .     A
C449   O507    1.296   .     A
C449   C472    1.424   .     S
C450   C452    1.390   .     A
C450   H490    1.083   .     S
C450   C461    1.396   .     A
C451   C476    1.390   .     A
C451   C475    1.448   .     S
C451   C453    1.410   .     A
C452   C474    1.448   .     S
C452   C454    1.410   .     A
C453   C455    1.415   .     A
C453   C464    1.520   .     S
C454   C465    1.520   .     S
C454   C456    1.415   .     A
C455   C457    1.421   .     A
C455   C462    1.407   .     A
C456   C463    1.407   .     A
C456   C458    1.421   .     A
C457   C459    1.418   .     A
C457   C394    1.412   1_655 S
C458   C461    1.418   .     A
C459   C476    1.396   .     A
C459   C471    1.414   .     A
C460   C473    1.424   .     S
C460   O506    1.301   .     A
C460   O508    1.296   .     A
C461   C470    1.414   .     A
C462   H496    1.081   .     S
C462   C406    1.394   1_655 S
C463   H497    1.081   .     S
C464   H502    1.111   .     S
C464   H501    1.105   .     S
C464   H500    1.111   .     S
C465   H481    1.111   .     S
C465   H482    1.105   .     S
C465   H480    1.111   .     S
C466   C470    1.513   .     S
C466   H484    1.110   .     S
C466   H485    1.111   .     S
C466   H739    1.111   1_545 S
C467   C471    1.513   .     S
C467   H488    1.111   .     S
C467   H487    1.111   .     S
C467   H614    1.111   .     S
C468   H491    1.099   .     S
C468   H492    1.105   .     S
C468   H873    1.108   .     S
C468   N887    1.440   .     S
C469   H494    1.105   .     S
C469   H495    1.099   .     S
C471   C399    1.394   1_655 S
C472   C729    1.327   1_545 S
C472   H754    1.084   1_545 S
C473   C600    1.327   .     S
C473   H627    1.084   .     S
C474   O511    1.303   .     A
C474   O509    1.303   .     A
C475   O510    1.303   .     A
C475   O512    1.303   .     A
C476   H479    1.083   .     S
Cu477  Cu478   2.723   .     S
Cu477  O508    1.943   .     S
Cu477  O512    1.959   .     S
Cu477  O509    1.961   .     S
Cu477  N504    2.046   .     S
Cu477  O505    1.950   .     S
Cu478  N503    2.046   .     S
Cu478  O507    1.943   .     S
Cu478  O511    1.959   .     S
Cu478  O510    1.961   .     S
Cu478  O506    1.950   .     S
H483   C594    1.111   .     S
H486   C723    1.111   1_545 S
H493   C853    1.108   .     S
H498   C600    1.084   .     S
H499   C729    1.084   1_545 S
N504   N887    1.294   .     S
N504   C853    1.440   .     S
C513   O569    1.301   .     A
C513   O571    1.296   .     A
C513   C536    1.424   .     S
C514   C516    1.390   .     A
C514   H554    1.083   .     S
C514   C525    1.396   .     A
C515   C540    1.390   .     A
C515   C539    1.448   .     S
C515   C517    1.410   .     A
C516   C538    1.448   .     S
C516   C518    1.410   .     A
C517   C519    1.415   .     A
C517   C528    1.520   .     S
C518   C529    1.520   .     S
C518   C520    1.415   .     A
C519   C521    1.421   .     A
C519   C526    1.407   .     A
C520   C527    1.407   .     A
C520   C522    1.421   .     A
C521   C523    1.418   .     A
C521   C586    1.412   .     S
C522   C525    1.418   .     A
C522   C585    1.412   1_455 S
C523   C540    1.396   .     A
C523   C535    1.414   .     A
C524   C537    1.424   .     S
C524   O570    1.301   .     A
C524   O572    1.296   .     A
C525   C534    1.414   .     A
C526   H560    1.081   .     S
C526   C598    1.394   .     S
C527   H561    1.081   .     S
C527   C599    1.394   1_455 S
C528   H566    1.111   .     S
C528   H565    1.105   .     S
C528   H564    1.111   .     S
C529   H545    1.111   .     S
C529   H546    1.105   .     S
C529   H544    1.111   .     S
C530   C534    1.513   .     S
C530   H548    1.110   .     S
C530   H549    1.111   .     S
C531   C535    1.513   .     S
C531   H552    1.111   .     S
C531   H551    1.111   .     S
C531   H678    1.111   .     S
C532   H555    1.099   .     S
C532   H556    1.105   .     S
C532   H937    1.108   .     S
C532   N951    1.440   .     S
C533   H558    1.105   .     S
C533   H559    1.099   .     S
C534   C590    1.394   1_455 S
C535   C591    1.394   .     S
C537   C664    1.327   .     S
C537   H691    1.084   .     S
C538   O575    1.303   .     A
C538   O573    1.303   .     A
C539   O574    1.303   .     A
C539   O576    1.303   .     A
C540   H543    1.083   .     S
Cu541  Cu542   2.723   .     S
Cu541  O572    1.943   .     S
Cu541  O576    1.959   .     S
Cu541  O573    1.961   .     S
Cu541  N568    2.046   .     S
Cu541  O569    1.950   .     S
Cu542  N567    2.046   .     S
Cu542  O571    1.943   .     S
Cu542  O575    1.959   .     S
Cu542  O574    1.961   .     S
Cu542  O570    1.950   .     S
H547   C658    1.111   .     S
H557   C917    1.108   .     S
H562   C664    1.084   .     S
N568   N951    1.294   .     S
N568   C917    1.440   .     S
C577   O633    1.301   .     A
C577   O635    1.296   .     A
C577   C600    1.424   .     S
C578   C580    1.390   .     A
C578   H618    1.083   .     S
C578   C589    1.396   .     A
C579   C604    1.390   .     A
C579   C603    1.448   .     S
C579   C581    1.410   .     A
C580   C602    1.448   .     S
C580   C582    1.410   .     A
C581   C583    1.415   .     A
C581   C592    1.520   .     S
C582   C593    1.520   .     S
C582   C584    1.415   .     A
C583   C585    1.421   .     A
C583   C590    1.407   .     A
C584   C591    1.407   .     A
C584   C586    1.421   .     A
C585   C587    1.418   .     A
C585   C522    1.412   1_655 S
C586   C589    1.418   .     A
C587   C604    1.396   .     A
C587   C599    1.414   .     A
C588   C601    1.424   .     S
C588   O634    1.301   .     A
C588   O636    1.296   .     A
C589   C598    1.414   .     A
C590   H624    1.081   .     S
C590   C534    1.394   1_655 S
C591   H625    1.081   .     S
C592   H630    1.111   .     S
C592   H629    1.105   .     S
C592   H628    1.111   .     S
C593   H609    1.111   .     S
C593   H610    1.105   .     S
C593   H608    1.111   .     S
C594   C598    1.513   .     S
C594   H612    1.110   .     S
C594   H613    1.111   .     S
C595   C599    1.513   .     S
C595   H616    1.111   .     S
C595   H615    1.111   .     S
C595   H742    1.111   .     S
C596   H619    1.099   .     S
C596   H620    1.105   .     S
C596   H1001   1.108   .     S
C596   N1015   1.440   .     S
C597   H622    1.105   .     S
C597   H623    1.099   .     S
C599   C527    1.394   1_655 S
C601   C728    1.327   .     S
C601   H755    1.084   .     S
C602   O639    1.303   .     A
C602   O637    1.303   .     A
C603   O638    1.303   .     A
C603   O640    1.303   .     A
C604   H607    1.083   .     S
Cu605  Cu606   2.723   .     S
Cu605  O636    1.943   .     S
Cu605  O640    1.959   .     S
Cu605  O637    1.961   .     S
Cu605  N632    2.046   .     S
Cu605  O633    1.950   .     S
Cu606  N631    2.046   .     S
Cu606  O635    1.943   .     S
Cu606  O639    1.959   .     S
Cu606  O638    1.961   .     S
Cu606  O634    1.950   .     S
H611   C722    1.111   .     S
H621   C981    1.108   .     S
H626   C728    1.084   .     S
N632   N1015   1.294   .     S
N632   C981    1.440   .     S
C641   O697    1.301   .     A
C641   O699    1.296   .     A
C641   C664    1.424   .     S
C642   C644    1.390   .     A
C642   H682    1.083   .     S
C642   C653    1.396   .     A
C643   C668    1.390   .     A
C643   C667    1.448   .     S
C643   C645    1.410   .     A
C644   C666    1.448   .     S
C644   C646    1.410   .     A
C645   C647    1.415   .     A
C645   C656    1.520   .     S
C646   C657    1.520   .     S
C646   C648    1.415   .     A
C647   C649    1.421   .     A
C647   C654    1.407   .     A
C648   C655    1.407   .     A
C648   C650    1.421   .     A
C649   C651    1.418   .     A
C649   C714    1.412   .     S
C650   C653    1.418   .     A
C650   C713    1.412   1_455 S
C651   C668    1.396   .     A
C651   C663    1.414   .     A
C652   C665    1.424   .     S
C652   O698    1.301   .     A
C652   O700    1.296   .     A
C653   C662    1.414   .     A
C654   H688    1.081   .     S
C654   C726    1.394   .     S
C655   H689    1.081   .     S
C655   C727    1.394   1_455 S
C656   H694    1.111   .     S
C656   H693    1.105   .     S
C656   H692    1.111   .     S
C657   H673    1.111   .     S
C657   H674    1.105   .     S
C657   H672    1.111   .     S
C658   C662    1.513   .     S
C658   H676    1.110   .     S
C658   H677    1.111   .     S
C659   C663    1.513   .     S
C659   H680    1.111   .     S
C659   H679    1.111   .     S
C659   H422    1.111   1_565 S
C660   H683    1.099   .     S
C660   H684    1.105   .     S
C660   H1065   1.108   .     S
C660   N1079   1.440   .     S
C661   H686    1.105   .     S
C661   H687    1.099   .     S
C662   C718    1.394   1_455 S
C663   C719    1.394   .     S
C665   C408    1.327   1_565 S
C665   H435    1.084   1_565 S
C666   O703    1.303   .     A
C666   O701    1.303   .     A
C667   O702    1.303   .     A
C667   O704    1.303   .     A
C668   H671    1.083   .     S
Cu669  Cu670   2.723   .     S
Cu669  O700    1.943   .     S
Cu669  O704    1.959   .     S
Cu669  O701    1.961   .     S
Cu669  N696    2.046   .     S
Cu669  O697    1.950   .     S
Cu670  N695    2.046   .     S
Cu670  O699    1.943   .     S
Cu670  O703    1.959   .     S
Cu670  O702    1.961   .     S
Cu670  O698    1.950   .     S
H675   C402    1.111   1_565 S
H685   C1045   1.108   .     S
H690   C408    1.084   1_565 S
N696   N1079   1.294   .     S
N696   C1045   1.440   .     S
C705   O761    1.301   .     A
C705   O763    1.296   .     A
C705   C728    1.424   .     S
C706   C708    1.390   .     A
C706   H746    1.083   .     S
C706   C717    1.396   .     A
C707   C732    1.390   .     A
C707   C731    1.448   .     S
C707   C709    1.410   .     A
C708   C730    1.448   .     S
C708   C710    1.410   .     A
C709   C711    1.415   .     A
C709   C720    1.520   .     S
C710   C721    1.520   .     S
C710   C712    1.415   .     A
C711   C713    1.421   .     A
C711   C718    1.407   .     A
C712   C719    1.407   .     A
C712   C714    1.421   .     A
C713   C715    1.418   .     A
C713   C650    1.412   1_655 S
C714   C717    1.418   .     A
C715   C732    1.396   .     A
C715   C727    1.414   .     A
C716   C729    1.424   .     S
C716   O762    1.301   .     A
C716   O764    1.296   .     A
C717   C726    1.414   .     A
C718   H752    1.081   .     S
C718   C662    1.394   1_655 S
C719   H753    1.081   .     S
C720   H758    1.111   .     S
C720   H757    1.105   .     S
C720   H756    1.111   .     S
C721   H737    1.111   .     S
C721   H738    1.105   .     S
C721   H736    1.111   .     S
C722   C726    1.513   .     S
C722   H740    1.110   .     S
C722   H741    1.111   .     S
C723   C727    1.513   .     S
C723   H744    1.111   .     S
C723   H743    1.111   .     S
C723   H486    1.111   1_565 S
C724   H747    1.099   .     S
C724   H748    1.105   .     S
C724   H1129   1.108   .     S
C724   N1143   1.440   .     S
C725   H750    1.105   .     S
C725   H751    1.099   .     S
C727   C655    1.394   1_655 S
C729   C472    1.327   1_565 S
C729   H499    1.084   1_565 S
C730   O767    1.303   .     A
C730   O765    1.303   .     A
C731   O766    1.303   .     A
C731   O768    1.303   .     A
C732   H735    1.083   .     S
Cu733  Cu734   2.723   .     S
Cu733  O764    1.943   .     S
Cu733  O768    1.959   .     S
Cu733  O765    1.961   .     S
Cu733  N760    2.046   .     S
Cu733  O761    1.950   .     S
Cu734  N759    2.046   .     S
Cu734  O763    1.943   .     S
Cu734  O767    1.959   .     S
Cu734  O766    1.961   .     S
Cu734  O762    1.950   .     S
H739   C466    1.111   1_565 S
H749   C1109   1.108   .     S
H754   C472    1.084   1_565 S
N760   N1143   1.294   .     S
N760   C1109   1.440   .     S
C769   O825    1.301   .     A
C769   O827    1.296   .     A
C769   C792    1.424   .     S
C770   C772    1.390   .     A
C770   H810    1.083   .     S
C770   C781    1.396   .     A
C771   C796    1.390   .     A
C771   C795    1.448   .     S
C771   C773    1.410   .     A
C772   C794    1.448   .     S
C772   C774    1.410   .     A
C773   C775    1.415   .     A
C773   C784    1.520   .     S
C774   C785    1.520   .     S
C774   C776    1.415   .     A
C775   C777    1.421   .     A
C775   C782    1.407   .     A
C776   C783    1.407   .     A
C776   C778    1.421   .     A
C777   C779    1.418   .     A
C777   C842    1.412   .     S
C778   C781    1.418   .     A
C778   C841    1.412   1_455 S
C779   C796    1.396   .     A
C779   C791    1.414   .     A
C780   C793    1.424   .     S
C780   O826    1.301   .     A
C780   O828    1.296   .     A
C781   C790    1.414   .     A
C782   H816    1.081   .     S
C782   C854    1.394   .     S
C783   H817    1.081   .     S
C783   C855    1.394   1_455 S
C784   H822    1.111   .     S
C784   H821    1.105   .     S
C784   H820    1.111   .     S
C785   H801    1.111   .     S
C785   H802    1.105   .     S
C785   H800    1.111   .     S
C786   C790    1.513   .     S
C786   H804    1.110   .     S
C786   H805    1.111   .     S
C786   H1059   1.111   1_545 S
C787   C791    1.513   .     S
C787   H808    1.111   .     S
C787   H807    1.111   .     S
C787   H934    1.111   .     S
C788   H811    1.099   .     S
C788   H812    1.105   .     S
C788   H41     1.108   1_556 S
C788   N55     1.440   1_556 S
C789   H814    1.105   .     S
C789   H815    1.099   .     S
C790   C846    1.394   1_455 S
C791   C847    1.394   .     S
C792   C1049   1.327   1_545 S
C792   H1074   1.084   1_545 S
C793   C920    1.327   .     S
C793   H947    1.084   .     S
C794   O831    1.303   .     A
C794   O829    1.303   .     A
C795   O830    1.303   .     A
C795   O832    1.303   .     A
C796   H799    1.083   .     S
Cu797  Cu798   2.723   .     S
Cu797  O828    1.943   .     S
Cu797  O832    1.959   .     S
Cu797  O829    1.961   .     S
Cu797  N824    2.046   .     S
Cu797  O825    1.950   .     S
Cu798  N823    2.046   .     S
Cu798  O827    1.943   .     S
Cu798  O831    1.959   .     S
Cu798  O830    1.961   .     S
Cu798  O826    1.950   .     S
H803   C914    1.111   .     S
H806   C1043   1.111   1_545 S
H813   C21     1.108   1_556 S
H818   C920    1.084   .     S
H819   C1049   1.084   1_545 S
N824   N55     1.294   1_556 S
N824   C21     1.440   1_556 S
C833   O889    1.301   .     A
C833   O891    1.296   .     A
C833   C856    1.424   .     S
C834   C836    1.390   .     A
C834   H874    1.083   .     S
C834   C845    1.396   .     A
C835   C860    1.390   .     A
C835   C859    1.448   .     S
C835   C837    1.410   .     A
C836   C858    1.448   .     S
C836   C838    1.410   .     A
C837   C839    1.415   .     A
C837   C848    1.520   .     S
C838   C849    1.520   .     S
C838   C840    1.415   .     A
C839   C841    1.421   .     A
C839   C846    1.407   .     A
C840   C847    1.407   .     A
C840   C842    1.421   .     A
C841   C843    1.418   .     A
C841   C778    1.412   1_655 S
C842   C845    1.418   .     A
C843   C860    1.396   .     A
C843   C855    1.414   .     A
C844   C857    1.424   .     S
C844   O890    1.301   .     A
C844   O892    1.296   .     A
C845   C854    1.414   .     A
C846   H880    1.081   .     S
C846   C790    1.394   1_655 S
C847   H881    1.081   .     S
C848   H886    1.111   .     S
C848   H885    1.105   .     S
C848   H884    1.111   .     S
C849   H865    1.111   .     S
C849   H866    1.105   .     S
C849   H864    1.111   .     S
C850   C854    1.513   .     S
C850   H868    1.110   .     S
C850   H869    1.111   .     S
C850   H1123   1.111   1_545 S
C851   C855    1.513   .     S
C851   H872    1.111   .     S
C851   H871    1.111   .     S
C851   H998    1.111   .     S
C852   H875    1.099   .     S
C852   H876    1.105   .     S
C852   H105    1.108   1_556 S
C852   N119    1.440   1_556 S
C853   H878    1.105   .     S
C853   H879    1.099   .     S
C855   C783    1.394   1_655 S
C856   C1113   1.327   1_545 S
C856   H1138   1.084   1_545 S
C857   C984    1.327   .     S
C857   H1011   1.084   .     S
C858   O895    1.303   .     A
C858   O893    1.303   .     A
C859   O894    1.303   .     A
C859   O896    1.303   .     A
C860   H863    1.083   .     S
Cu861  Cu862   2.723   .     S
Cu861  O892    1.943   .     S
Cu861  O896    1.959   .     S
Cu861  O893    1.961   .     S
Cu861  N888    2.046   .     S
Cu861  O889    1.950   .     S
Cu862  N887    2.046   .     S
Cu862  O891    1.943   .     S
Cu862  O895    1.959   .     S
Cu862  O894    1.961   .     S
Cu862  O890    1.950   .     S
H867   C978    1.111   .     S
H870   C1107   1.111   1_545 S
H877   C85     1.108   1_556 S
H882   C984    1.084   .     S
H883   C1113   1.084   1_545 S
N888   N119    1.294   1_556 S
N888   C85     1.440   1_556 S
C897   O953    1.301   .     A
C897   O955    1.296   .     A
C897   C920    1.424   .     S
C898   C900    1.390   .     A
C898   H938    1.083   .     S
C898   C909    1.396   .     A
C899   C924    1.390   .     A
C899   C923    1.448   .     S
C899   C901    1.410   .     A
C900   C922    1.448   .     S
C900   C902    1.410   .     A
C901   C903    1.415   .     A
C901   C912    1.520   .     S
C902   C913    1.520   .     S
C902   C904    1.415   .     A
C903   C905    1.421   .     A
C903   C910    1.407   .     A
C904   C911    1.407   .     A
C904   C906    1.421   .     A
C905   C907    1.418   .     A
C905   C970    1.412   .     S
C906   C909    1.418   .     A
C906   C969    1.412   1_455 S
C907   C924    1.396   .     A
C907   C919    1.414   .     A
C908   C921    1.424   .     S
C908   O954    1.301   .     A
C908   O956    1.296   .     A
C909   C918    1.414   .     A
C910   H944    1.081   .     S
C910   C982    1.394   .     S
C911   H945    1.081   .     S
C911   C983    1.394   1_455 S
C912   H950    1.111   .     S
C912   H949    1.105   .     S
C912   H948    1.111   .     S
C913   H929    1.111   .     S
C913   H930    1.105   .     S
C913   H928    1.111   .     S
C914   C918    1.513   .     S
C914   H932    1.110   .     S
C914   H933    1.111   .     S
C915   C919    1.513   .     S
C915   H936    1.111   .     S
C915   H935    1.111   .     S
C915   H1062   1.111   .     S
C916   H939    1.099   .     S
C916   H940    1.105   .     S
C916   H169    1.108   1_556 S
C916   N183    1.440   1_556 S
C917   H942    1.105   .     S
C917   H943    1.099   .     S
C918   C974    1.394   1_455 S
C919   C975    1.394   .     S
C921   C1048   1.327   .     S
C921   H1075   1.084   .     S
C922   O959    1.303   .     A
C922   O957    1.303   .     A
C923   O958    1.303   .     A
C923   O960    1.303   .     A
C924   H927    1.083   .     S
Cu925  Cu926   2.723   .     S
Cu925  O956    1.943   .     S
Cu925  O960    1.959   .     S
Cu925  O957    1.961   .     S
Cu925  N952    2.046   .     S
Cu925  O953    1.950   .     S
Cu926  N951    2.046   .     S
Cu926  O955    1.943   .     S
Cu926  O959    1.959   .     S
Cu926  O958    1.961   .     S
Cu926  O954    1.950   .     S
H931   C1042   1.111   .     S
H941   C149    1.108   1_556 S
H946   C1048   1.084   .     S
N952   N183    1.294   1_556 S
N952   C149    1.440   1_556 S
C961   O1017   1.301   .     A
C961   O1019   1.296   .     A
C961   C984    1.424   .     S
C962   C964    1.390   .     A
C962   H1002   1.083   .     S
C962   C973    1.396   .     A
C963   C988    1.390   .     A
C963   C987    1.448   .     S
C963   C965    1.410   .     A
C964   C986    1.448   .     S
C964   C966    1.410   .     A
C965   C967    1.415   .     A
C965   C976    1.520   .     S
C966   C977    1.520   .     S
C966   C968    1.415   .     A
C967   C969    1.421   .     A
C967   C974    1.407   .     A
C968   C975    1.407   .     A
C968   C970    1.421   .     A
C969   C971    1.418   .     A
C969   C906    1.412   1_655 S
C970   C973    1.418   .     A
C971   C988    1.396   .     A
C971   C983    1.414   .     A
C972   C985    1.424   .     S
C972   O1018   1.301   .     A
C972   O1020   1.296   .     A
C973   C982    1.414   .     A
C974   H1008   1.081   .     S
C974   C918    1.394   1_655 S
C975   H1009   1.081   .     S
C976   H1014   1.111   .     S
C976   H1013   1.105   .     S
C976   H1012   1.111   .     S
C977   H993    1.111   .     S
C977   H994    1.105   .     S
C977   H992    1.111   .     S
C978   C982    1.513   .     S
C978   H996    1.110   .     S
C978   H997    1.111   .     S
C979   C983    1.513   .     S
C979   H1000   1.111   .     S
C979   H999    1.111   .     S
C979   H1126   1.111   .     S
C980   H1003   1.099   .     S
C980   H1004   1.105   .     S
C980   H233    1.108   1_556 S
C980   N247    1.440   1_556 S
C981   H1006   1.105   .     S
C981   H1007   1.099   .     S
C983   C911    1.394   1_655 S
C985   C1112   1.327   .     S
C985   H1139   1.084   .     S
C986   O1023   1.303   .     A
C986   O1021   1.303   .     A
C987   O1022   1.303   .     A
C987   O1024   1.303   .     A
C988   H991    1.083   .     S
Cu989  Cu990   2.723   .     S
Cu989  O1020   1.943   .     S
Cu989  O1024   1.959   .     S
Cu989  O1021   1.961   .     S
Cu989  N1016   2.046   .     S
Cu989  O1017   1.950   .     S
Cu990  N1015   2.046   .     S
Cu990  O1019   1.943   .     S
Cu990  O1023   1.959   .     S
Cu990  O1022   1.961   .     S
Cu990  O1018   1.950   .     S
H995   C1106   1.111   .     S
H1005  C213    1.108   1_556 S
H1010  C1112   1.084   .     S
N1016  N247    1.294   1_556 S
N1016  C213    1.440   1_556 S
C1025  O1081   1.301   .     A
C1025  O1083   1.296   .     A
C1025  C1048   1.424   .     S
C1026  C1028   1.390   .     A
C1026  H1066   1.083   .     S
C1026  C1037   1.396   .     A
C1027  C1052   1.390   .     A
C1027  C1051   1.448   .     S
C1027  C1029   1.410   .     A
C1028  C1050   1.448   .     S
C1028  C1030   1.410   .     A
C1029  C1031   1.415   .     A
C1029  C1040   1.520   .     S
C1030  C1041   1.520   .     S
C1030  C1032   1.415   .     A
C1031  C1033   1.421   .     A
C1031  C1038   1.407   .     A
C1032  C1039   1.407   .     A
C1032  C1034   1.421   .     A
C1033  C1035   1.418   .     A
C1033  C1098   1.412   .     S
C1034  C1037   1.418   .     A
C1034  C1097   1.412   1_455 S
C1035  C1052   1.396   .     A
C1035  C1047   1.414   .     A
C1036  C1049   1.424   .     S
C1036  O1082   1.301   .     A
C1036  O1084   1.296   .     A
C1037  C1046   1.414   .     A
C1038  H1072   1.081   .     S
C1038  C1110   1.394   .     S
C1039  H1073   1.081   .     S
C1039  C1111   1.394   1_455 S
C1040  H1078   1.111   .     S
C1040  H1077   1.105   .     S
C1040  H1076   1.111   .     S
C1041  H1057   1.111   .     S
C1041  H1058   1.105   .     S
C1041  H1056   1.111   .     S
C1042  C1046   1.513   .     S
C1042  H1060   1.110   .     S
C1042  H1061   1.111   .     S
C1043  C1047   1.513   .     S
C1043  H1064   1.111   .     S
C1043  H1063   1.111   .     S
C1043  H806    1.111   1_565 S
C1044  H1067   1.099   .     S
C1044  H1068   1.105   .     S
C1044  H297    1.108   1_556 S
C1044  N311    1.440   1_556 S
C1045  H1070   1.105   .     S
C1045  H1071   1.099   .     S
C1046  C1102   1.394   1_455 S
C1047  C1103   1.394   .     S
C1049  C792    1.327   1_565 S
C1049  H819    1.084   1_565 S
C1050  O1087   1.303   .     A
C1050  O1085   1.303   .     A
C1051  O1086   1.303   .     A
C1051  O1088   1.303   .     A
C1052  H1055   1.083   .     S
Cu1053 Cu1054  2.723   .     S
Cu1053 O1084   1.943   .     S
Cu1053 O1088   1.959   .     S
Cu1053 O1085   1.961   .     S
Cu1053 N1080   2.046   .     S
Cu1053 O1081   1.950   .     S
Cu1054 N1079   2.046   .     S
Cu1054 O1083   1.943   .     S
Cu1054 O1087   1.959   .     S
Cu1054 O1086   1.961   .     S
Cu1054 O1082   1.950   .     S
H1059  C786    1.111   1_565 S
H1069  C277    1.108   1_556 S
H1074  C792    1.084   1_565 S
N1080  N311    1.294   1_556 S
N1080  C277    1.440   1_556 S
C1089  O1145   1.301   .     A
C1089  O1147   1.296   .     A
C1089  C1112   1.424   .     S
C1090  C1092   1.390   .     A
C1090  H1130   1.083   .     S
C1090  C1101   1.396   .     A
C1091  C1116   1.390   .     A
C1091  C1115   1.448   .     S
C1091  C1093   1.410   .     A
C1092  C1114   1.448   .     S
C1092  C1094   1.410   .     A
C1093  C1095   1.415   .     A
C1093  C1104   1.520   .     S
C1094  C1105   1.520   .     S
C1094  C1096   1.415   .     A
C1095  C1097   1.421   .     A
C1095  C1102   1.407   .     A
C1096  C1103   1.407   .     A
C1096  C1098   1.421   .     A
C1097  C1099   1.418   .     A
C1097  C1034   1.412   1_655 S
C1098  C1101   1.418   .     A
C1099  C1116   1.396   .     A
C1099  C1111   1.414   .     A
C1100  C1113   1.424   .     S
C1100  O1146   1.301   .     A
C1100  O1148   1.296   .     A
C1101  C1110   1.414   .     A
C1102  H1136   1.081   .     S
C1102  C1046   1.394   1_655 S
C1103  H1137   1.081   .     S
C1104  H1142   1.111   .     S
C1104  H1141   1.105   .     S
C1104  H1140   1.111   .     S
C1105  H1121   1.111   .     S
C1105  H1122   1.105   .     S
C1105  H1120   1.111   .     S
C1106  C1110   1.513   .     S
C1106  H1124   1.110   .     S
C1106  H1125   1.111   .     S
C1107  C1111   1.513   .     S
C1107  H1128   1.111   .     S
C1107  H1127   1.111   .     S
C1107  H870    1.111   1_565 S
C1108  H1131   1.099   .     S
C1108  H1132   1.105   .     S
C1108  H361    1.108   1_556 S
C1108  N375    1.440   1_556 S
C1109  H1134   1.105   .     S
C1109  H1135   1.099   .     S
C1111  C1039   1.394   1_655 S
C1113  C856    1.327   1_565 S
C1113  H883    1.084   1_565 S
C1114  O1151   1.303   .     A
C1114  O1149   1.303   .     A
C1115  O1150   1.303   .     A
C1115  O1152   1.303   .     A
C1116  H1119   1.083   .     S
Cu1117 Cu1118  2.723   .     S
Cu1117 O1148   1.943   .     S
Cu1117 O1152   1.959   .     S
Cu1117 O1149   1.961   .     S
Cu1117 N1144   2.046   .     S
Cu1117 O1145   1.950   .     S
Cu1118 N1143   2.046   .     S
Cu1118 O1147   1.943   .     S
Cu1118 O1151   1.959   .     S
Cu1118 O1150   1.961   .     S
Cu1118 O1146   1.950   .     S
H1123  C850    1.111   1_565 S
H1133  C341    1.108   1_556 S
H1138  C856    1.084   1_565 S
N1144  N375    1.294   1_556 S
N1144  C341    1.440   1_556 S
