data_str_m2_o2_o5_pcu_sym.107
_audit_creation_date              2020-01-03
_audit_creation_method            'Materials Studio'
_symmetry_space_group_name_H-M    'P1'
_symmetry_Int_Tables_number       1
_symmetry_cell_setting            triclinic
loop_
_symmetry_equiv_pos_as_xyz
  x,y,z
_cell_length_a                    30.3078
_cell_length_b                    27.6519
_cell_length_c                    27.1734
_cell_angle_alpha                 89.9985
_cell_angle_beta                  89.9999
_cell_angle_gamma                 90.0025
loop_
_atom_site_label
_atom_site_type_symbol
_atom_site_fract_x
_atom_site_fract_y
_atom_site_fract_z
_atom_site_U_iso_or_equiv
_atom_site_adp_type
_atom_site_occupancy
O1     O     0.18573   0.29071   0.16667   0.00000  Uiso   1.00
O2     O     0.31427   0.20928   0.16666   0.00000  Uiso   1.00
O3     O     0.31427   0.29071   0.16666   0.00000  Uiso   1.00
O4     O     0.18573   0.20928   0.16667   0.00000  Uiso   1.00
C5     C     0.16492   0.25000   0.16667   0.00000  Uiso   1.00
C6     C     0.33508   0.25000   0.16666   0.00000  Uiso   1.00
O7     O     0.25000   0.29071   0.09613   0.00000  Uiso   1.00
O8     O     0.25000   0.20929   0.23720   0.00000  Uiso   1.00
O9     O     0.25000   0.29071   0.23720   0.00000  Uiso   1.00
O10    O     0.25000   0.20929   0.09613   0.00000  Uiso   1.00
C11    C     0.21731   0.05331   0.19254   0.00000  Uiso   1.00
C12    C     0.21738   0.44669   0.14070   0.00000  Uiso   1.00
C13    C     0.28271   0.05331   0.14081   0.00000  Uiso   1.00
C14    C     0.28261   0.44667   0.19265   0.00000  Uiso   1.00
C15    C     0.25000   0.25000   0.07349   0.00000  Uiso   1.00
C16    C     0.25000   0.25000   0.25984   0.00000  Uiso   1.00
Cu17   Cu    0.25000   0.29821   0.16667   0.00000  Uiso   1.00
Cu18   Cu    0.25000   0.20178   0.16667   0.00000  Uiso   1.00
H19    H     0.19587   0.12517   0.21480   0.00000  Uiso   1.00
H20    H     0.19597   0.37485   0.11837   0.00000  Uiso   1.00
H21    H     0.30412   0.12519   0.11854   0.00000  Uiso   1.00
H22    H     0.30402   0.37486   0.21498   0.00000  Uiso   1.00
N23    N     0.25000   0.12934   0.16667   0.00000  Uiso   1.00
N24    N     0.25000   0.37065   0.16667   0.00000  Uiso   1.00
C25    C     0.25001   0.02733   0.16668   0.00000  Uiso   1.00
C26    C     0.25000   0.47268   0.16668   0.00000  Uiso   1.00
C27    C     0.25000   0.25000   0.02185   0.00000  Uiso   1.00
C28    C     0.25000   0.25000   0.31149   0.00000  Uiso   1.00
C29    C     0.04727   0.28708   0.14186   0.00000  Uiso   1.00
C30    C     0.45273   0.21291   0.14185   0.00000  Uiso   1.00
C31    C     0.45274   0.28708   0.19145   0.00000  Uiso   1.00
C32    C     0.04727   0.21290   0.19145   0.00000  Uiso   1.00
C33    C     0.09338   0.28650   0.14114   0.00000  Uiso   1.00
C34    C     0.40662   0.21350   0.14112   0.00000  Uiso   1.00
C35    C     0.40663   0.28650   0.19217   0.00000  Uiso   1.00
C36    C     0.09338   0.21349   0.19218   0.00000  Uiso   1.00
C37    C     0.11657   0.25000   0.16666   0.00000  Uiso   1.00
C38    C     0.38343   0.25000   0.16665   0.00000  Uiso   1.00
C39    C     0.02416   0.24999   0.16665   0.00000  Uiso   1.00
C40    C     0.47584   0.24999   0.16665   0.00000  Uiso   1.00
C41    C     0.21909   0.10470   0.19307   0.00000  Uiso   1.00
C42    C     0.21915   0.39530   0.14017   0.00000  Uiso   1.00
C43    C     0.28092   0.10471   0.14027   0.00000  Uiso   1.00
C44    C     0.28085   0.39530   0.19317   0.00000  Uiso   1.00
O45    O     0.02565   0.32653   0.12154   0.00000  Uiso   1.00
C46    C     0.00590   0.31369   0.07630   0.00000  Uiso   1.00
H47    H     0.47144   0.30156   0.08233   0.00000  Uiso   1.00
H48    H     0.02449   0.28569   0.05544   0.00000  Uiso   1.00
H49    H     0.00445   0.34638   0.05270   0.00000  Uiso   1.00
O50    O     0.47435   0.17346   0.12153   0.00000  Uiso   1.00
C51    C     0.49409   0.18630   0.07629   0.00000  Uiso   1.00
H52    H     0.02855   0.19843   0.08231   0.00000  Uiso   1.00
H53    H     0.47550   0.21430   0.05543   0.00000  Uiso   1.00
H54    H     0.49554   0.15361   0.05269   0.00000  Uiso   1.00
O55    O     0.47437   0.32652   0.21177   0.00000  Uiso   1.00
C56    C     0.49412   0.31368   0.25700   0.00000  Uiso   1.00
H57    H     0.02857   0.30155   0.25098   0.00000  Uiso   1.00
H58    H     0.47553   0.28568   0.27786   0.00000  Uiso   1.00
H59    H     0.49557   0.34637   0.28060   0.00000  Uiso   1.00
O60    O     0.02564   0.17345   0.21176   0.00000  Uiso   1.00
C61    C     0.00589   0.18628   0.25700   0.00000  Uiso   1.00
H62    H     0.47143   0.19841   0.25097   0.00000  Uiso   1.00
H63    H     0.02448   0.21428   0.27786   0.00000  Uiso   1.00
H64    H     0.00444   0.15358   0.28059   0.00000  Uiso   1.00
O65    O     0.11555   0.32351   0.11732   0.00000  Uiso   1.00
C66    C     0.12763   0.30772   0.06976   0.00000  Uiso   1.00
H67    H     0.14815   0.27439   0.07076   0.00000  Uiso   1.00
H68    H     0.14766   0.33640   0.05202   0.00000  Uiso   1.00
H69    H     0.09819   0.30172   0.04630   0.00000  Uiso   1.00
O70    O     0.38445   0.17651   0.11728   0.00000  Uiso   1.00
C71    C     0.37237   0.19234   0.06973   0.00000  Uiso   1.00
H72    H     0.35193   0.22573   0.07074   0.00000  Uiso   1.00
H73    H     0.35225   0.16373   0.05200   0.00000  Uiso   1.00
H74    H     0.40180   0.19825   0.04625   0.00000  Uiso   1.00
O75    O     0.38447   0.32352   0.21598   0.00000  Uiso   1.00
C76    C     0.37239   0.30775   0.26354   0.00000  Uiso   1.00
H77    H     0.35186   0.27442   0.26256   0.00000  Uiso   1.00
H78    H     0.35238   0.33644   0.28129   0.00000  Uiso   1.00
H79    H     0.40183   0.30175   0.28700   0.00000  Uiso   1.00
O80    O     0.11554   0.17649   0.21602   0.00000  Uiso   1.00
C81    C     0.12762   0.19229   0.26357   0.00000  Uiso   1.00
H82    H     0.14811   0.22565   0.26257   0.00000  Uiso   1.00
H83    H     0.14768   0.16364   0.28131   0.00000  Uiso   1.00
H84    H     0.09818   0.19826   0.28704   0.00000  Uiso   1.00
O85    O     0.18667   0.02739   0.22002   0.00000  Uiso   1.00
C86    C     0.14375   0.04652   0.21457   0.00000  Uiso   1.00
H87    H     0.13655   0.05780   0.17601   0.00000  Uiso   1.00
H88    H     0.13851   0.07701   0.24048   0.00000  Uiso   1.00
H89    H     0.11962   0.01792   0.22430   0.00000  Uiso   1.00
O90    O     0.18682   0.47257   0.11307   0.00000  Uiso   1.00
C91    C     0.14382   0.45377   0.11896   0.00000  Uiso   1.00
H92    H     0.13669   0.44302   0.15771   0.00000  Uiso   1.00
H93    H     0.13832   0.42297   0.09348   0.00000  Uiso   1.00
H94    H     0.11981   0.48240   0.10895   0.00000  Uiso   1.00
O95    O     0.31333   0.02737   0.11332   0.00000  Uiso   1.00
C96    C     0.35622   0.04667   0.11847   0.00000  Uiso   1.00
H97    H     0.36354   0.05815   0.15694   0.00000  Uiso   1.00
H98    H     0.36128   0.07706   0.09237   0.00000  Uiso   1.00
H99    H     0.38040   0.01811   0.10875   0.00000  Uiso   1.00
O100   O     0.31315   0.47250   0.22034   0.00000  Uiso   1.00
C101   C     0.35622   0.45404   0.21390   0.00000  Uiso   1.00
H102   H     0.36320   0.44389   0.17495   0.00000  Uiso   1.00
H103   H     0.36201   0.42290   0.23890   0.00000  Uiso   1.00
H104   H     0.38014   0.48268   0.22419   0.00000  Uiso   1.00
O105   O     0.68573   0.29071   0.16667   0.00000  Uiso   1.00
O106   O     0.81427   0.20928   0.16666   0.00000  Uiso   1.00
O107   O     0.81427   0.29071   0.16666   0.00000  Uiso   1.00
O108   O     0.68573   0.20928   0.16667   0.00000  Uiso   1.00
C109   C     0.66492   0.25000   0.16667   0.00000  Uiso   1.00
C110   C     0.83508   0.25000   0.16666   0.00000  Uiso   1.00
O111   O     0.75000   0.29071   0.09613   0.00000  Uiso   1.00
O112   O     0.75000   0.20929   0.23720   0.00000  Uiso   1.00
O113   O     0.75000   0.29071   0.23720   0.00000  Uiso   1.00
O114   O     0.75000   0.20929   0.09613   0.00000  Uiso   1.00
C115   C     0.71731   0.05331   0.19254   0.00000  Uiso   1.00
C116   C     0.71738   0.44669   0.14070   0.00000  Uiso   1.00
C117   C     0.78271   0.05331   0.14081   0.00000  Uiso   1.00
C118   C     0.78261   0.44667   0.19265   0.00000  Uiso   1.00
C119   C     0.75000   0.25000   0.07349   0.00000  Uiso   1.00
C120   C     0.75000   0.25000   0.25984   0.00000  Uiso   1.00
Cu121  Cu    0.75000   0.29821   0.16667   0.00000  Uiso   1.00
Cu122  Cu    0.75000   0.20178   0.16667   0.00000  Uiso   1.00
H123   H     0.69587   0.12517   0.21480   0.00000  Uiso   1.00
H124   H     0.69597   0.37485   0.11837   0.00000  Uiso   1.00
H125   H     0.80412   0.12519   0.11854   0.00000  Uiso   1.00
H126   H     0.80402   0.37486   0.21498   0.00000  Uiso   1.00
N127   N     0.75000   0.12934   0.16667   0.00000  Uiso   1.00
N128   N     0.75000   0.37065   0.16667   0.00000  Uiso   1.00
C129   C     0.75001   0.02733   0.16668   0.00000  Uiso   1.00
C130   C     0.75000   0.47268   0.16668   0.00000  Uiso   1.00
C131   C     0.75000   0.25000   0.02185   0.00000  Uiso   1.00
C132   C     0.75000   0.25000   0.31149   0.00000  Uiso   1.00
C133   C     0.54727   0.28708   0.14186   0.00000  Uiso   1.00
C134   C     0.95273   0.21291   0.14185   0.00000  Uiso   1.00
C135   C     0.95274   0.28708   0.19145   0.00000  Uiso   1.00
C136   C     0.54727   0.21290   0.19145   0.00000  Uiso   1.00
C137   C     0.59338   0.28650   0.14114   0.00000  Uiso   1.00
C138   C     0.90662   0.21350   0.14112   0.00000  Uiso   1.00
C139   C     0.90663   0.28650   0.19217   0.00000  Uiso   1.00
C140   C     0.59338   0.21349   0.19218   0.00000  Uiso   1.00
C141   C     0.61657   0.25000   0.16666   0.00000  Uiso   1.00
C142   C     0.88343   0.25000   0.16665   0.00000  Uiso   1.00
C143   C     0.52416   0.24999   0.16665   0.00000  Uiso   1.00
C144   C     0.97584   0.24999   0.16665   0.00000  Uiso   1.00
C145   C     0.71909   0.10470   0.19307   0.00000  Uiso   1.00
C146   C     0.71915   0.39530   0.14017   0.00000  Uiso   1.00
C147   C     0.78092   0.10471   0.14027   0.00000  Uiso   1.00
C148   C     0.78085   0.39530   0.19317   0.00000  Uiso   1.00
O149   O     0.52565   0.32653   0.12154   0.00000  Uiso   1.00
C150   C     0.50590   0.31369   0.07630   0.00000  Uiso   1.00
H151   H     0.97144   0.30156   0.08233   0.00000  Uiso   1.00
H152   H     0.52449   0.28569   0.05544   0.00000  Uiso   1.00
H153   H     0.50445   0.34638   0.05270   0.00000  Uiso   1.00
O154   O     0.97435   0.17346   0.12153   0.00000  Uiso   1.00
C155   C     0.99409   0.18630   0.07629   0.00000  Uiso   1.00
H156   H     0.52855   0.19843   0.08231   0.00000  Uiso   1.00
H157   H     0.97550   0.21430   0.05543   0.00000  Uiso   1.00
H158   H     0.99554   0.15361   0.05269   0.00000  Uiso   1.00
O159   O     0.97437   0.32652   0.21177   0.00000  Uiso   1.00
C160   C     0.99412   0.31368   0.25700   0.00000  Uiso   1.00
H161   H     0.52857   0.30155   0.25098   0.00000  Uiso   1.00
H162   H     0.97553   0.28568   0.27786   0.00000  Uiso   1.00
H163   H     0.99557   0.34637   0.28060   0.00000  Uiso   1.00
O164   O     0.52564   0.17345   0.21176   0.00000  Uiso   1.00
C165   C     0.50589   0.18628   0.25700   0.00000  Uiso   1.00
H166   H     0.97143   0.19841   0.25097   0.00000  Uiso   1.00
H167   H     0.52448   0.21428   0.27786   0.00000  Uiso   1.00
H168   H     0.50444   0.15358   0.28059   0.00000  Uiso   1.00
O169   O     0.61555   0.32351   0.11732   0.00000  Uiso   1.00
C170   C     0.62763   0.30772   0.06976   0.00000  Uiso   1.00
H171   H     0.64815   0.27439   0.07076   0.00000  Uiso   1.00
H172   H     0.64766   0.33640   0.05202   0.00000  Uiso   1.00
H173   H     0.59819   0.30172   0.04630   0.00000  Uiso   1.00
O174   O     0.88445   0.17651   0.11728   0.00000  Uiso   1.00
C175   C     0.87237   0.19234   0.06973   0.00000  Uiso   1.00
H176   H     0.85193   0.22573   0.07074   0.00000  Uiso   1.00
H177   H     0.85225   0.16373   0.05200   0.00000  Uiso   1.00
H178   H     0.90180   0.19825   0.04625   0.00000  Uiso   1.00
O179   O     0.88447   0.32352   0.21598   0.00000  Uiso   1.00
C180   C     0.87239   0.30775   0.26354   0.00000  Uiso   1.00
H181   H     0.85186   0.27442   0.26256   0.00000  Uiso   1.00
H182   H     0.85238   0.33644   0.28129   0.00000  Uiso   1.00
H183   H     0.90183   0.30175   0.28700   0.00000  Uiso   1.00
O184   O     0.61554   0.17649   0.21602   0.00000  Uiso   1.00
C185   C     0.62762   0.19229   0.26357   0.00000  Uiso   1.00
H186   H     0.64811   0.22565   0.26257   0.00000  Uiso   1.00
H187   H     0.64768   0.16364   0.28131   0.00000  Uiso   1.00
H188   H     0.59818   0.19826   0.28704   0.00000  Uiso   1.00
O189   O     0.68667   0.02739   0.22002   0.00000  Uiso   1.00
C190   C     0.64375   0.04652   0.21457   0.00000  Uiso   1.00
H191   H     0.63655   0.05780   0.17601   0.00000  Uiso   1.00
H192   H     0.63851   0.07701   0.24048   0.00000  Uiso   1.00
H193   H     0.61962   0.01792   0.22430   0.00000  Uiso   1.00
O194   O     0.68682   0.47257   0.11307   0.00000  Uiso   1.00
C195   C     0.64382   0.45377   0.11896   0.00000  Uiso   1.00
H196   H     0.63669   0.44302   0.15771   0.00000  Uiso   1.00
H197   H     0.63832   0.42297   0.09348   0.00000  Uiso   1.00
H198   H     0.61981   0.48240   0.10895   0.00000  Uiso   1.00
O199   O     0.81333   0.02737   0.11332   0.00000  Uiso   1.00
C200   C     0.85622   0.04667   0.11847   0.00000  Uiso   1.00
H201   H     0.86354   0.05815   0.15694   0.00000  Uiso   1.00
H202   H     0.86128   0.07706   0.09237   0.00000  Uiso   1.00
H203   H     0.88040   0.01811   0.10875   0.00000  Uiso   1.00
O204   O     0.81315   0.47250   0.22034   0.00000  Uiso   1.00
C205   C     0.85622   0.45404   0.21390   0.00000  Uiso   1.00
H206   H     0.86320   0.44389   0.17495   0.00000  Uiso   1.00
H207   H     0.86201   0.42290   0.23890   0.00000  Uiso   1.00
H208   H     0.88014   0.48268   0.22419   0.00000  Uiso   1.00
O209   O     0.18573   0.79071   0.16667   0.00000  Uiso   1.00
O210   O     0.31427   0.70928   0.16666   0.00000  Uiso   1.00
O211   O     0.31427   0.79071   0.16666   0.00000  Uiso   1.00
O212   O     0.18573   0.70928   0.16667   0.00000  Uiso   1.00
C213   C     0.16492   0.75000   0.16667   0.00000  Uiso   1.00
C214   C     0.33508   0.75000   0.16666   0.00000  Uiso   1.00
O215   O     0.25000   0.79071   0.09613   0.00000  Uiso   1.00
O216   O     0.25000   0.70929   0.23720   0.00000  Uiso   1.00
O217   O     0.25000   0.79071   0.23720   0.00000  Uiso   1.00
O218   O     0.25000   0.70929   0.09613   0.00000  Uiso   1.00
C219   C     0.21731   0.55331   0.19254   0.00000  Uiso   1.00
C220   C     0.21738   0.94669   0.14070   0.00000  Uiso   1.00
C221   C     0.28271   0.55331   0.14081   0.00000  Uiso   1.00
C222   C     0.28261   0.94667   0.19265   0.00000  Uiso   1.00
C223   C     0.25000   0.75000   0.07349   0.00000  Uiso   1.00
C224   C     0.25000   0.75000   0.25984   0.00000  Uiso   1.00
Cu225  Cu    0.25000   0.79821   0.16667   0.00000  Uiso   1.00
Cu226  Cu    0.25000   0.70178   0.16667   0.00000  Uiso   1.00
H227   H     0.19587   0.62517   0.21480   0.00000  Uiso   1.00
H228   H     0.19597   0.87485   0.11837   0.00000  Uiso   1.00
H229   H     0.30412   0.62519   0.11854   0.00000  Uiso   1.00
H230   H     0.30402   0.87486   0.21498   0.00000  Uiso   1.00
N231   N     0.25000   0.62934   0.16667   0.00000  Uiso   1.00
N232   N     0.25000   0.87065   0.16667   0.00000  Uiso   1.00
C233   C     0.25001   0.52733   0.16668   0.00000  Uiso   1.00
C234   C     0.25000   0.97268   0.16668   0.00000  Uiso   1.00
C235   C     0.25000   0.75000   0.02185   0.00000  Uiso   1.00
C236   C     0.25000   0.75000   0.31149   0.00000  Uiso   1.00
C237   C     0.04727   0.78708   0.14186   0.00000  Uiso   1.00
C238   C     0.45273   0.71291   0.14185   0.00000  Uiso   1.00
C239   C     0.45274   0.78708   0.19145   0.00000  Uiso   1.00
C240   C     0.04727   0.71290   0.19145   0.00000  Uiso   1.00
C241   C     0.09338   0.78650   0.14114   0.00000  Uiso   1.00
C242   C     0.40662   0.71350   0.14112   0.00000  Uiso   1.00
C243   C     0.40663   0.78650   0.19217   0.00000  Uiso   1.00
C244   C     0.09338   0.71349   0.19218   0.00000  Uiso   1.00
C245   C     0.11657   0.75000   0.16666   0.00000  Uiso   1.00
C246   C     0.38343   0.75000   0.16665   0.00000  Uiso   1.00
C247   C     0.02416   0.74999   0.16665   0.00000  Uiso   1.00
C248   C     0.47584   0.74999   0.16665   0.00000  Uiso   1.00
C249   C     0.21909   0.60470   0.19307   0.00000  Uiso   1.00
C250   C     0.21915   0.89530   0.14017   0.00000  Uiso   1.00
C251   C     0.28092   0.60471   0.14027   0.00000  Uiso   1.00
C252   C     0.28085   0.89530   0.19317   0.00000  Uiso   1.00
O253   O     0.02565   0.82653   0.12154   0.00000  Uiso   1.00
C254   C     0.00590   0.81369   0.07630   0.00000  Uiso   1.00
H255   H     0.47144   0.80156   0.08233   0.00000  Uiso   1.00
H256   H     0.02449   0.78569   0.05544   0.00000  Uiso   1.00
H257   H     0.00445   0.84638   0.05270   0.00000  Uiso   1.00
O258   O     0.47435   0.67346   0.12153   0.00000  Uiso   1.00
C259   C     0.49409   0.68630   0.07629   0.00000  Uiso   1.00
H260   H     0.02855   0.69843   0.08231   0.00000  Uiso   1.00
H261   H     0.47550   0.71430   0.05543   0.00000  Uiso   1.00
H262   H     0.49554   0.65361   0.05269   0.00000  Uiso   1.00
O263   O     0.47437   0.82652   0.21177   0.00000  Uiso   1.00
C264   C     0.49412   0.81368   0.25700   0.00000  Uiso   1.00
H265   H     0.02857   0.80155   0.25098   0.00000  Uiso   1.00
H266   H     0.47553   0.78568   0.27786   0.00000  Uiso   1.00
H267   H     0.49557   0.84637   0.28060   0.00000  Uiso   1.00
O268   O     0.02564   0.67345   0.21176   0.00000  Uiso   1.00
C269   C     0.00589   0.68628   0.25700   0.00000  Uiso   1.00
H270   H     0.47143   0.69841   0.25097   0.00000  Uiso   1.00
H271   H     0.02448   0.71428   0.27786   0.00000  Uiso   1.00
H272   H     0.00444   0.65358   0.28059   0.00000  Uiso   1.00
O273   O     0.11555   0.82351   0.11732   0.00000  Uiso   1.00
C274   C     0.12763   0.80772   0.06976   0.00000  Uiso   1.00
H275   H     0.14815   0.77439   0.07076   0.00000  Uiso   1.00
H276   H     0.14766   0.83640   0.05202   0.00000  Uiso   1.00
H277   H     0.09819   0.80172   0.04630   0.00000  Uiso   1.00
O278   O     0.38445   0.67651   0.11728   0.00000  Uiso   1.00
C279   C     0.37237   0.69234   0.06973   0.00000  Uiso   1.00
H280   H     0.35193   0.72573   0.07074   0.00000  Uiso   1.00
H281   H     0.35225   0.66373   0.05200   0.00000  Uiso   1.00
H282   H     0.40180   0.69825   0.04625   0.00000  Uiso   1.00
O283   O     0.38447   0.82352   0.21598   0.00000  Uiso   1.00
C284   C     0.37239   0.80775   0.26354   0.00000  Uiso   1.00
H285   H     0.35186   0.77442   0.26256   0.00000  Uiso   1.00
H286   H     0.35238   0.83644   0.28129   0.00000  Uiso   1.00
H287   H     0.40183   0.80175   0.28700   0.00000  Uiso   1.00
O288   O     0.11554   0.67649   0.21602   0.00000  Uiso   1.00
C289   C     0.12762   0.69229   0.26357   0.00000  Uiso   1.00
H290   H     0.14811   0.72565   0.26257   0.00000  Uiso   1.00
H291   H     0.14768   0.66364   0.28131   0.00000  Uiso   1.00
H292   H     0.09818   0.69826   0.28704   0.00000  Uiso   1.00
O293   O     0.18667   0.52739   0.22002   0.00000  Uiso   1.00
C294   C     0.14375   0.54652   0.21457   0.00000  Uiso   1.00
H295   H     0.13655   0.55780   0.17601   0.00000  Uiso   1.00
H296   H     0.13851   0.57701   0.24048   0.00000  Uiso   1.00
H297   H     0.11962   0.51792   0.22430   0.00000  Uiso   1.00
O298   O     0.18682   0.97257   0.11307   0.00000  Uiso   1.00
C299   C     0.14382   0.95377   0.11896   0.00000  Uiso   1.00
H300   H     0.13669   0.94302   0.15771   0.00000  Uiso   1.00
H301   H     0.13832   0.92297   0.09348   0.00000  Uiso   1.00
H302   H     0.11981   0.98240   0.10895   0.00000  Uiso   1.00
O303   O     0.31333   0.52737   0.11332   0.00000  Uiso   1.00
C304   C     0.35622   0.54667   0.11847   0.00000  Uiso   1.00
H305   H     0.36354   0.55815   0.15694   0.00000  Uiso   1.00
H306   H     0.36128   0.57706   0.09237   0.00000  Uiso   1.00
H307   H     0.38040   0.51811   0.10875   0.00000  Uiso   1.00
O308   O     0.31315   0.97250   0.22034   0.00000  Uiso   1.00
C309   C     0.35622   0.95404   0.21390   0.00000  Uiso   1.00
H310   H     0.36320   0.94389   0.17495   0.00000  Uiso   1.00
H311   H     0.36201   0.92290   0.23890   0.00000  Uiso   1.00
H312   H     0.38014   0.98268   0.22419   0.00000  Uiso   1.00
O313   O     0.68573   0.79071   0.16667   0.00000  Uiso   1.00
O314   O     0.81427   0.70928   0.16666   0.00000  Uiso   1.00
O315   O     0.81427   0.79071   0.16666   0.00000  Uiso   1.00
O316   O     0.68573   0.70928   0.16667   0.00000  Uiso   1.00
C317   C     0.66492   0.75000   0.16667   0.00000  Uiso   1.00
C318   C     0.83508   0.75000   0.16666   0.00000  Uiso   1.00
O319   O     0.75000   0.79071   0.09613   0.00000  Uiso   1.00
O320   O     0.75000   0.70929   0.23720   0.00000  Uiso   1.00
O321   O     0.75000   0.79071   0.23720   0.00000  Uiso   1.00
O322   O     0.75000   0.70929   0.09613   0.00000  Uiso   1.00
C323   C     0.71731   0.55331   0.19254   0.00000  Uiso   1.00
C324   C     0.71738   0.94669   0.14070   0.00000  Uiso   1.00
C325   C     0.78271   0.55331   0.14081   0.00000  Uiso   1.00
C326   C     0.78261   0.94667   0.19265   0.00000  Uiso   1.00
C327   C     0.75000   0.75000   0.07349   0.00000  Uiso   1.00
C328   C     0.75000   0.75000   0.25984   0.00000  Uiso   1.00
Cu329  Cu    0.75000   0.79821   0.16667   0.00000  Uiso   1.00
Cu330  Cu    0.75000   0.70178   0.16667   0.00000  Uiso   1.00
H331   H     0.69587   0.62517   0.21480   0.00000  Uiso   1.00
H332   H     0.69597   0.87485   0.11837   0.00000  Uiso   1.00
H333   H     0.80412   0.62519   0.11854   0.00000  Uiso   1.00
H334   H     0.80402   0.87486   0.21498   0.00000  Uiso   1.00
N335   N     0.75000   0.62934   0.16667   0.00000  Uiso   1.00
N336   N     0.75000   0.87065   0.16667   0.00000  Uiso   1.00
C337   C     0.75001   0.52733   0.16668   0.00000  Uiso   1.00
C338   C     0.75000   0.97268   0.16668   0.00000  Uiso   1.00
C339   C     0.75000   0.75000   0.02185   0.00000  Uiso   1.00
C340   C     0.75000   0.75000   0.31149   0.00000  Uiso   1.00
C341   C     0.54727   0.78708   0.14186   0.00000  Uiso   1.00
C342   C     0.95273   0.71291   0.14185   0.00000  Uiso   1.00
C343   C     0.95274   0.78708   0.19145   0.00000  Uiso   1.00
C344   C     0.54727   0.71290   0.19145   0.00000  Uiso   1.00
C345   C     0.59338   0.78650   0.14114   0.00000  Uiso   1.00
C346   C     0.90662   0.71350   0.14112   0.00000  Uiso   1.00
C347   C     0.90663   0.78650   0.19217   0.00000  Uiso   1.00
C348   C     0.59338   0.71349   0.19218   0.00000  Uiso   1.00
C349   C     0.61657   0.75000   0.16666   0.00000  Uiso   1.00
C350   C     0.88343   0.75000   0.16665   0.00000  Uiso   1.00
C351   C     0.52416   0.74999   0.16665   0.00000  Uiso   1.00
C352   C     0.97584   0.74999   0.16665   0.00000  Uiso   1.00
C353   C     0.71909   0.60470   0.19307   0.00000  Uiso   1.00
C354   C     0.71915   0.89530   0.14017   0.00000  Uiso   1.00
C355   C     0.78092   0.60471   0.14027   0.00000  Uiso   1.00
C356   C     0.78085   0.89530   0.19317   0.00000  Uiso   1.00
O357   O     0.52565   0.82653   0.12154   0.00000  Uiso   1.00
C358   C     0.50590   0.81369   0.07630   0.00000  Uiso   1.00
H359   H     0.97144   0.80156   0.08233   0.00000  Uiso   1.00
H360   H     0.52449   0.78569   0.05544   0.00000  Uiso   1.00
H361   H     0.50445   0.84638   0.05270   0.00000  Uiso   1.00
O362   O     0.97435   0.67346   0.12153   0.00000  Uiso   1.00
C363   C     0.99409   0.68630   0.07629   0.00000  Uiso   1.00
H364   H     0.52855   0.69843   0.08231   0.00000  Uiso   1.00
H365   H     0.97550   0.71430   0.05543   0.00000  Uiso   1.00
H366   H     0.99554   0.65361   0.05269   0.00000  Uiso   1.00
O367   O     0.97437   0.82652   0.21177   0.00000  Uiso   1.00
C368   C     0.99412   0.81368   0.25700   0.00000  Uiso   1.00
H369   H     0.52857   0.80155   0.25098   0.00000  Uiso   1.00
H370   H     0.97553   0.78568   0.27786   0.00000  Uiso   1.00
H371   H     0.99557   0.84637   0.28060   0.00000  Uiso   1.00
O372   O     0.52564   0.67345   0.21176   0.00000  Uiso   1.00
C373   C     0.50589   0.68628   0.25700   0.00000  Uiso   1.00
H374   H     0.97143   0.69841   0.25097   0.00000  Uiso   1.00
H375   H     0.52448   0.71428   0.27786   0.00000  Uiso   1.00
H376   H     0.50444   0.65358   0.28059   0.00000  Uiso   1.00
O377   O     0.61555   0.82351   0.11732   0.00000  Uiso   1.00
C378   C     0.62763   0.80772   0.06976   0.00000  Uiso   1.00
H379   H     0.64815   0.77439   0.07076   0.00000  Uiso   1.00
H380   H     0.64766   0.83640   0.05202   0.00000  Uiso   1.00
H381   H     0.59819   0.80172   0.04630   0.00000  Uiso   1.00
O382   O     0.88445   0.67651   0.11728   0.00000  Uiso   1.00
C383   C     0.87237   0.69234   0.06973   0.00000  Uiso   1.00
H384   H     0.85193   0.72573   0.07074   0.00000  Uiso   1.00
H385   H     0.85225   0.66373   0.05200   0.00000  Uiso   1.00
H386   H     0.90180   0.69825   0.04625   0.00000  Uiso   1.00
O387   O     0.88447   0.82352   0.21598   0.00000  Uiso   1.00
C388   C     0.87239   0.80775   0.26354   0.00000  Uiso   1.00
H389   H     0.85186   0.77442   0.26256   0.00000  Uiso   1.00
H390   H     0.85238   0.83644   0.28129   0.00000  Uiso   1.00
H391   H     0.90183   0.80175   0.28700   0.00000  Uiso   1.00
O392   O     0.61554   0.67649   0.21602   0.00000  Uiso   1.00
C393   C     0.62762   0.69229   0.26357   0.00000  Uiso   1.00
H394   H     0.64811   0.72565   0.26257   0.00000  Uiso   1.00
H395   H     0.64768   0.66364   0.28131   0.00000  Uiso   1.00
H396   H     0.59818   0.69826   0.28704   0.00000  Uiso   1.00
O397   O     0.68667   0.52739   0.22002   0.00000  Uiso   1.00
C398   C     0.64375   0.54652   0.21457   0.00000  Uiso   1.00
H399   H     0.63655   0.55780   0.17601   0.00000  Uiso   1.00
H400   H     0.63851   0.57701   0.24048   0.00000  Uiso   1.00
H401   H     0.61962   0.51792   0.22430   0.00000  Uiso   1.00
O402   O     0.68682   0.97257   0.11307   0.00000  Uiso   1.00
C403   C     0.64382   0.95377   0.11896   0.00000  Uiso   1.00
H404   H     0.63669   0.94302   0.15771   0.00000  Uiso   1.00
H405   H     0.63832   0.92297   0.09348   0.00000  Uiso   1.00
H406   H     0.61981   0.98240   0.10895   0.00000  Uiso   1.00
O407   O     0.81333   0.52737   0.11332   0.00000  Uiso   1.00
C408   C     0.85622   0.54667   0.11847   0.00000  Uiso   1.00
H409   H     0.86354   0.55815   0.15694   0.00000  Uiso   1.00
H410   H     0.86128   0.57706   0.09237   0.00000  Uiso   1.00
H411   H     0.88040   0.51811   0.10875   0.00000  Uiso   1.00
O412   O     0.81315   0.97250   0.22034   0.00000  Uiso   1.00
C413   C     0.85622   0.95404   0.21390   0.00000  Uiso   1.00
H414   H     0.86320   0.94389   0.17495   0.00000  Uiso   1.00
H415   H     0.86201   0.92290   0.23890   0.00000  Uiso   1.00
H416   H     0.88014   0.98268   0.22419   0.00000  Uiso   1.00
O417   O     0.18573   0.29071   0.50000   0.00000  Uiso   1.00
O418   O     0.31427   0.20928   0.50000   0.00000  Uiso   1.00
O419   O     0.31427   0.29071   0.50000   0.00000  Uiso   1.00
O420   O     0.18573   0.20928   0.50000   0.00000  Uiso   1.00
C421   C     0.16492   0.25000   0.50000   0.00000  Uiso   1.00
C422   C     0.33508   0.25000   0.49999   0.00000  Uiso   1.00
O423   O     0.25000   0.29071   0.42946   0.00000  Uiso   1.00
O424   O     0.25000   0.20929   0.57054   0.00000  Uiso   1.00
O425   O     0.25000   0.29071   0.57054   0.00000  Uiso   1.00
O426   O     0.25000   0.20929   0.42946   0.00000  Uiso   1.00
C427   C     0.21731   0.05331   0.52587   0.00000  Uiso   1.00
C428   C     0.21738   0.44669   0.47403   0.00000  Uiso   1.00
C429   C     0.28271   0.05331   0.47414   0.00000  Uiso   1.00
C430   C     0.28261   0.44667   0.52598   0.00000  Uiso   1.00
C431   C     0.25000   0.25000   0.40683   0.00000  Uiso   1.00
C432   C     0.25000   0.25000   0.59317   0.00000  Uiso   1.00
Cu433  Cu    0.25000   0.29821   0.50000   0.00000  Uiso   1.00
Cu434  Cu    0.25000   0.20178   0.50000   0.00000  Uiso   1.00
H435   H     0.19587   0.12517   0.54813   0.00000  Uiso   1.00
H436   H     0.19597   0.37485   0.45170   0.00000  Uiso   1.00
H437   H     0.30412   0.12519   0.45187   0.00000  Uiso   1.00
H438   H     0.30402   0.37486   0.54831   0.00000  Uiso   1.00
N439   N     0.25000   0.12934   0.50000   0.00000  Uiso   1.00
N440   N     0.25000   0.37065   0.50000   0.00000  Uiso   1.00
C441   C     0.25001   0.02733   0.50001   0.00000  Uiso   1.00
C442   C     0.25000   0.47268   0.50001   0.00000  Uiso   1.00
C443   C     0.25000   0.25000   0.35518   0.00000  Uiso   1.00
C444   C     0.25000   0.25000   0.64482   0.00000  Uiso   1.00
C445   C     0.04727   0.28708   0.47519   0.00000  Uiso   1.00
C446   C     0.45273   0.21291   0.47518   0.00000  Uiso   1.00
C447   C     0.45274   0.28708   0.52478   0.00000  Uiso   1.00
C448   C     0.04727   0.21290   0.52478   0.00000  Uiso   1.00
C449   C     0.09338   0.28650   0.47447   0.00000  Uiso   1.00
C450   C     0.40662   0.21350   0.47446   0.00000  Uiso   1.00
C451   C     0.40663   0.28650   0.52550   0.00000  Uiso   1.00
C452   C     0.09338   0.21349   0.52552   0.00000  Uiso   1.00
C453   C     0.11657   0.25000   0.50000   0.00000  Uiso   1.00
C454   C     0.38343   0.25000   0.49999   0.00000  Uiso   1.00
C455   C     0.02416   0.24999   0.49998   0.00000  Uiso   1.00
C456   C     0.47584   0.24999   0.49998   0.00000  Uiso   1.00
C457   C     0.21909   0.10470   0.52640   0.00000  Uiso   1.00
C458   C     0.21915   0.39530   0.47351   0.00000  Uiso   1.00
C459   C     0.28092   0.10471   0.47360   0.00000  Uiso   1.00
C460   C     0.28085   0.39530   0.52650   0.00000  Uiso   1.00
O461   O     0.02565   0.32653   0.45487   0.00000  Uiso   1.00
C462   C     0.00590   0.31369   0.40964   0.00000  Uiso   1.00
H463   H     0.47144   0.30156   0.41566   0.00000  Uiso   1.00
H464   H     0.02449   0.28569   0.38877   0.00000  Uiso   1.00
H465   H     0.00445   0.34638   0.38604   0.00000  Uiso   1.00
O466   O     0.47435   0.17346   0.45486   0.00000  Uiso   1.00
C467   C     0.49409   0.18630   0.40962   0.00000  Uiso   1.00
H468   H     0.02855   0.19843   0.41565   0.00000  Uiso   1.00
H469   H     0.47550   0.21430   0.38876   0.00000  Uiso   1.00
H470   H     0.49554   0.15361   0.38603   0.00000  Uiso   1.00
O471   O     0.47437   0.32652   0.54510   0.00000  Uiso   1.00
C472   C     0.49412   0.31368   0.59033   0.00000  Uiso   1.00
H473   H     0.02857   0.30155   0.58431   0.00000  Uiso   1.00
H474   H     0.47553   0.28568   0.61119   0.00000  Uiso   1.00
H475   H     0.49557   0.34637   0.61394   0.00000  Uiso   1.00
O476   O     0.02564   0.17345   0.54509   0.00000  Uiso   1.00
C477   C     0.00589   0.18628   0.59033   0.00000  Uiso   1.00
H478   H     0.47143   0.19841   0.58430   0.00000  Uiso   1.00
H479   H     0.02448   0.21428   0.61119   0.00000  Uiso   1.00
H480   H     0.00444   0.15358   0.61392   0.00000  Uiso   1.00
O481   O     0.11555   0.32351   0.45065   0.00000  Uiso   1.00
C482   C     0.12763   0.30772   0.40310   0.00000  Uiso   1.00
H483   H     0.14815   0.27439   0.40409   0.00000  Uiso   1.00
H484   H     0.14766   0.33640   0.38535   0.00000  Uiso   1.00
H485   H     0.09819   0.30172   0.37963   0.00000  Uiso   1.00
O486   O     0.38445   0.17651   0.45061   0.00000  Uiso   1.00
C487   C     0.37237   0.19234   0.40307   0.00000  Uiso   1.00
H488   H     0.35193   0.22573   0.40407   0.00000  Uiso   1.00
H489   H     0.35225   0.16373   0.38533   0.00000  Uiso   1.00
H490   H     0.40180   0.19825   0.37958   0.00000  Uiso   1.00
O491   O     0.38447   0.32352   0.54931   0.00000  Uiso   1.00
C492   C     0.37239   0.30775   0.59688   0.00000  Uiso   1.00
H493   H     0.35186   0.27442   0.59590   0.00000  Uiso   1.00
H494   H     0.35238   0.33644   0.61462   0.00000  Uiso   1.00
H495   H     0.40183   0.30175   0.62034   0.00000  Uiso   1.00
O496   O     0.11554   0.17649   0.54935   0.00000  Uiso   1.00
C497   C     0.12762   0.19229   0.59690   0.00000  Uiso   1.00
H498   H     0.14811   0.22565   0.59590   0.00000  Uiso   1.00
H499   H     0.14768   0.16364   0.61465   0.00000  Uiso   1.00
H500   H     0.09818   0.19826   0.62037   0.00000  Uiso   1.00
O501   O     0.18667   0.02739   0.55335   0.00000  Uiso   1.00
C502   C     0.14375   0.04652   0.54790   0.00000  Uiso   1.00
H503   H     0.13655   0.05780   0.50935   0.00000  Uiso   1.00
H504   H     0.13851   0.07701   0.57382   0.00000  Uiso   1.00
H505   H     0.11962   0.01792   0.55764   0.00000  Uiso   1.00
O506   O     0.18682   0.47257   0.44641   0.00000  Uiso   1.00
C507   C     0.14382   0.45377   0.45230   0.00000  Uiso   1.00
H508   H     0.13669   0.44302   0.49104   0.00000  Uiso   1.00
H509   H     0.13832   0.42297   0.42682   0.00000  Uiso   1.00
H510   H     0.11981   0.48240   0.44229   0.00000  Uiso   1.00
O511   O     0.31333   0.02737   0.44665   0.00000  Uiso   1.00
C512   C     0.35622   0.04667   0.45180   0.00000  Uiso   1.00
H513   H     0.36354   0.05815   0.49027   0.00000  Uiso   1.00
H514   H     0.36128   0.07706   0.42571   0.00000  Uiso   1.00
H515   H     0.38040   0.01811   0.44208   0.00000  Uiso   1.00
O516   O     0.31315   0.47250   0.55367   0.00000  Uiso   1.00
C517   C     0.35622   0.45404   0.54724   0.00000  Uiso   1.00
H518   H     0.36320   0.44389   0.50828   0.00000  Uiso   1.00
H519   H     0.36201   0.42290   0.57223   0.00000  Uiso   1.00
H520   H     0.38014   0.48268   0.55752   0.00000  Uiso   1.00
O521   O     0.68573   0.29071   0.50000   0.00000  Uiso   1.00
O522   O     0.81427   0.20928   0.50000   0.00000  Uiso   1.00
O523   O     0.81427   0.29071   0.50000   0.00000  Uiso   1.00
O524   O     0.68573   0.20928   0.50000   0.00000  Uiso   1.00
C525   C     0.66492   0.25000   0.50000   0.00000  Uiso   1.00
C526   C     0.83508   0.25000   0.49999   0.00000  Uiso   1.00
O527   O     0.75000   0.29071   0.42946   0.00000  Uiso   1.00
O528   O     0.75000   0.20929   0.57054   0.00000  Uiso   1.00
O529   O     0.75000   0.29071   0.57054   0.00000  Uiso   1.00
O530   O     0.75000   0.20929   0.42946   0.00000  Uiso   1.00
C531   C     0.71731   0.05331   0.52587   0.00000  Uiso   1.00
C532   C     0.71738   0.44669   0.47403   0.00000  Uiso   1.00
C533   C     0.78271   0.05331   0.47414   0.00000  Uiso   1.00
C534   C     0.78261   0.44667   0.52598   0.00000  Uiso   1.00
C535   C     0.75000   0.25000   0.40683   0.00000  Uiso   1.00
C536   C     0.75000   0.25000   0.59317   0.00000  Uiso   1.00
Cu537  Cu    0.75000   0.29821   0.50000   0.00000  Uiso   1.00
Cu538  Cu    0.75000   0.20178   0.50000   0.00000  Uiso   1.00
H539   H     0.69587   0.12517   0.54813   0.00000  Uiso   1.00
H540   H     0.69597   0.37485   0.45170   0.00000  Uiso   1.00
H541   H     0.80412   0.12519   0.45187   0.00000  Uiso   1.00
H542   H     0.80402   0.37486   0.54831   0.00000  Uiso   1.00
N543   N     0.75000   0.12934   0.50000   0.00000  Uiso   1.00
N544   N     0.75000   0.37065   0.50000   0.00000  Uiso   1.00
C545   C     0.75001   0.02733   0.50001   0.00000  Uiso   1.00
C546   C     0.75000   0.47268   0.50001   0.00000  Uiso   1.00
C547   C     0.75000   0.25000   0.35518   0.00000  Uiso   1.00
C548   C     0.75000   0.25000   0.64482   0.00000  Uiso   1.00
C549   C     0.54727   0.28708   0.47519   0.00000  Uiso   1.00
C550   C     0.95273   0.21291   0.47518   0.00000  Uiso   1.00
C551   C     0.95274   0.28708   0.52478   0.00000  Uiso   1.00
C552   C     0.54727   0.21290   0.52478   0.00000  Uiso   1.00
C553   C     0.59338   0.28650   0.47447   0.00000  Uiso   1.00
C554   C     0.90662   0.21350   0.47446   0.00000  Uiso   1.00
C555   C     0.90663   0.28650   0.52550   0.00000  Uiso   1.00
C556   C     0.59338   0.21349   0.52552   0.00000  Uiso   1.00
C557   C     0.61657   0.25000   0.50000   0.00000  Uiso   1.00
C558   C     0.88343   0.25000   0.49999   0.00000  Uiso   1.00
C559   C     0.52416   0.24999   0.49998   0.00000  Uiso   1.00
C560   C     0.97584   0.24999   0.49998   0.00000  Uiso   1.00
C561   C     0.71909   0.10470   0.52640   0.00000  Uiso   1.00
C562   C     0.71915   0.39530   0.47351   0.00000  Uiso   1.00
C563   C     0.78092   0.10471   0.47360   0.00000  Uiso   1.00
C564   C     0.78085   0.39530   0.52650   0.00000  Uiso   1.00
O565   O     0.52565   0.32653   0.45487   0.00000  Uiso   1.00
C566   C     0.50590   0.31369   0.40964   0.00000  Uiso   1.00
H567   H     0.97144   0.30156   0.41566   0.00000  Uiso   1.00
H568   H     0.52449   0.28569   0.38877   0.00000  Uiso   1.00
H569   H     0.50445   0.34638   0.38604   0.00000  Uiso   1.00
O570   O     0.97435   0.17346   0.45486   0.00000  Uiso   1.00
C571   C     0.99409   0.18630   0.40962   0.00000  Uiso   1.00
H572   H     0.52855   0.19843   0.41565   0.00000  Uiso   1.00
H573   H     0.97550   0.21430   0.38876   0.00000  Uiso   1.00
H574   H     0.99554   0.15361   0.38603   0.00000  Uiso   1.00
O575   O     0.97437   0.32652   0.54510   0.00000  Uiso   1.00
C576   C     0.99412   0.31368   0.59033   0.00000  Uiso   1.00
H577   H     0.52857   0.30155   0.58431   0.00000  Uiso   1.00
H578   H     0.97553   0.28568   0.61119   0.00000  Uiso   1.00
H579   H     0.99557   0.34637   0.61394   0.00000  Uiso   1.00
O580   O     0.52564   0.17345   0.54509   0.00000  Uiso   1.00
C581   C     0.50589   0.18628   0.59033   0.00000  Uiso   1.00
H582   H     0.97143   0.19841   0.58430   0.00000  Uiso   1.00
H583   H     0.52448   0.21428   0.61119   0.00000  Uiso   1.00
H584   H     0.50444   0.15358   0.61392   0.00000  Uiso   1.00
O585   O     0.61555   0.32351   0.45065   0.00000  Uiso   1.00
C586   C     0.62763   0.30772   0.40310   0.00000  Uiso   1.00
H587   H     0.64815   0.27439   0.40409   0.00000  Uiso   1.00
H588   H     0.64766   0.33640   0.38535   0.00000  Uiso   1.00
H589   H     0.59819   0.30172   0.37963   0.00000  Uiso   1.00
O590   O     0.88445   0.17651   0.45061   0.00000  Uiso   1.00
C591   C     0.87237   0.19234   0.40307   0.00000  Uiso   1.00
H592   H     0.85193   0.22573   0.40407   0.00000  Uiso   1.00
H593   H     0.85225   0.16373   0.38533   0.00000  Uiso   1.00
H594   H     0.90180   0.19825   0.37958   0.00000  Uiso   1.00
O595   O     0.88447   0.32352   0.54931   0.00000  Uiso   1.00
C596   C     0.87239   0.30775   0.59688   0.00000  Uiso   1.00
H597   H     0.85186   0.27442   0.59590   0.00000  Uiso   1.00
H598   H     0.85238   0.33644   0.61462   0.00000  Uiso   1.00
H599   H     0.90183   0.30175   0.62034   0.00000  Uiso   1.00
O600   O     0.61554   0.17649   0.54935   0.00000  Uiso   1.00
C601   C     0.62762   0.19229   0.59690   0.00000  Uiso   1.00
H602   H     0.64811   0.22565   0.59590   0.00000  Uiso   1.00
H603   H     0.64768   0.16364   0.61465   0.00000  Uiso   1.00
H604   H     0.59818   0.19826   0.62037   0.00000  Uiso   1.00
O605   O     0.68667   0.02739   0.55335   0.00000  Uiso   1.00
C606   C     0.64375   0.04652   0.54790   0.00000  Uiso   1.00
H607   H     0.63655   0.05780   0.50935   0.00000  Uiso   1.00
H608   H     0.63851   0.07701   0.57382   0.00000  Uiso   1.00
H609   H     0.61962   0.01792   0.55764   0.00000  Uiso   1.00
O610   O     0.68682   0.47257   0.44641   0.00000  Uiso   1.00
C611   C     0.64382   0.45377   0.45230   0.00000  Uiso   1.00
H612   H     0.63669   0.44302   0.49104   0.00000  Uiso   1.00
H613   H     0.63832   0.42297   0.42682   0.00000  Uiso   1.00
H614   H     0.61981   0.48240   0.44229   0.00000  Uiso   1.00
O615   O     0.81333   0.02737   0.44665   0.00000  Uiso   1.00
C616   C     0.85622   0.04667   0.45180   0.00000  Uiso   1.00
H617   H     0.86354   0.05815   0.49027   0.00000  Uiso   1.00
H618   H     0.86128   0.07706   0.42571   0.00000  Uiso   1.00
H619   H     0.88040   0.01811   0.44208   0.00000  Uiso   1.00
O620   O     0.81315   0.47250   0.55367   0.00000  Uiso   1.00
C621   C     0.85622   0.45404   0.54724   0.00000  Uiso   1.00
H622   H     0.86320   0.44389   0.50828   0.00000  Uiso   1.00
H623   H     0.86201   0.42290   0.57223   0.00000  Uiso   1.00
H624   H     0.88014   0.48268   0.55752   0.00000  Uiso   1.00
O625   O     0.18573   0.79071   0.50000   0.00000  Uiso   1.00
O626   O     0.31427   0.70928   0.50000   0.00000  Uiso   1.00
O627   O     0.31427   0.79071   0.50000   0.00000  Uiso   1.00
O628   O     0.18573   0.70928   0.50000   0.00000  Uiso   1.00
C629   C     0.16492   0.75000   0.50000   0.00000  Uiso   1.00
C630   C     0.33508   0.75000   0.49999   0.00000  Uiso   1.00
O631   O     0.25000   0.79071   0.42946   0.00000  Uiso   1.00
O632   O     0.25000   0.70929   0.57054   0.00000  Uiso   1.00
O633   O     0.25000   0.79071   0.57054   0.00000  Uiso   1.00
O634   O     0.25000   0.70929   0.42946   0.00000  Uiso   1.00
C635   C     0.21731   0.55331   0.52587   0.00000  Uiso   1.00
C636   C     0.21738   0.94669   0.47403   0.00000  Uiso   1.00
C637   C     0.28271   0.55331   0.47414   0.00000  Uiso   1.00
C638   C     0.28261   0.94667   0.52598   0.00000  Uiso   1.00
C639   C     0.25000   0.75000   0.40683   0.00000  Uiso   1.00
C640   C     0.25000   0.75000   0.59317   0.00000  Uiso   1.00
Cu641  Cu    0.25000   0.79821   0.50000   0.00000  Uiso   1.00
Cu642  Cu    0.25000   0.70178   0.50000   0.00000  Uiso   1.00
H643   H     0.19587   0.62517   0.54813   0.00000  Uiso   1.00
H644   H     0.19597   0.87485   0.45170   0.00000  Uiso   1.00
H645   H     0.30412   0.62519   0.45187   0.00000  Uiso   1.00
H646   H     0.30402   0.87486   0.54831   0.00000  Uiso   1.00
N647   N     0.25000   0.62934   0.50000   0.00000  Uiso   1.00
N648   N     0.25000   0.87065   0.50000   0.00000  Uiso   1.00
C649   C     0.25001   0.52733   0.50001   0.00000  Uiso   1.00
C650   C     0.25000   0.97268   0.50001   0.00000  Uiso   1.00
C651   C     0.25000   0.75000   0.35518   0.00000  Uiso   1.00
C652   C     0.25000   0.75000   0.64482   0.00000  Uiso   1.00
C653   C     0.04727   0.78708   0.47519   0.00000  Uiso   1.00
C654   C     0.45273   0.71291   0.47518   0.00000  Uiso   1.00
C655   C     0.45274   0.78708   0.52478   0.00000  Uiso   1.00
C656   C     0.04727   0.71290   0.52478   0.00000  Uiso   1.00
C657   C     0.09338   0.78650   0.47447   0.00000  Uiso   1.00
C658   C     0.40662   0.71350   0.47446   0.00000  Uiso   1.00
C659   C     0.40663   0.78650   0.52550   0.00000  Uiso   1.00
C660   C     0.09338   0.71349   0.52552   0.00000  Uiso   1.00
C661   C     0.11657   0.75000   0.50000   0.00000  Uiso   1.00
C662   C     0.38343   0.75000   0.49999   0.00000  Uiso   1.00
C663   C     0.02416   0.74999   0.49998   0.00000  Uiso   1.00
C664   C     0.47584   0.74999   0.49998   0.00000  Uiso   1.00
C665   C     0.21909   0.60470   0.52640   0.00000  Uiso   1.00
C666   C     0.21915   0.89530   0.47351   0.00000  Uiso   1.00
C667   C     0.28092   0.60471   0.47360   0.00000  Uiso   1.00
C668   C     0.28085   0.89530   0.52650   0.00000  Uiso   1.00
O669   O     0.02565   0.82653   0.45487   0.00000  Uiso   1.00
C670   C     0.00590   0.81369   0.40964   0.00000  Uiso   1.00
H671   H     0.47144   0.80156   0.41566   0.00000  Uiso   1.00
H672   H     0.02449   0.78569   0.38877   0.00000  Uiso   1.00
H673   H     0.00445   0.84638   0.38604   0.00000  Uiso   1.00
O674   O     0.47435   0.67346   0.45486   0.00000  Uiso   1.00
C675   C     0.49409   0.68630   0.40962   0.00000  Uiso   1.00
H676   H     0.02855   0.69843   0.41565   0.00000  Uiso   1.00
H677   H     0.47550   0.71430   0.38876   0.00000  Uiso   1.00
H678   H     0.49554   0.65361   0.38603   0.00000  Uiso   1.00
O679   O     0.47437   0.82652   0.54510   0.00000  Uiso   1.00
C680   C     0.49412   0.81368   0.59033   0.00000  Uiso   1.00
H681   H     0.02857   0.80155   0.58431   0.00000  Uiso   1.00
H682   H     0.47553   0.78568   0.61119   0.00000  Uiso   1.00
H683   H     0.49557   0.84637   0.61394   0.00000  Uiso   1.00
O684   O     0.02564   0.67345   0.54509   0.00000  Uiso   1.00
C685   C     0.00589   0.68628   0.59033   0.00000  Uiso   1.00
H686   H     0.47143   0.69841   0.58430   0.00000  Uiso   1.00
H687   H     0.02448   0.71428   0.61119   0.00000  Uiso   1.00
H688   H     0.00444   0.65358   0.61392   0.00000  Uiso   1.00
O689   O     0.11555   0.82351   0.45065   0.00000  Uiso   1.00
C690   C     0.12763   0.80772   0.40310   0.00000  Uiso   1.00
H691   H     0.14815   0.77439   0.40409   0.00000  Uiso   1.00
H692   H     0.14766   0.83640   0.38535   0.00000  Uiso   1.00
H693   H     0.09819   0.80172   0.37963   0.00000  Uiso   1.00
O694   O     0.38445   0.67651   0.45061   0.00000  Uiso   1.00
C695   C     0.37237   0.69234   0.40307   0.00000  Uiso   1.00
H696   H     0.35193   0.72573   0.40407   0.00000  Uiso   1.00
H697   H     0.35225   0.66373   0.38533   0.00000  Uiso   1.00
H698   H     0.40180   0.69825   0.37958   0.00000  Uiso   1.00
O699   O     0.38447   0.82352   0.54931   0.00000  Uiso   1.00
C700   C     0.37239   0.80775   0.59688   0.00000  Uiso   1.00
H701   H     0.35186   0.77442   0.59590   0.00000  Uiso   1.00
H702   H     0.35238   0.83644   0.61462   0.00000  Uiso   1.00
H703   H     0.40183   0.80175   0.62034   0.00000  Uiso   1.00
O704   O     0.11554   0.67649   0.54935   0.00000  Uiso   1.00
C705   C     0.12762   0.69229   0.59690   0.00000  Uiso   1.00
H706   H     0.14811   0.72565   0.59590   0.00000  Uiso   1.00
H707   H     0.14768   0.66364   0.61465   0.00000  Uiso   1.00
H708   H     0.09818   0.69826   0.62037   0.00000  Uiso   1.00
O709   O     0.18667   0.52739   0.55335   0.00000  Uiso   1.00
C710   C     0.14375   0.54652   0.54790   0.00000  Uiso   1.00
H711   H     0.13655   0.55780   0.50935   0.00000  Uiso   1.00
H712   H     0.13851   0.57701   0.57382   0.00000  Uiso   1.00
H713   H     0.11962   0.51792   0.55764   0.00000  Uiso   1.00
O714   O     0.18682   0.97257   0.44641   0.00000  Uiso   1.00
C715   C     0.14382   0.95377   0.45230   0.00000  Uiso   1.00
H716   H     0.13669   0.94302   0.49104   0.00000  Uiso   1.00
H717   H     0.13832   0.92297   0.42682   0.00000  Uiso   1.00
H718   H     0.11981   0.98240   0.44229   0.00000  Uiso   1.00
O719   O     0.31333   0.52737   0.44665   0.00000  Uiso   1.00
C720   C     0.35622   0.54667   0.45180   0.00000  Uiso   1.00
H721   H     0.36354   0.55815   0.49027   0.00000  Uiso   1.00
H722   H     0.36128   0.57706   0.42571   0.00000  Uiso   1.00
H723   H     0.38040   0.51811   0.44208   0.00000  Uiso   1.00
O724   O     0.31315   0.97250   0.55367   0.00000  Uiso   1.00
C725   C     0.35622   0.95404   0.54724   0.00000  Uiso   1.00
H726   H     0.36320   0.94389   0.50828   0.00000  Uiso   1.00
H727   H     0.36201   0.92290   0.57223   0.00000  Uiso   1.00
H728   H     0.38014   0.98268   0.55752   0.00000  Uiso   1.00
O729   O     0.68573   0.79071   0.50000   0.00000  Uiso   1.00
O730   O     0.81427   0.70928   0.50000   0.00000  Uiso   1.00
O731   O     0.81427   0.79071   0.50000   0.00000  Uiso   1.00
O732   O     0.68573   0.70928   0.50000   0.00000  Uiso   1.00
C733   C     0.66492   0.75000   0.50000   0.00000  Uiso   1.00
C734   C     0.83508   0.75000   0.49999   0.00000  Uiso   1.00
O735   O     0.75000   0.79071   0.42946   0.00000  Uiso   1.00
O736   O     0.75000   0.70929   0.57054   0.00000  Uiso   1.00
O737   O     0.75000   0.79071   0.57054   0.00000  Uiso   1.00
O738   O     0.75000   0.70929   0.42946   0.00000  Uiso   1.00
C739   C     0.71731   0.55331   0.52587   0.00000  Uiso   1.00
C740   C     0.71738   0.94669   0.47403   0.00000  Uiso   1.00
C741   C     0.78271   0.55331   0.47414   0.00000  Uiso   1.00
C742   C     0.78261   0.94667   0.52598   0.00000  Uiso   1.00
C743   C     0.75000   0.75000   0.40683   0.00000  Uiso   1.00
C744   C     0.75000   0.75000   0.59317   0.00000  Uiso   1.00
Cu745  Cu    0.75000   0.79821   0.50000   0.00000  Uiso   1.00
Cu746  Cu    0.75000   0.70178   0.50000   0.00000  Uiso   1.00
H747   H     0.69587   0.62517   0.54813   0.00000  Uiso   1.00
H748   H     0.69597   0.87485   0.45170   0.00000  Uiso   1.00
H749   H     0.80412   0.62519   0.45187   0.00000  Uiso   1.00
H750   H     0.80402   0.87486   0.54831   0.00000  Uiso   1.00
N751   N     0.75000   0.62934   0.50000   0.00000  Uiso   1.00
N752   N     0.75000   0.87065   0.50000   0.00000  Uiso   1.00
C753   C     0.75001   0.52733   0.50001   0.00000  Uiso   1.00
C754   C     0.75000   0.97268   0.50001   0.00000  Uiso   1.00
C755   C     0.75000   0.75000   0.35518   0.00000  Uiso   1.00
C756   C     0.75000   0.75000   0.64482   0.00000  Uiso   1.00
C757   C     0.54727   0.78708   0.47519   0.00000  Uiso   1.00
C758   C     0.95273   0.71291   0.47518   0.00000  Uiso   1.00
C759   C     0.95274   0.78708   0.52478   0.00000  Uiso   1.00
C760   C     0.54727   0.71290   0.52478   0.00000  Uiso   1.00
C761   C     0.59338   0.78650   0.47447   0.00000  Uiso   1.00
C762   C     0.90662   0.71350   0.47446   0.00000  Uiso   1.00
C763   C     0.90663   0.78650   0.52550   0.00000  Uiso   1.00
C764   C     0.59338   0.71349   0.52552   0.00000  Uiso   1.00
C765   C     0.61657   0.75000   0.50000   0.00000  Uiso   1.00
C766   C     0.88343   0.75000   0.49999   0.00000  Uiso   1.00
C767   C     0.52416   0.74999   0.49998   0.00000  Uiso   1.00
C768   C     0.97584   0.74999   0.49998   0.00000  Uiso   1.00
C769   C     0.71909   0.60470   0.52640   0.00000  Uiso   1.00
C770   C     0.71915   0.89530   0.47351   0.00000  Uiso   1.00
C771   C     0.78092   0.60471   0.47360   0.00000  Uiso   1.00
C772   C     0.78085   0.89530   0.52650   0.00000  Uiso   1.00
O773   O     0.52565   0.82653   0.45487   0.00000  Uiso   1.00
C774   C     0.50590   0.81369   0.40964   0.00000  Uiso   1.00
H775   H     0.97144   0.80156   0.41566   0.00000  Uiso   1.00
H776   H     0.52449   0.78569   0.38877   0.00000  Uiso   1.00
H777   H     0.50445   0.84638   0.38604   0.00000  Uiso   1.00
O778   O     0.97435   0.67346   0.45486   0.00000  Uiso   1.00
C779   C     0.99409   0.68630   0.40962   0.00000  Uiso   1.00
H780   H     0.52855   0.69843   0.41565   0.00000  Uiso   1.00
H781   H     0.97550   0.71430   0.38876   0.00000  Uiso   1.00
H782   H     0.99554   0.65361   0.38603   0.00000  Uiso   1.00
O783   O     0.97437   0.82652   0.54510   0.00000  Uiso   1.00
C784   C     0.99412   0.81368   0.59033   0.00000  Uiso   1.00
H785   H     0.52857   0.80155   0.58431   0.00000  Uiso   1.00
H786   H     0.97553   0.78568   0.61119   0.00000  Uiso   1.00
H787   H     0.99557   0.84637   0.61394   0.00000  Uiso   1.00
O788   O     0.52564   0.67345   0.54509   0.00000  Uiso   1.00
C789   C     0.50589   0.68628   0.59033   0.00000  Uiso   1.00
H790   H     0.97143   0.69841   0.58430   0.00000  Uiso   1.00
H791   H     0.52448   0.71428   0.61119   0.00000  Uiso   1.00
H792   H     0.50444   0.65358   0.61392   0.00000  Uiso   1.00
O793   O     0.61555   0.82351   0.45065   0.00000  Uiso   1.00
C794   C     0.62763   0.80772   0.40310   0.00000  Uiso   1.00
H795   H     0.64815   0.77439   0.40409   0.00000  Uiso   1.00
H796   H     0.64766   0.83640   0.38535   0.00000  Uiso   1.00
H797   H     0.59819   0.80172   0.37963   0.00000  Uiso   1.00
O798   O     0.88445   0.67651   0.45061   0.00000  Uiso   1.00
C799   C     0.87237   0.69234   0.40307   0.00000  Uiso   1.00
H800   H     0.85193   0.72573   0.40407   0.00000  Uiso   1.00
H801   H     0.85225   0.66373   0.38533   0.00000  Uiso   1.00
H802   H     0.90180   0.69825   0.37958   0.00000  Uiso   1.00
O803   O     0.88447   0.82352   0.54931   0.00000  Uiso   1.00
C804   C     0.87239   0.80775   0.59688   0.00000  Uiso   1.00
H805   H     0.85186   0.77442   0.59590   0.00000  Uiso   1.00
H806   H     0.85238   0.83644   0.61462   0.00000  Uiso   1.00
H807   H     0.90183   0.80175   0.62034   0.00000  Uiso   1.00
O808   O     0.61554   0.67649   0.54935   0.00000  Uiso   1.00
C809   C     0.62762   0.69229   0.59690   0.00000  Uiso   1.00
H810   H     0.64811   0.72565   0.59590   0.00000  Uiso   1.00
H811   H     0.64768   0.66364   0.61465   0.00000  Uiso   1.00
H812   H     0.59818   0.69826   0.62037   0.00000  Uiso   1.00
O813   O     0.68667   0.52739   0.55335   0.00000  Uiso   1.00
C814   C     0.64375   0.54652   0.54790   0.00000  Uiso   1.00
H815   H     0.63655   0.55780   0.50935   0.00000  Uiso   1.00
H816   H     0.63851   0.57701   0.57382   0.00000  Uiso   1.00
H817   H     0.61962   0.51792   0.55764   0.00000  Uiso   1.00
O818   O     0.68682   0.97257   0.44641   0.00000  Uiso   1.00
C819   C     0.64382   0.95377   0.45230   0.00000  Uiso   1.00
H820   H     0.63669   0.94302   0.49104   0.00000  Uiso   1.00
H821   H     0.63832   0.92297   0.42682   0.00000  Uiso   1.00
H822   H     0.61981   0.98240   0.44229   0.00000  Uiso   1.00
O823   O     0.81333   0.52737   0.44665   0.00000  Uiso   1.00
C824   C     0.85622   0.54667   0.45180   0.00000  Uiso   1.00
H825   H     0.86354   0.55815   0.49027   0.00000  Uiso   1.00
H826   H     0.86128   0.57706   0.42571   0.00000  Uiso   1.00
H827   H     0.88040   0.51811   0.44208   0.00000  Uiso   1.00
O828   O     0.81315   0.97250   0.55367   0.00000  Uiso   1.00
C829   C     0.85622   0.95404   0.54724   0.00000  Uiso   1.00
H830   H     0.86320   0.94389   0.50828   0.00000  Uiso   1.00
H831   H     0.86201   0.92290   0.57223   0.00000  Uiso   1.00
H832   H     0.88014   0.98268   0.55752   0.00000  Uiso   1.00
O833   O     0.18573   0.29071   0.83334   0.00000  Uiso   1.00
O834   O     0.31427   0.20928   0.83333   0.00000  Uiso   1.00
O835   O     0.31427   0.29071   0.83333   0.00000  Uiso   1.00
O836   O     0.18573   0.20928   0.83334   0.00000  Uiso   1.00
C837   C     0.16492   0.25000   0.83334   0.00000  Uiso   1.00
C838   C     0.33508   0.25000   0.83333   0.00000  Uiso   1.00
O839   O     0.25000   0.29071   0.76280   0.00000  Uiso   1.00
O840   O     0.25000   0.20929   0.90387   0.00000  Uiso   1.00
O841   O     0.25000   0.29071   0.90387   0.00000  Uiso   1.00
O842   O     0.25000   0.20929   0.76280   0.00000  Uiso   1.00
C843   C     0.21731   0.05331   0.85920   0.00000  Uiso   1.00
C844   C     0.21738   0.44669   0.80737   0.00000  Uiso   1.00
C845   C     0.28271   0.05331   0.80747   0.00000  Uiso   1.00
C846   C     0.28261   0.44667   0.85932   0.00000  Uiso   1.00
C847   C     0.25000   0.25000   0.74016   0.00000  Uiso   1.00
C848   C     0.25000   0.25000   0.92651   0.00000  Uiso   1.00
Cu849  Cu    0.25000   0.29821   0.83333   0.00000  Uiso   1.00
Cu850  Cu    0.25000   0.20178   0.83333   0.00000  Uiso   1.00
H851   H     0.19587   0.12517   0.88146   0.00000  Uiso   1.00
H852   H     0.19597   0.37485   0.78503   0.00000  Uiso   1.00
H853   H     0.30412   0.12519   0.78520   0.00000  Uiso   1.00
H854   H     0.30402   0.37486   0.88165   0.00000  Uiso   1.00
N855   N     0.25000   0.12934   0.83333   0.00000  Uiso   1.00
N856   N     0.25000   0.37065   0.83333   0.00000  Uiso   1.00
C857   C     0.25001   0.02733   0.83335   0.00000  Uiso   1.00
C858   C     0.25000   0.47268   0.83334   0.00000  Uiso   1.00
C859   C     0.25000   0.25000   0.68851   0.00000  Uiso   1.00
C860   C     0.25000   0.25000   0.97815   0.00000  Uiso   1.00
C861   C     0.04727   0.28708   0.80852   0.00000  Uiso   1.00
C862   C     0.45273   0.21291   0.80852   0.00000  Uiso   1.00
C863   C     0.45274   0.28708   0.85812   0.00000  Uiso   1.00
C864   C     0.04727   0.21290   0.85811   0.00000  Uiso   1.00
C865   C     0.09338   0.28650   0.80781   0.00000  Uiso   1.00
C866   C     0.40662   0.21350   0.80779   0.00000  Uiso   1.00
C867   C     0.40663   0.28650   0.85884   0.00000  Uiso   1.00
C868   C     0.09338   0.21349   0.85885   0.00000  Uiso   1.00
C869   C     0.11657   0.25000   0.83333   0.00000  Uiso   1.00
C870   C     0.38343   0.25000   0.83332   0.00000  Uiso   1.00
C871   C     0.02416   0.24999   0.83331   0.00000  Uiso   1.00
C872   C     0.47584   0.24999   0.83332   0.00000  Uiso   1.00
C873   C     0.21909   0.10470   0.85974   0.00000  Uiso   1.00
C874   C     0.21915   0.39530   0.80684   0.00000  Uiso   1.00
C875   C     0.28092   0.10471   0.80693   0.00000  Uiso   1.00
C876   C     0.28085   0.39530   0.85983   0.00000  Uiso   1.00
O877   O     0.02565   0.32653   0.78820   0.00000  Uiso   1.00
C878   C     0.00590   0.31369   0.74297   0.00000  Uiso   1.00
H879   H     0.47144   0.30156   0.74899   0.00000  Uiso   1.00
H880   H     0.02449   0.28569   0.72211   0.00000  Uiso   1.00
H881   H     0.00445   0.34638   0.71937   0.00000  Uiso   1.00
O882   O     0.47435   0.17346   0.78819   0.00000  Uiso   1.00
C883   C     0.49409   0.18630   0.74296   0.00000  Uiso   1.00
H884   H     0.02855   0.19843   0.74898   0.00000  Uiso   1.00
H885   H     0.47550   0.21430   0.72210   0.00000  Uiso   1.00
H886   H     0.49554   0.15361   0.71936   0.00000  Uiso   1.00
O887   O     0.47437   0.32652   0.87843   0.00000  Uiso   1.00
C888   C     0.49412   0.31368   0.92367   0.00000  Uiso   1.00
H889   H     0.02857   0.30155   0.91764   0.00000  Uiso   1.00
H890   H     0.47553   0.28568   0.94453   0.00000  Uiso   1.00
H891   H     0.49557   0.34637   0.94727   0.00000  Uiso   1.00
O892   O     0.02564   0.17345   0.87843   0.00000  Uiso   1.00
C893   C     0.00589   0.18628   0.92366   0.00000  Uiso   1.00
H894   H     0.47143   0.19841   0.91764   0.00000  Uiso   1.00
H895   H     0.02448   0.21428   0.94453   0.00000  Uiso   1.00
H896   H     0.00444   0.15358   0.94726   0.00000  Uiso   1.00
O897   O     0.11555   0.32351   0.78399   0.00000  Uiso   1.00
C898   C     0.12763   0.30772   0.73643   0.00000  Uiso   1.00
H899   H     0.14815   0.27439   0.73743   0.00000  Uiso   1.00
H900   H     0.14766   0.33640   0.71868   0.00000  Uiso   1.00
H901   H     0.09819   0.30172   0.71297   0.00000  Uiso   1.00
O902   O     0.38445   0.17651   0.78394   0.00000  Uiso   1.00
C903   C     0.37237   0.19234   0.73640   0.00000  Uiso   1.00
H904   H     0.35193   0.22573   0.73740   0.00000  Uiso   1.00
H905   H     0.35225   0.16373   0.71867   0.00000  Uiso   1.00
H906   H     0.40180   0.19825   0.71292   0.00000  Uiso   1.00
O907   O     0.38447   0.32352   0.88265   0.00000  Uiso   1.00
C908   C     0.37239   0.30775   0.93021   0.00000  Uiso   1.00
H909   H     0.35186   0.27442   0.92923   0.00000  Uiso   1.00
H910   H     0.35238   0.33644   0.94795   0.00000  Uiso   1.00
H911   H     0.40183   0.30175   0.95367   0.00000  Uiso   1.00
O912   O     0.11554   0.17649   0.88268   0.00000  Uiso   1.00
C913   C     0.12762   0.19229   0.93024   0.00000  Uiso   1.00
H914   H     0.14811   0.22565   0.92923   0.00000  Uiso   1.00
H915   H     0.14768   0.16364   0.94798   0.00000  Uiso   1.00
H916   H     0.09818   0.19826   0.95370   0.00000  Uiso   1.00
O917   O     0.18667   0.02739   0.88669   0.00000  Uiso   1.00
C918   C     0.14375   0.04652   0.88123   0.00000  Uiso   1.00
H919   H     0.13655   0.05780   0.84268   0.00000  Uiso   1.00
H920   H     0.13851   0.07701   0.90715   0.00000  Uiso   1.00
H921   H     0.11962   0.01792   0.89097   0.00000  Uiso   1.00
O922   O     0.18682   0.47257   0.77974   0.00000  Uiso   1.00
C923   C     0.14382   0.45377   0.78563   0.00000  Uiso   1.00
H924   H     0.13669   0.44302   0.82438   0.00000  Uiso   1.00
H925   H     0.13832   0.42297   0.76015   0.00000  Uiso   1.00
H926   H     0.11981   0.48240   0.77562   0.00000  Uiso   1.00
O927   O     0.31333   0.02737   0.77999   0.00000  Uiso   1.00
C928   C     0.35622   0.04667   0.78513   0.00000  Uiso   1.00
H929   H     0.36354   0.05815   0.82360   0.00000  Uiso   1.00
H930   H     0.36128   0.07706   0.75904   0.00000  Uiso   1.00
H931   H     0.38040   0.01811   0.77541   0.00000  Uiso   1.00
O932   O     0.31315   0.47250   0.88700   0.00000  Uiso   1.00
C933   C     0.35622   0.45404   0.88057   0.00000  Uiso   1.00
H934   H     0.36320   0.44389   0.84161   0.00000  Uiso   1.00
H935   H     0.36201   0.42290   0.90556   0.00000  Uiso   1.00
H936   H     0.38014   0.48268   0.89086   0.00000  Uiso   1.00
O937   O     0.68573   0.29071   0.83334   0.00000  Uiso   1.00
O938   O     0.81427   0.20928   0.83333   0.00000  Uiso   1.00
O939   O     0.81427   0.29071   0.83333   0.00000  Uiso   1.00
O940   O     0.68573   0.20928   0.83334   0.00000  Uiso   1.00
C941   C     0.66492   0.25000   0.83334   0.00000  Uiso   1.00
C942   C     0.83508   0.25000   0.83333   0.00000  Uiso   1.00
O943   O     0.75000   0.29071   0.76280   0.00000  Uiso   1.00
O944   O     0.75000   0.20929   0.90387   0.00000  Uiso   1.00
O945   O     0.75000   0.29071   0.90387   0.00000  Uiso   1.00
O946   O     0.75000   0.20929   0.76280   0.00000  Uiso   1.00
C947   C     0.71731   0.05331   0.85920   0.00000  Uiso   1.00
C948   C     0.71738   0.44669   0.80737   0.00000  Uiso   1.00
C949   C     0.78271   0.05331   0.80747   0.00000  Uiso   1.00
C950   C     0.78261   0.44667   0.85932   0.00000  Uiso   1.00
C951   C     0.75000   0.25000   0.74016   0.00000  Uiso   1.00
C952   C     0.75000   0.25000   0.92651   0.00000  Uiso   1.00
Cu953  Cu    0.75000   0.29821   0.83333   0.00000  Uiso   1.00
Cu954  Cu    0.75000   0.20178   0.83333   0.00000  Uiso   1.00
H955   H     0.69587   0.12517   0.88146   0.00000  Uiso   1.00
H956   H     0.69597   0.37485   0.78503   0.00000  Uiso   1.00
H957   H     0.80412   0.12519   0.78520   0.00000  Uiso   1.00
H958   H     0.80402   0.37486   0.88165   0.00000  Uiso   1.00
N959   N     0.75000   0.12934   0.83333   0.00000  Uiso   1.00
N960   N     0.75000   0.37065   0.83333   0.00000  Uiso   1.00
C961   C     0.75001   0.02733   0.83335   0.00000  Uiso   1.00
C962   C     0.75000   0.47268   0.83334   0.00000  Uiso   1.00
C963   C     0.75000   0.25000   0.68851   0.00000  Uiso   1.00
C964   C     0.75000   0.25000   0.97815   0.00000  Uiso   1.00
C965   C     0.54727   0.28708   0.80852   0.00000  Uiso   1.00
C966   C     0.95273   0.21291   0.80852   0.00000  Uiso   1.00
C967   C     0.95274   0.28708   0.85812   0.00000  Uiso   1.00
C968   C     0.54727   0.21290   0.85811   0.00000  Uiso   1.00
C969   C     0.59338   0.28650   0.80781   0.00000  Uiso   1.00
C970   C     0.90662   0.21350   0.80779   0.00000  Uiso   1.00
C971   C     0.90663   0.28650   0.85884   0.00000  Uiso   1.00
C972   C     0.59338   0.21349   0.85885   0.00000  Uiso   1.00
C973   C     0.61657   0.25000   0.83333   0.00000  Uiso   1.00
C974   C     0.88343   0.25000   0.83332   0.00000  Uiso   1.00
C975   C     0.52416   0.24999   0.83331   0.00000  Uiso   1.00
C976   C     0.97584   0.24999   0.83332   0.00000  Uiso   1.00
C977   C     0.71909   0.10470   0.85974   0.00000  Uiso   1.00
C978   C     0.71915   0.39530   0.80684   0.00000  Uiso   1.00
C979   C     0.78092   0.10471   0.80693   0.00000  Uiso   1.00
C980   C     0.78085   0.39530   0.85983   0.00000  Uiso   1.00
O981   O     0.52565   0.32653   0.78820   0.00000  Uiso   1.00
C982   C     0.50590   0.31369   0.74297   0.00000  Uiso   1.00
H983   H     0.97144   0.30156   0.74899   0.00000  Uiso   1.00
H984   H     0.52449   0.28569   0.72211   0.00000  Uiso   1.00
H985   H     0.50445   0.34638   0.71937   0.00000  Uiso   1.00
O986   O     0.97435   0.17346   0.78819   0.00000  Uiso   1.00
C987   C     0.99409   0.18630   0.74296   0.00000  Uiso   1.00
H988   H     0.52855   0.19843   0.74898   0.00000  Uiso   1.00
H989   H     0.97550   0.21430   0.72210   0.00000  Uiso   1.00
H990   H     0.99554   0.15361   0.71936   0.00000  Uiso   1.00
O991   O     0.97437   0.32652   0.87843   0.00000  Uiso   1.00
C992   C     0.99412   0.31368   0.92367   0.00000  Uiso   1.00
H993   H     0.52857   0.30155   0.91764   0.00000  Uiso   1.00
H994   H     0.97553   0.28568   0.94453   0.00000  Uiso   1.00
H995   H     0.99557   0.34637   0.94727   0.00000  Uiso   1.00
O996   O     0.52564   0.17345   0.87843   0.00000  Uiso   1.00
C997   C     0.50589   0.18628   0.92366   0.00000  Uiso   1.00
H998   H     0.97143   0.19841   0.91764   0.00000  Uiso   1.00
H999   H     0.52448   0.21428   0.94453   0.00000  Uiso   1.00
H1000  H     0.50444   0.15358   0.94726   0.00000  Uiso   1.00
O1001  O     0.61555   0.32351   0.78399   0.00000  Uiso   1.00
C1002  C     0.62763   0.30772   0.73643   0.00000  Uiso   1.00
H1003  H     0.64815   0.27439   0.73743   0.00000  Uiso   1.00
H1004  H     0.64766   0.33640   0.71868   0.00000  Uiso   1.00
H1005  H     0.59819   0.30172   0.71297   0.00000  Uiso   1.00
O1006  O     0.88445   0.17651   0.78394   0.00000  Uiso   1.00
C1007  C     0.87237   0.19234   0.73640   0.00000  Uiso   1.00
H1008  H     0.85193   0.22573   0.73740   0.00000  Uiso   1.00
H1009  H     0.85225   0.16373   0.71867   0.00000  Uiso   1.00
H1010  H     0.90180   0.19825   0.71292   0.00000  Uiso   1.00
O1011  O     0.88447   0.32352   0.88265   0.00000  Uiso   1.00
C1012  C     0.87239   0.30775   0.93021   0.00000  Uiso   1.00
H1013  H     0.85186   0.27442   0.92923   0.00000  Uiso   1.00
H1014  H     0.85238   0.33644   0.94795   0.00000  Uiso   1.00
H1015  H     0.90183   0.30175   0.95367   0.00000  Uiso   1.00
O1016  O     0.61554   0.17649   0.88268   0.00000  Uiso   1.00
C1017  C     0.62762   0.19229   0.93024   0.00000  Uiso   1.00
H1018  H     0.64811   0.22565   0.92923   0.00000  Uiso   1.00
H1019  H     0.64768   0.16364   0.94798   0.00000  Uiso   1.00
H1020  H     0.59818   0.19826   0.95370   0.00000  Uiso   1.00
O1021  O     0.68667   0.02739   0.88669   0.00000  Uiso   1.00
C1022  C     0.64375   0.04652   0.88123   0.00000  Uiso   1.00
H1023  H     0.63655   0.05780   0.84268   0.00000  Uiso   1.00
H1024  H     0.63851   0.07701   0.90715   0.00000  Uiso   1.00
H1025  H     0.61962   0.01792   0.89097   0.00000  Uiso   1.00
O1026  O     0.68682   0.47257   0.77974   0.00000  Uiso   1.00
C1027  C     0.64382   0.45377   0.78563   0.00000  Uiso   1.00
H1028  H     0.63669   0.44302   0.82438   0.00000  Uiso   1.00
H1029  H     0.63832   0.42297   0.76015   0.00000  Uiso   1.00
H1030  H     0.61981   0.48240   0.77562   0.00000  Uiso   1.00
O1031  O     0.81333   0.02737   0.77999   0.00000  Uiso   1.00
C1032  C     0.85622   0.04667   0.78513   0.00000  Uiso   1.00
H1033  H     0.86354   0.05815   0.82360   0.00000  Uiso   1.00
H1034  H     0.86128   0.07706   0.75904   0.00000  Uiso   1.00
H1035  H     0.88040   0.01811   0.77541   0.00000  Uiso   1.00
O1036  O     0.81315   0.47250   0.88700   0.00000  Uiso   1.00
C1037  C     0.85622   0.45404   0.88057   0.00000  Uiso   1.00
H1038  H     0.86320   0.44389   0.84161   0.00000  Uiso   1.00
H1039  H     0.86201   0.42290   0.90556   0.00000  Uiso   1.00
H1040  H     0.88014   0.48268   0.89086   0.00000  Uiso   1.00
O1041  O     0.18573   0.79071   0.83334   0.00000  Uiso   1.00
O1042  O     0.31427   0.70928   0.83333   0.00000  Uiso   1.00
O1043  O     0.31427   0.79071   0.83333   0.00000  Uiso   1.00
O1044  O     0.18573   0.70928   0.83334   0.00000  Uiso   1.00
C1045  C     0.16492   0.75000   0.83334   0.00000  Uiso   1.00
C1046  C     0.33508   0.75000   0.83333   0.00000  Uiso   1.00
O1047  O     0.25000   0.79071   0.76280   0.00000  Uiso   1.00
O1048  O     0.25000   0.70929   0.90387   0.00000  Uiso   1.00
O1049  O     0.25000   0.79071   0.90387   0.00000  Uiso   1.00
O1050  O     0.25000   0.70929   0.76280   0.00000  Uiso   1.00
C1051  C     0.21731   0.55331   0.85920   0.00000  Uiso   1.00
C1052  C     0.21738   0.94669   0.80737   0.00000  Uiso   1.00
C1053  C     0.28271   0.55331   0.80747   0.00000  Uiso   1.00
C1054  C     0.28261   0.94667   0.85932   0.00000  Uiso   1.00
C1055  C     0.25000   0.75000   0.74016   0.00000  Uiso   1.00
C1056  C     0.25000   0.75000   0.92651   0.00000  Uiso   1.00
Cu1057 Cu    0.25000   0.79821   0.83333   0.00000  Uiso   1.00
Cu1058 Cu    0.25000   0.70178   0.83333   0.00000  Uiso   1.00
H1059  H     0.19587   0.62517   0.88146   0.00000  Uiso   1.00
H1060  H     0.19597   0.87485   0.78503   0.00000  Uiso   1.00
H1061  H     0.30412   0.62519   0.78520   0.00000  Uiso   1.00
H1062  H     0.30402   0.87486   0.88165   0.00000  Uiso   1.00
N1063  N     0.25000   0.62934   0.83333   0.00000  Uiso   1.00
N1064  N     0.25000   0.87065   0.83333   0.00000  Uiso   1.00
C1065  C     0.25001   0.52733   0.83335   0.00000  Uiso   1.00
C1066  C     0.25000   0.97268   0.83334   0.00000  Uiso   1.00
C1067  C     0.25000   0.75000   0.68851   0.00000  Uiso   1.00
C1068  C     0.25000   0.75000   0.97815   0.00000  Uiso   1.00
C1069  C     0.04727   0.78708   0.80852   0.00000  Uiso   1.00
C1070  C     0.45273   0.71291   0.80852   0.00000  Uiso   1.00
C1071  C     0.45274   0.78708   0.85812   0.00000  Uiso   1.00
C1072  C     0.04727   0.71290   0.85811   0.00000  Uiso   1.00
C1073  C     0.09338   0.78650   0.80781   0.00000  Uiso   1.00
C1074  C     0.40662   0.71350   0.80779   0.00000  Uiso   1.00
C1075  C     0.40663   0.78650   0.85884   0.00000  Uiso   1.00
C1076  C     0.09338   0.71349   0.85885   0.00000  Uiso   1.00
C1077  C     0.11657   0.75000   0.83333   0.00000  Uiso   1.00
C1078  C     0.38343   0.75000   0.83332   0.00000  Uiso   1.00
C1079  C     0.02416   0.74999   0.83331   0.00000  Uiso   1.00
C1080  C     0.47584   0.74999   0.83332   0.00000  Uiso   1.00
C1081  C     0.21909   0.60470   0.85974   0.00000  Uiso   1.00
C1082  C     0.21915   0.89530   0.80684   0.00000  Uiso   1.00
C1083  C     0.28092   0.60471   0.80693   0.00000  Uiso   1.00
C1084  C     0.28085   0.89530   0.85983   0.00000  Uiso   1.00
O1085  O     0.02565   0.82653   0.78820   0.00000  Uiso   1.00
C1086  C     0.00590   0.81369   0.74297   0.00000  Uiso   1.00
H1087  H     0.47144   0.80156   0.74899   0.00000  Uiso   1.00
H1088  H     0.02449   0.78569   0.72211   0.00000  Uiso   1.00
H1089  H     0.00445   0.84638   0.71937   0.00000  Uiso   1.00
O1090  O     0.47435   0.67346   0.78819   0.00000  Uiso   1.00
C1091  C     0.49409   0.68630   0.74296   0.00000  Uiso   1.00
H1092  H     0.02855   0.69843   0.74898   0.00000  Uiso   1.00
H1093  H     0.47550   0.71430   0.72210   0.00000  Uiso   1.00
H1094  H     0.49554   0.65361   0.71936   0.00000  Uiso   1.00
O1095  O     0.47437   0.82652   0.87843   0.00000  Uiso   1.00
C1096  C     0.49412   0.81368   0.92367   0.00000  Uiso   1.00
H1097  H     0.02857   0.80155   0.91764   0.00000  Uiso   1.00
H1098  H     0.47553   0.78568   0.94453   0.00000  Uiso   1.00
H1099  H     0.49557   0.84637   0.94727   0.00000  Uiso   1.00
O1100  O     0.02564   0.67345   0.87843   0.00000  Uiso   1.00
C1101  C     0.00589   0.68628   0.92366   0.00000  Uiso   1.00
H1102  H     0.47143   0.69841   0.91764   0.00000  Uiso   1.00
H1103  H     0.02448   0.71428   0.94453   0.00000  Uiso   1.00
H1104  H     0.00444   0.65358   0.94726   0.00000  Uiso   1.00
O1105  O     0.11555   0.82351   0.78399   0.00000  Uiso   1.00
C1106  C     0.12763   0.80772   0.73643   0.00000  Uiso   1.00
H1107  H     0.14815   0.77439   0.73743   0.00000  Uiso   1.00
H1108  H     0.14766   0.83640   0.71868   0.00000  Uiso   1.00
H1109  H     0.09819   0.80172   0.71297   0.00000  Uiso   1.00
O1110  O     0.38445   0.67651   0.78394   0.00000  Uiso   1.00
C1111  C     0.37237   0.69234   0.73640   0.00000  Uiso   1.00
H1112  H     0.35193   0.72573   0.73740   0.00000  Uiso   1.00
H1113  H     0.35225   0.66373   0.71867   0.00000  Uiso   1.00
H1114  H     0.40180   0.69825   0.71292   0.00000  Uiso   1.00
O1115  O     0.38447   0.82352   0.88265   0.00000  Uiso   1.00
C1116  C     0.37239   0.80775   0.93021   0.00000  Uiso   1.00
H1117  H     0.35186   0.77442   0.92923   0.00000  Uiso   1.00
H1118  H     0.35238   0.83644   0.94795   0.00000  Uiso   1.00
H1119  H     0.40183   0.80175   0.95367   0.00000  Uiso   1.00
O1120  O     0.11554   0.67649   0.88268   0.00000  Uiso   1.00
C1121  C     0.12762   0.69229   0.93024   0.00000  Uiso   1.00
H1122  H     0.14811   0.72565   0.92923   0.00000  Uiso   1.00
H1123  H     0.14768   0.66364   0.94798   0.00000  Uiso   1.00
H1124  H     0.09818   0.69826   0.95370   0.00000  Uiso   1.00
O1125  O     0.18667   0.52739   0.88669   0.00000  Uiso   1.00
C1126  C     0.14375   0.54652   0.88123   0.00000  Uiso   1.00
H1127  H     0.13655   0.55780   0.84268   0.00000  Uiso   1.00
H1128  H     0.13851   0.57701   0.90715   0.00000  Uiso   1.00
H1129  H     0.11962   0.51792   0.89097   0.00000  Uiso   1.00
O1130  O     0.18682   0.97257   0.77974   0.00000  Uiso   1.00
C1131  C     0.14382   0.95377   0.78563   0.00000  Uiso   1.00
H1132  H     0.13669   0.94302   0.82438   0.00000  Uiso   1.00
H1133  H     0.13832   0.92297   0.76015   0.00000  Uiso   1.00
H1134  H     0.11981   0.98240   0.77562   0.00000  Uiso   1.00
O1135  O     0.31333   0.52737   0.77999   0.00000  Uiso   1.00
C1136  C     0.35622   0.54667   0.78513   0.00000  Uiso   1.00
H1137  H     0.36354   0.55815   0.82360   0.00000  Uiso   1.00
H1138  H     0.36128   0.57706   0.75904   0.00000  Uiso   1.00
H1139  H     0.38040   0.51811   0.77541   0.00000  Uiso   1.00
O1140  O     0.31315   0.97250   0.88700   0.00000  Uiso   1.00
C1141  C     0.35622   0.95404   0.88057   0.00000  Uiso   1.00
H1142  H     0.36320   0.94389   0.84161   0.00000  Uiso   1.00
H1143  H     0.36201   0.92290   0.90556   0.00000  Uiso   1.00
H1144  H     0.38014   0.98268   0.89086   0.00000  Uiso   1.00
O1145  O     0.68573   0.79071   0.83334   0.00000  Uiso   1.00
O1146  O     0.81427   0.70928   0.83333   0.00000  Uiso   1.00
O1147  O     0.81427   0.79071   0.83333   0.00000  Uiso   1.00
O1148  O     0.68573   0.70928   0.83334   0.00000  Uiso   1.00
C1149  C     0.66492   0.75000   0.83334   0.00000  Uiso   1.00
C1150  C     0.83508   0.75000   0.83333   0.00000  Uiso   1.00
O1151  O     0.75000   0.79071   0.76280   0.00000  Uiso   1.00
O1152  O     0.75000   0.70929   0.90387   0.00000  Uiso   1.00
O1153  O     0.75000   0.79071   0.90387   0.00000  Uiso   1.00
O1154  O     0.75000   0.70929   0.76280   0.00000  Uiso   1.00
C1155  C     0.71731   0.55331   0.85920   0.00000  Uiso   1.00
C1156  C     0.71738   0.94669   0.80737   0.00000  Uiso   1.00
C1157  C     0.78271   0.55331   0.80747   0.00000  Uiso   1.00
C1158  C     0.78261   0.94667   0.85932   0.00000  Uiso   1.00
C1159  C     0.75000   0.75000   0.74016   0.00000  Uiso   1.00
C1160  C     0.75000   0.75000   0.92651   0.00000  Uiso   1.00
Cu1161 Cu    0.75000   0.79821   0.83333   0.00000  Uiso   1.00
Cu1162 Cu    0.75000   0.70178   0.83333   0.00000  Uiso   1.00
H1163  H     0.69587   0.62517   0.88146   0.00000  Uiso   1.00
H1164  H     0.69597   0.87485   0.78503   0.00000  Uiso   1.00
H1165  H     0.80412   0.62519   0.78520   0.00000  Uiso   1.00
H1166  H     0.80402   0.87486   0.88165   0.00000  Uiso   1.00
N1167  N     0.75000   0.62934   0.83333   0.00000  Uiso   1.00
N1168  N     0.75000   0.87065   0.83333   0.00000  Uiso   1.00
C1169  C     0.75001   0.52733   0.83335   0.00000  Uiso   1.00
C1170  C     0.75000   0.97268   0.83334   0.00000  Uiso   1.00
C1171  C     0.75000   0.75000   0.68851   0.00000  Uiso   1.00
C1172  C     0.75000   0.75000   0.97815   0.00000  Uiso   1.00
C1173  C     0.54727   0.78708   0.80852   0.00000  Uiso   1.00
C1174  C     0.95273   0.71291   0.80852   0.00000  Uiso   1.00
C1175  C     0.95274   0.78708   0.85812   0.00000  Uiso   1.00
C1176  C     0.54727   0.71290   0.85811   0.00000  Uiso   1.00
C1177  C     0.59338   0.78650   0.80781   0.00000  Uiso   1.00
C1178  C     0.90662   0.71350   0.80779   0.00000  Uiso   1.00
C1179  C     0.90663   0.78650   0.85884   0.00000  Uiso   1.00
C1180  C     0.59338   0.71349   0.85885   0.00000  Uiso   1.00
C1181  C     0.61657   0.75000   0.83333   0.00000  Uiso   1.00
C1182  C     0.88343   0.75000   0.83332   0.00000  Uiso   1.00
C1183  C     0.52416   0.74999   0.83331   0.00000  Uiso   1.00
C1184  C     0.97584   0.74999   0.83332   0.00000  Uiso   1.00
C1185  C     0.71909   0.60470   0.85974   0.00000  Uiso   1.00
C1186  C     0.71915   0.89530   0.80684   0.00000  Uiso   1.00
C1187  C     0.78092   0.60471   0.80693   0.00000  Uiso   1.00
C1188  C     0.78085   0.89530   0.85983   0.00000  Uiso   1.00
O1189  O     0.52565   0.82653   0.78820   0.00000  Uiso   1.00
C1190  C     0.50590   0.81369   0.74297   0.00000  Uiso   1.00
H1191  H     0.97144   0.80156   0.74899   0.00000  Uiso   1.00
H1192  H     0.52449   0.78569   0.72211   0.00000  Uiso   1.00
H1193  H     0.50445   0.84638   0.71937   0.00000  Uiso   1.00
O1194  O     0.97435   0.67346   0.78819   0.00000  Uiso   1.00
C1195  C     0.99409   0.68630   0.74296   0.00000  Uiso   1.00
H1196  H     0.52855   0.69843   0.74898   0.00000  Uiso   1.00
H1197  H     0.97550   0.71430   0.72210   0.00000  Uiso   1.00
H1198  H     0.99554   0.65361   0.71936   0.00000  Uiso   1.00
O1199  O     0.97437   0.82652   0.87843   0.00000  Uiso   1.00
C1200  C     0.99412   0.81368   0.92367   0.00000  Uiso   1.00
H1201  H     0.52857   0.80155   0.91764   0.00000  Uiso   1.00
H1202  H     0.97553   0.78568   0.94453   0.00000  Uiso   1.00
H1203  H     0.99557   0.84637   0.94727   0.00000  Uiso   1.00
O1204  O     0.52564   0.67345   0.87843   0.00000  Uiso   1.00
C1205  C     0.50589   0.68628   0.92366   0.00000  Uiso   1.00
H1206  H     0.97143   0.69841   0.91764   0.00000  Uiso   1.00
H1207  H     0.52448   0.71428   0.94453   0.00000  Uiso   1.00
H1208  H     0.50444   0.65358   0.94726   0.00000  Uiso   1.00
O1209  O     0.61555   0.82351   0.78399   0.00000  Uiso   1.00
C1210  C     0.62763   0.80772   0.73643   0.00000  Uiso   1.00
H1211  H     0.64815   0.77439   0.73743   0.00000  Uiso   1.00
H1212  H     0.64766   0.83640   0.71868   0.00000  Uiso   1.00
H1213  H     0.59819   0.80172   0.71297   0.00000  Uiso   1.00
O1214  O     0.88445   0.67651   0.78394   0.00000  Uiso   1.00
C1215  C     0.87237   0.69234   0.73640   0.00000  Uiso   1.00
H1216  H     0.85193   0.72573   0.73740   0.00000  Uiso   1.00
H1217  H     0.85225   0.66373   0.71867   0.00000  Uiso   1.00
H1218  H     0.90180   0.69825   0.71292   0.00000  Uiso   1.00
O1219  O     0.88447   0.82352   0.88265   0.00000  Uiso   1.00
C1220  C     0.87239   0.80775   0.93021   0.00000  Uiso   1.00
H1221  H     0.85186   0.77442   0.92923   0.00000  Uiso   1.00
H1222  H     0.85238   0.83644   0.94795   0.00000  Uiso   1.00
H1223  H     0.90183   0.80175   0.95367   0.00000  Uiso   1.00
O1224  O     0.61554   0.67649   0.88268   0.00000  Uiso   1.00
C1225  C     0.62762   0.69229   0.93024   0.00000  Uiso   1.00
H1226  H     0.64811   0.72565   0.92923   0.00000  Uiso   1.00
H1227  H     0.64768   0.66364   0.94798   0.00000  Uiso   1.00
H1228  H     0.59818   0.69826   0.95370   0.00000  Uiso   1.00
O1229  O     0.68667   0.52739   0.88669   0.00000  Uiso   1.00
C1230  C     0.64375   0.54652   0.88123   0.00000  Uiso   1.00
H1231  H     0.63655   0.55780   0.84268   0.00000  Uiso   1.00
H1232  H     0.63851   0.57701   0.90715   0.00000  Uiso   1.00
H1233  H     0.61962   0.51792   0.89097   0.00000  Uiso   1.00
O1234  O     0.68682   0.97257   0.77974   0.00000  Uiso   1.00
C1235  C     0.64382   0.95377   0.78563   0.00000  Uiso   1.00
H1236  H     0.63669   0.94302   0.82438   0.00000  Uiso   1.00
H1237  H     0.63832   0.92297   0.76015   0.00000  Uiso   1.00
H1238  H     0.61981   0.98240   0.77562   0.00000  Uiso   1.00
O1239  O     0.81333   0.52737   0.77999   0.00000  Uiso   1.00
C1240  C     0.85622   0.54667   0.78513   0.00000  Uiso   1.00
H1241  H     0.86354   0.55815   0.82360   0.00000  Uiso   1.00
H1242  H     0.86128   0.57706   0.75904   0.00000  Uiso   1.00
H1243  H     0.88040   0.51811   0.77541   0.00000  Uiso   1.00
O1244  O     0.81315   0.97250   0.88700   0.00000  Uiso   1.00
C1245  C     0.85622   0.95404   0.88057   0.00000  Uiso   1.00
H1246  H     0.86320   0.94389   0.84161   0.00000  Uiso   1.00
H1247  H     0.86201   0.92290   0.90556   0.00000  Uiso   1.00
H1248  H     0.88014   0.98268   0.89086   0.00000  Uiso   1.00
loop_
_geom_bond_atom_site_label_1
_geom_bond_atom_site_label_2
_geom_bond_distance
_geom_bond_site_symmetry_2
_ccdc_geom_bond_type
O1     C5      1.290   .     A
O1     Cu17    1.959   .     S
O2     Cu18    1.959   .     S
O2     C6      1.290   .     A
O3     C6      1.290   .     A
O3     Cu17    1.959   .     S
O4     Cu18    1.959   .     S
O4     C5      1.290   .     A
C5     C37     1.465   .     S
C6     C38     1.465   .     S
O7     Cu17    1.928   .     S
O7     C15     1.283   .     A
O8     Cu18    1.928   .     S
O8     C16     1.283   .     A
O9     C16     1.283   .     A
O9     Cu17    1.928   .     S
O10    C15     1.283   .     A
O10    Cu18    1.928   .     S
C11    C25     1.411   .     A
C11    O85     1.391   .     S
C11    C41     1.422   .     A
C12    O90     1.390   .     S
C12    C42     1.422   .     A
C12    C26     1.411   .     A
C13    O95     1.391   .     S
C13    C25     1.412   .     A
C13    C43     1.422   .     A
C14    C26     1.411   .     A
C14    C44     1.422   .     A
C14    O100    1.390   .     S
C15    C27     1.403   .     S
C16    C28     1.403   .     S
Cu17   N24     2.003   .     S
Cu17   Cu18    2.666   .     S
Cu18   N23     2.003   .     S
H19    C41     1.079   .     S
H20    C42     1.079   .     S
H21    C43     1.079   .     S
H22    C44     1.079   .     S
N23    C43     1.363   .     A
N23    C41     1.363   .     A
N24    C42     1.363   .     A
N24    C44     1.363   .     A
C25    C234    1.511   1_545 S
C26    C233    1.511   .     S
C27    C860    1.187   1_554 S
C28    C443    1.187   .     S
C29    C33     1.398   .     A
C29    C39     1.413   .     A
C29    O45     1.387   .     S
C30    O50     1.387   .     S
C30    C34     1.398   .     A
C30    C40     1.413   .     A
C31    C40     1.413   .     A
C31    C35     1.398   .     A
C31    O55     1.387   .     S
C32    C36     1.398   .     A
C32    C39     1.413   .     A
C32    O60     1.387   .     S
C33    O65     1.385   .     S
C33    C37     1.412   .     A
C34    O70     1.385   .     S
C34    C38     1.412   .     A
C35    O75     1.385   .     S
C35    C38     1.412   .     A
C36    C37     1.412   .     A
C36    O80     1.385   .     S
C39    C144    1.465   1_455 S
C40    C143    1.465   .     S
O45    C46     1.412   .     S
C46    H49     1.109   .     S
C46    H48     1.113   .     S
C46    H151    1.109   1_455 S
H47    C150    1.109   .     S
O50    C51     1.412   .     S
C51    H53     1.113   .     S
C51    H54     1.109   .     S
C51    H156    1.109   .     S
H52    C155    1.109   1_455 S
O55    C56     1.412   .     S
C56    H59     1.109   .     S
C56    H58     1.113   .     S
C56    H161    1.109   .     S
H57    C160    1.109   1_455 S
O60    C61     1.412   .     S
C61    H63     1.113   .     S
C61    H64     1.109   .     S
C61    H166    1.109   1_455 S
H62    C165    1.109   .     S
O65    C66     1.412   .     S
C66    H68     1.109   .     S
C66    H69     1.109   .     S
C66    H67     1.112   .     S
O70    C71     1.412   .     S
C71    H73     1.109   .     S
C71    H74     1.109   .     S
C71    H72     1.112   .     S
O75    C76     1.412   .     S
C76    H79     1.109   .     S
C76    H78     1.109   .     S
C76    H77     1.112   .     S
O80    C81     1.412   .     S
C81    H82     1.112   .     S
C81    H83     1.109   .     S
C81    H84     1.109   .     S
O85    C86     1.412   .     S
C86    H88     1.110   .     S
C86    H87     1.115   .     S
C86    H89     1.109   .     S
O90    C91     1.412   .     S
C91    H92     1.115   .     S
C91    H93     1.110   .     S
C91    H94     1.109   .     S
O95    C96     1.412   .     S
C96    H99     1.109   .     S
C96    H98     1.110   .     S
C96    H97     1.115   .     S
O100   C101    1.412   .     S
C101   H102    1.116   .     S
C101   H103    1.111   .     S
C101   H104    1.110   .     S
O105   C109    1.290   .     A
O105   Cu121   1.959   .     S
O106   Cu122   1.959   .     S
O106   C110    1.290   .     A
O107   C110    1.290   .     A
O107   Cu121   1.959   .     S
O108   Cu122   1.959   .     S
O108   C109    1.290   .     A
C109   C141    1.465   .     S
C110   C142    1.465   .     S
O111   Cu121   1.928   .     S
O111   C119    1.283   .     A
O112   Cu122   1.928   .     S
O112   C120    1.283   .     A
O113   C120    1.283   .     A
O113   Cu121   1.928   .     S
O114   C119    1.283   .     A
O114   Cu122   1.928   .     S
C115   C129    1.411   .     A
C115   O189    1.391   .     S
C115   C145    1.422   .     A
C116   O194    1.390   .     S
C116   C146    1.422   .     A
C116   C130    1.411   .     A
C117   O199    1.391   .     S
C117   C129    1.412   .     A
C117   C147    1.422   .     A
C118   C130    1.411   .     A
C118   C148    1.422   .     A
C118   O204    1.390   .     S
C119   C131    1.403   .     S
C120   C132    1.403   .     S
Cu121  N128    2.003   .     S
Cu121  Cu122   2.666   .     S
Cu122  N127    2.003   .     S
H123   C145    1.079   .     S
H124   C146    1.079   .     S
H125   C147    1.079   .     S
H126   C148    1.079   .     S
N127   C147    1.363   .     A
N127   C145    1.363   .     A
N128   C146    1.363   .     A
N128   C148    1.363   .     A
C129   C338    1.511   1_545 S
C130   C337    1.511   .     S
C131   C964    1.187   1_554 S
C132   C547    1.187   .     S
C133   C137    1.398   .     A
C133   C143    1.413   .     A
C133   O149    1.387   .     S
C134   O154    1.387   .     S
C134   C138    1.398   .     A
C134   C144    1.413   .     A
C135   C144    1.413   .     A
C135   C139    1.398   .     A
C135   O159    1.387   .     S
C136   C140    1.398   .     A
C136   C143    1.413   .     A
C136   O164    1.387   .     S
C137   O169    1.385   .     S
C137   C141    1.412   .     A
C138   O174    1.385   .     S
C138   C142    1.412   .     A
C139   O179    1.385   .     S
C139   C142    1.412   .     A
C140   C141    1.412   .     A
C140   O184    1.385   .     S
C144   C39     1.465   1_655 S
O149   C150    1.412   .     S
C150   H153    1.109   .     S
C150   H152    1.113   .     S
H151   C46     1.109   1_655 S
O154   C155    1.412   .     S
C155   H157    1.113   .     S
C155   H158    1.109   .     S
C155   H52     1.109   1_655 S
O159   C160    1.412   .     S
C160   H163    1.109   .     S
C160   H162    1.113   .     S
C160   H57     1.109   1_655 S
O164   C165    1.412   .     S
C165   H167    1.113   .     S
C165   H168    1.109   .     S
H166   C61     1.109   1_655 S
O169   C170    1.412   .     S
C170   H172    1.109   .     S
C170   H173    1.109   .     S
C170   H171    1.112   .     S
O174   C175    1.412   .     S
C175   H177    1.109   .     S
C175   H178    1.109   .     S
C175   H176    1.112   .     S
O179   C180    1.412   .     S
C180   H183    1.109   .     S
C180   H182    1.109   .     S
C180   H181    1.112   .     S
O184   C185    1.412   .     S
C185   H186    1.112   .     S
C185   H187    1.109   .     S
C185   H188    1.109   .     S
O189   C190    1.412   .     S
C190   H192    1.110   .     S
C190   H191    1.115   .     S
C190   H193    1.109   .     S
O194   C195    1.412   .     S
C195   H196    1.115   .     S
C195   H197    1.110   .     S
C195   H198    1.109   .     S
O199   C200    1.412   .     S
C200   H203    1.109   .     S
C200   H202    1.110   .     S
C200   H201    1.115   .     S
O204   C205    1.412   .     S
C205   H206    1.116   .     S
C205   H207    1.111   .     S
C205   H208    1.110   .     S
O209   C213    1.290   .     A
O209   Cu225   1.959   .     S
O210   Cu226   1.959   .     S
O210   C214    1.290   .     A
O211   C214    1.290   .     A
O211   Cu225   1.959   .     S
O212   Cu226   1.959   .     S
O212   C213    1.290   .     A
C213   C245    1.465   .     S
C214   C246    1.465   .     S
O215   Cu225   1.928   .     S
O215   C223    1.283   .     A
O216   Cu226   1.928   .     S
O216   C224    1.283   .     A
O217   C224    1.283   .     A
O217   Cu225   1.928   .     S
O218   C223    1.283   .     A
O218   Cu226   1.928   .     S
C219   C233    1.411   .     A
C219   O293    1.391   .     S
C219   C249    1.422   .     A
C220   O298    1.390   .     S
C220   C250    1.422   .     A
C220   C234    1.411   .     A
C221   O303    1.391   .     S
C221   C233    1.412   .     A
C221   C251    1.422   .     A
C222   C234    1.411   .     A
C222   C252    1.422   .     A
C222   O308    1.390   .     S
C223   C235    1.403   .     S
C224   C236    1.403   .     S
Cu225  N232    2.003   .     S
Cu225  Cu226   2.666   .     S
Cu226  N231    2.003   .     S
H227   C249    1.079   .     S
H228   C250    1.079   .     S
H229   C251    1.079   .     S
H230   C252    1.079   .     S
N231   C251    1.363   .     A
N231   C249    1.363   .     A
N232   C250    1.363   .     A
N232   C252    1.363   .     A
C234   C25     1.511   1_565 S
C235   C1068   1.187   1_554 S
C236   C651    1.187   .     S
C237   C241    1.398   .     A
C237   C247    1.413   .     A
C237   O253    1.387   .     S
C238   O258    1.387   .     S
C238   C242    1.398   .     A
C238   C248    1.413   .     A
C239   C248    1.413   .     A
C239   C243    1.398   .     A
C239   O263    1.387   .     S
C240   C244    1.398   .     A
C240   C247    1.413   .     A
C240   O268    1.387   .     S
C241   O273    1.385   .     S
C241   C245    1.412   .     A
C242   O278    1.385   .     S
C242   C246    1.412   .     A
C243   O283    1.385   .     S
C243   C246    1.412   .     A
C244   C245    1.412   .     A
C244   O288    1.385   .     S
C247   C352    1.465   1_455 S
C248   C351    1.465   .     S
O253   C254    1.412   .     S
C254   H257    1.109   .     S
C254   H256    1.113   .     S
C254   H359    1.109   1_455 S
H255   C358    1.109   .     S
O258   C259    1.412   .     S
C259   H261    1.113   .     S
C259   H262    1.109   .     S
C259   H364    1.109   .     S
H260   C363    1.109   1_455 S
O263   C264    1.412   .     S
C264   H267    1.109   .     S
C264   H266    1.113   .     S
C264   H369    1.109   .     S
H265   C368    1.109   1_455 S
O268   C269    1.412   .     S
C269   H271    1.113   .     S
C269   H272    1.109   .     S
C269   H374    1.109   1_455 S
H270   C373    1.109   .     S
O273   C274    1.412   .     S
C274   H276    1.109   .     S
C274   H277    1.109   .     S
C274   H275    1.112   .     S
O278   C279    1.412   .     S
C279   H281    1.109   .     S
C279   H282    1.109   .     S
C279   H280    1.112   .     S
O283   C284    1.412   .     S
C284   H287    1.109   .     S
C284   H286    1.109   .     S
C284   H285    1.112   .     S
O288   C289    1.412   .     S
C289   H290    1.112   .     S
C289   H291    1.109   .     S
C289   H292    1.109   .     S
O293   C294    1.412   .     S
C294   H296    1.110   .     S
C294   H295    1.115   .     S
C294   H297    1.109   .     S
O298   C299    1.412   .     S
C299   H300    1.115   .     S
C299   H301    1.110   .     S
C299   H302    1.109   .     S
O303   C304    1.412   .     S
C304   H307    1.109   .     S
C304   H306    1.110   .     S
C304   H305    1.115   .     S
O308   C309    1.412   .     S
C309   H310    1.116   .     S
C309   H311    1.111   .     S
C309   H312    1.110   .     S
O313   C317    1.290   .     A
O313   Cu329   1.959   .     S
O314   Cu330   1.959   .     S
O314   C318    1.290   .     A
O315   C318    1.290   .     A
O315   Cu329   1.959   .     S
O316   Cu330   1.959   .     S
O316   C317    1.290   .     A
C317   C349    1.465   .     S
C318   C350    1.465   .     S
O319   Cu329   1.928   .     S
O319   C327    1.283   .     A
O320   Cu330   1.928   .     S
O320   C328    1.283   .     A
O321   C328    1.283   .     A
O321   Cu329   1.928   .     S
O322   C327    1.283   .     A
O322   Cu330   1.928   .     S
C323   C337    1.411   .     A
C323   O397    1.391   .     S
C323   C353    1.422   .     A
C324   O402    1.390   .     S
C324   C354    1.422   .     A
C324   C338    1.411   .     A
C325   O407    1.391   .     S
C325   C337    1.412   .     A
C325   C355    1.422   .     A
C326   C338    1.411   .     A
C326   C356    1.422   .     A
C326   O412    1.390   .     S
C327   C339    1.403   .     S
C328   C340    1.403   .     S
Cu329  N336    2.003   .     S
Cu329  Cu330   2.666   .     S
Cu330  N335    2.003   .     S
H331   C353    1.079   .     S
H332   C354    1.079   .     S
H333   C355    1.079   .     S
H334   C356    1.079   .     S
N335   C355    1.363   .     A
N335   C353    1.363   .     A
N336   C354    1.363   .     A
N336   C356    1.363   .     A
C338   C129    1.511   1_565 S
C339   C1172   1.187   1_554 S
C340   C755    1.187   .     S
C341   C345    1.398   .     A
C341   C351    1.413   .     A
C341   O357    1.387   .     S
C342   O362    1.387   .     S
C342   C346    1.398   .     A
C342   C352    1.413   .     A
C343   C352    1.413   .     A
C343   C347    1.398   .     A
C343   O367    1.387   .     S
C344   C348    1.398   .     A
C344   C351    1.413   .     A
C344   O372    1.387   .     S
C345   O377    1.385   .     S
C345   C349    1.412   .     A
C346   O382    1.385   .     S
C346   C350    1.412   .     A
C347   O387    1.385   .     S
C347   C350    1.412   .     A
C348   C349    1.412   .     A
C348   O392    1.385   .     S
C352   C247    1.465   1_655 S
O357   C358    1.412   .     S
C358   H361    1.109   .     S
C358   H360    1.113   .     S
H359   C254    1.109   1_655 S
O362   C363    1.412   .     S
C363   H365    1.113   .     S
C363   H366    1.109   .     S
C363   H260    1.109   1_655 S
O367   C368    1.412   .     S
C368   H371    1.109   .     S
C368   H370    1.113   .     S
C368   H265    1.109   1_655 S
O372   C373    1.412   .     S
C373   H375    1.113   .     S
C373   H376    1.109   .     S
H374   C269    1.109   1_655 S
O377   C378    1.412   .     S
C378   H380    1.109   .     S
C378   H381    1.109   .     S
C378   H379    1.112   .     S
O382   C383    1.412   .     S
C383   H385    1.109   .     S
C383   H386    1.109   .     S
C383   H384    1.112   .     S
O387   C388    1.412   .     S
C388   H391    1.109   .     S
C388   H390    1.109   .     S
C388   H389    1.112   .     S
O392   C393    1.412   .     S
C393   H394    1.112   .     S
C393   H395    1.109   .     S
C393   H396    1.109   .     S
O397   C398    1.412   .     S
C398   H400    1.110   .     S
C398   H399    1.115   .     S
C398   H401    1.109   .     S
O402   C403    1.412   .     S
C403   H404    1.115   .     S
C403   H405    1.110   .     S
C403   H406    1.109   .     S
O407   C408    1.412   .     S
C408   H411    1.109   .     S
C408   H410    1.110   .     S
C408   H409    1.115   .     S
O412   C413    1.412   .     S
C413   H414    1.116   .     S
C413   H415    1.111   .     S
C413   H416    1.110   .     S
O417   C421    1.290   .     A
O417   Cu433   1.959   .     S
O418   Cu434   1.959   .     S
O418   C422    1.290   .     A
O419   C422    1.290   .     A
O419   Cu433   1.959   .     S
O420   Cu434   1.959   .     S
O420   C421    1.290   .     A
C421   C453    1.465   .     S
C422   C454    1.465   .     S
O423   Cu433   1.928   .     S
O423   C431    1.283   .     A
O424   Cu434   1.928   .     S
O424   C432    1.283   .     A
O425   C432    1.283   .     A
O425   Cu433   1.928   .     S
O426   C431    1.283   .     A
O426   Cu434   1.928   .     S
C427   C441    1.411   .     A
C427   O501    1.391   .     S
C427   C457    1.422   .     A
C428   O506    1.390   .     S
C428   C458    1.422   .     A
C428   C442    1.411   .     A
C429   O511    1.391   .     S
C429   C441    1.412   .     A
C429   C459    1.422   .     A
C430   C442    1.411   .     A
C430   C460    1.422   .     A
C430   O516    1.390   .     S
C431   C443    1.403   .     S
C432   C444    1.403   .     S
Cu433  N440    2.003   .     S
Cu433  Cu434   2.666   .     S
Cu434  N439    2.003   .     S
H435   C457    1.079   .     S
H436   C458    1.079   .     S
H437   C459    1.079   .     S
H438   C460    1.079   .     S
N439   C459    1.363   .     A
N439   C457    1.363   .     A
N440   C458    1.363   .     A
N440   C460    1.363   .     A
C441   C650    1.511   1_545 S
C442   C649    1.511   .     S
C444   C859    1.187   .     S
C445   C449    1.398   .     A
C445   C455    1.413   .     A
C445   O461    1.387   .     S
C446   O466    1.387   .     S
C446   C450    1.398   .     A
C446   C456    1.413   .     A
C447   C456    1.413   .     A
C447   C451    1.398   .     A
C447   O471    1.387   .     S
C448   C452    1.398   .     A
C448   C455    1.413   .     A
C448   O476    1.387   .     S
C449   O481    1.385   .     S
C449   C453    1.412   .     A
C450   O486    1.385   .     S
C450   C454    1.412   .     A
C451   O491    1.385   .     S
C451   C454    1.412   .     A
C452   C453    1.412   .     A
C452   O496    1.385   .     S
C455   C560    1.465   1_455 S
C456   C559    1.465   .     S
O461   C462    1.412   .     S
C462   H465    1.109   .     S
C462   H464    1.113   .     S
C462   H567    1.109   1_455 S
H463   C566    1.109   .     S
O466   C467    1.412   .     S
C467   H469    1.113   .     S
C467   H470    1.109   .     S
C467   H572    1.109   .     S
H468   C571    1.109   1_455 S
O471   C472    1.412   .     S
C472   H475    1.109   .     S
C472   H474    1.113   .     S
C472   H577    1.109   .     S
H473   C576    1.109   1_455 S
O476   C477    1.412   .     S
C477   H479    1.113   .     S
C477   H480    1.109   .     S
C477   H582    1.109   1_455 S
H478   C581    1.109   .     S
O481   C482    1.412   .     S
C482   H484    1.109   .     S
C482   H485    1.109   .     S
C482   H483    1.112   .     S
O486   C487    1.412   .     S
C487   H489    1.109   .     S
C487   H490    1.109   .     S
C487   H488    1.112   .     S
O491   C492    1.412   .     S
C492   H495    1.109   .     S
C492   H494    1.109   .     S
C492   H493    1.112   .     S
O496   C497    1.412   .     S
C497   H498    1.112   .     S
C497   H499    1.109   .     S
C497   H500    1.109   .     S
O501   C502    1.412   .     S
C502   H504    1.110   .     S
C502   H503    1.115   .     S
C502   H505    1.109   .     S
O506   C507    1.412   .     S
C507   H508    1.115   .     S
C507   H509    1.110   .     S
C507   H510    1.109   .     S
O511   C512    1.412   .     S
C512   H515    1.109   .     S
C512   H514    1.110   .     S
C512   H513    1.115   .     S
O516   C517    1.412   .     S
C517   H518    1.116   .     S
C517   H519    1.111   .     S
C517   H520    1.110   .     S
O521   C525    1.290   .     A
O521   Cu537   1.959   .     S
O522   Cu538   1.959   .     S
O522   C526    1.290   .     A
O523   C526    1.290   .     A
O523   Cu537   1.959   .     S
O524   Cu538   1.959   .     S
O524   C525    1.290   .     A
C525   C557    1.465   .     S
C526   C558    1.465   .     S
O527   Cu537   1.928   .     S
O527   C535    1.283   .     A
O528   Cu538   1.928   .     S
O528   C536    1.283   .     A
O529   C536    1.283   .     A
O529   Cu537   1.928   .     S
O530   C535    1.283   .     A
O530   Cu538   1.928   .     S
C531   C545    1.411   .     A
C531   O605    1.391   .     S
C531   C561    1.422   .     A
C532   O610    1.390   .     S
C532   C562    1.422   .     A
C532   C546    1.411   .     A
C533   O615    1.391   .     S
C533   C545    1.412   .     A
C533   C563    1.422   .     A
C534   C546    1.411   .     A
C534   C564    1.422   .     A
C534   O620    1.390   .     S
C535   C547    1.403   .     S
C536   C548    1.403   .     S
Cu537  N544    2.003   .     S
Cu537  Cu538   2.666   .     S
Cu538  N543    2.003   .     S
H539   C561    1.079   .     S
H540   C562    1.079   .     S
H541   C563    1.079   .     S
H542   C564    1.079   .     S
N543   C563    1.363   .     A
N543   C561    1.363   .     A
N544   C562    1.363   .     A
N544   C564    1.363   .     A
C545   C754    1.511   1_545 S
C546   C753    1.511   .     S
C548   C963    1.187   .     S
C549   C553    1.398   .     A
C549   C559    1.413   .     A
C549   O565    1.387   .     S
C550   O570    1.387   .     S
C550   C554    1.398   .     A
C550   C560    1.413   .     A
C551   C560    1.413   .     A
C551   C555    1.398   .     A
C551   O575    1.387   .     S
C552   C556    1.398   .     A
C552   C559    1.413   .     A
C552   O580    1.387   .     S
C553   O585    1.385   .     S
C553   C557    1.412   .     A
C554   O590    1.385   .     S
C554   C558    1.412   .     A
C555   O595    1.385   .     S
C555   C558    1.412   .     A
C556   C557    1.412   .     A
C556   O600    1.385   .     S
C560   C455    1.465   1_655 S
O565   C566    1.412   .     S
C566   H569    1.109   .     S
C566   H568    1.113   .     S
H567   C462    1.109   1_655 S
O570   C571    1.412   .     S
C571   H573    1.113   .     S
C571   H574    1.109   .     S
C571   H468    1.109   1_655 S
O575   C576    1.412   .     S
C576   H579    1.109   .     S
C576   H578    1.113   .     S
C576   H473    1.109   1_655 S
O580   C581    1.412   .     S
C581   H583    1.113   .     S
C581   H584    1.109   .     S
H582   C477    1.109   1_655 S
O585   C586    1.412   .     S
C586   H588    1.109   .     S
C586   H589    1.109   .     S
C586   H587    1.112   .     S
O590   C591    1.412   .     S
C591   H593    1.109   .     S
C591   H594    1.109   .     S
C591   H592    1.112   .     S
O595   C596    1.412   .     S
C596   H599    1.109   .     S
C596   H598    1.109   .     S
C596   H597    1.112   .     S
O600   C601    1.412   .     S
C601   H602    1.112   .     S
C601   H603    1.109   .     S
C601   H604    1.109   .     S
O605   C606    1.412   .     S
C606   H608    1.110   .     S
C606   H607    1.115   .     S
C606   H609    1.109   .     S
O610   C611    1.412   .     S
C611   H612    1.115   .     S
C611   H613    1.110   .     S
C611   H614    1.109   .     S
O615   C616    1.412   .     S
C616   H619    1.109   .     S
C616   H618    1.110   .     S
C616   H617    1.115   .     S
O620   C621    1.412   .     S
C621   H622    1.116   .     S
C621   H623    1.111   .     S
C621   H624    1.110   .     S
O625   C629    1.290   .     A
O625   Cu641   1.959   .     S
O626   Cu642   1.959   .     S
O626   C630    1.290   .     A
O627   C630    1.290   .     A
O627   Cu641   1.959   .     S
O628   Cu642   1.959   .     S
O628   C629    1.290   .     A
C629   C661    1.465   .     S
C630   C662    1.465   .     S
O631   Cu641   1.928   .     S
O631   C639    1.283   .     A
O632   Cu642   1.928   .     S
O632   C640    1.283   .     A
O633   C640    1.283   .     A
O633   Cu641   1.928   .     S
O634   C639    1.283   .     A
O634   Cu642   1.928   .     S
C635   C649    1.411   .     A
C635   O709    1.391   .     S
C635   C665    1.422   .     A
C636   O714    1.390   .     S
C636   C666    1.422   .     A
C636   C650    1.411   .     A
C637   O719    1.391   .     S
C637   C649    1.412   .     A
C637   C667    1.422   .     A
C638   C650    1.411   .     A
C638   C668    1.422   .     A
C638   O724    1.390   .     S
C639   C651    1.403   .     S
C640   C652    1.403   .     S
Cu641  N648    2.003   .     S
Cu641  Cu642   2.666   .     S
Cu642  N647    2.003   .     S
H643   C665    1.079   .     S
H644   C666    1.079   .     S
H645   C667    1.079   .     S
H646   C668    1.079   .     S
N647   C667    1.363   .     A
N647   C665    1.363   .     A
N648   C666    1.363   .     A
N648   C668    1.363   .     A
C650   C441    1.511   1_565 S
C652   C1067   1.187   .     S
C653   C657    1.398   .     A
C653   C663    1.413   .     A
C653   O669    1.387   .     S
C654   O674    1.387   .     S
C654   C658    1.398   .     A
C654   C664    1.413   .     A
C655   C664    1.413   .     A
C655   C659    1.398   .     A
C655   O679    1.387   .     S
C656   C660    1.398   .     A
C656   C663    1.413   .     A
C656   O684    1.387   .     S
C657   O689    1.385   .     S
C657   C661    1.412   .     A
C658   O694    1.385   .     S
C658   C662    1.412   .     A
C659   O699    1.385   .     S
C659   C662    1.412   .     A
C660   C661    1.412   .     A
C660   O704    1.385   .     S
C663   C768    1.465   1_455 S
C664   C767    1.465   .     S
O669   C670    1.412   .     S
C670   H673    1.109   .     S
C670   H672    1.113   .     S
C670   H775    1.109   1_455 S
H671   C774    1.109   .     S
O674   C675    1.412   .     S
C675   H677    1.113   .     S
C675   H678    1.109   .     S
C675   H780    1.109   .     S
H676   C779    1.109   1_455 S
O679   C680    1.412   .     S
C680   H683    1.109   .     S
C680   H682    1.113   .     S
C680   H785    1.109   .     S
H681   C784    1.109   1_455 S
O684   C685    1.412   .     S
C685   H687    1.113   .     S
C685   H688    1.109   .     S
C685   H790    1.109   1_455 S
H686   C789    1.109   .     S
O689   C690    1.412   .     S
C690   H692    1.109   .     S
C690   H693    1.109   .     S
C690   H691    1.112   .     S
O694   C695    1.412   .     S
C695   H697    1.109   .     S
C695   H698    1.109   .     S
C695   H696    1.112   .     S
O699   C700    1.412   .     S
C700   H703    1.109   .     S
C700   H702    1.109   .     S
C700   H701    1.112   .     S
O704   C705    1.412   .     S
C705   H706    1.112   .     S
C705   H707    1.109   .     S
C705   H708    1.109   .     S
O709   C710    1.412   .     S
C710   H712    1.110   .     S
C710   H711    1.115   .     S
C710   H713    1.109   .     S
O714   C715    1.412   .     S
C715   H716    1.115   .     S
C715   H717    1.110   .     S
C715   H718    1.109   .     S
O719   C720    1.412   .     S
C720   H723    1.109   .     S
C720   H722    1.110   .     S
C720   H721    1.115   .     S
O724   C725    1.412   .     S
C725   H726    1.116   .     S
C725   H727    1.111   .     S
C725   H728    1.110   .     S
O729   C733    1.290   .     A
O729   Cu745   1.959   .     S
O730   Cu746   1.959   .     S
O730   C734    1.290   .     A
O731   C734    1.290   .     A
O731   Cu745   1.959   .     S
O732   Cu746   1.959   .     S
O732   C733    1.290   .     A
C733   C765    1.465   .     S
C734   C766    1.465   .     S
O735   Cu745   1.928   .     S
O735   C743    1.283   .     A
O736   Cu746   1.928   .     S
O736   C744    1.283   .     A
O737   C744    1.283   .     A
O737   Cu745   1.928   .     S
O738   C743    1.283   .     A
O738   Cu746   1.928   .     S
C739   C753    1.411   .     A
C739   O813    1.391   .     S
C739   C769    1.422   .     A
C740   O818    1.390   .     S
C740   C770    1.422   .     A
C740   C754    1.411   .     A
C741   O823    1.391   .     S
C741   C753    1.412   .     A
C741   C771    1.422   .     A
C742   C754    1.411   .     A
C742   C772    1.422   .     A
C742   O828    1.390   .     S
C743   C755    1.403   .     S
C744   C756    1.403   .     S
Cu745  N752    2.003   .     S
Cu745  Cu746   2.666   .     S
Cu746  N751    2.003   .     S
H747   C769    1.079   .     S
H748   C770    1.079   .     S
H749   C771    1.079   .     S
H750   C772    1.079   .     S
N751   C771    1.363   .     A
N751   C769    1.363   .     A
N752   C770    1.363   .     A
N752   C772    1.363   .     A
C754   C545    1.511   1_565 S
C756   C1171   1.187   .     S
C757   C761    1.398   .     A
C757   C767    1.413   .     A
C757   O773    1.387   .     S
C758   O778    1.387   .     S
C758   C762    1.398   .     A
C758   C768    1.413   .     A
C759   C768    1.413   .     A
C759   C763    1.398   .     A
C759   O783    1.387   .     S
C760   C764    1.398   .     A
C760   C767    1.413   .     A
C760   O788    1.387   .     S
C761   O793    1.385   .     S
C761   C765    1.412   .     A
C762   O798    1.385   .     S
C762   C766    1.412   .     A
C763   O803    1.385   .     S
C763   C766    1.412   .     A
C764   C765    1.412   .     A
C764   O808    1.385   .     S
C768   C663    1.465   1_655 S
O773   C774    1.412   .     S
C774   H777    1.109   .     S
C774   H776    1.113   .     S
H775   C670    1.109   1_655 S
O778   C779    1.412   .     S
C779   H781    1.113   .     S
C779   H782    1.109   .     S
C779   H676    1.109   1_655 S
O783   C784    1.412   .     S
C784   H787    1.109   .     S
C784   H786    1.113   .     S
C784   H681    1.109   1_655 S
O788   C789    1.412   .     S
C789   H791    1.113   .     S
C789   H792    1.109   .     S
H790   C685    1.109   1_655 S
O793   C794    1.412   .     S
C794   H796    1.109   .     S
C794   H797    1.109   .     S
C794   H795    1.112   .     S
O798   C799    1.412   .     S
C799   H801    1.109   .     S
C799   H802    1.109   .     S
C799   H800    1.112   .     S
O803   C804    1.412   .     S
C804   H807    1.109   .     S
C804   H806    1.109   .     S
C804   H805    1.112   .     S
O808   C809    1.412   .     S
C809   H810    1.112   .     S
C809   H811    1.109   .     S
C809   H812    1.109   .     S
O813   C814    1.412   .     S
C814   H816    1.110   .     S
C814   H815    1.115   .     S
C814   H817    1.109   .     S
O818   C819    1.412   .     S
C819   H820    1.115   .     S
C819   H821    1.110   .     S
C819   H822    1.109   .     S
O823   C824    1.412   .     S
C824   H827    1.109   .     S
C824   H826    1.110   .     S
C824   H825    1.115   .     S
O828   C829    1.412   .     S
C829   H830    1.116   .     S
C829   H831    1.111   .     S
C829   H832    1.110   .     S
O833   C837    1.290   .     A
O833   Cu849   1.959   .     S
O834   Cu850   1.959   .     S
O834   C838    1.290   .     A
O835   C838    1.290   .     A
O835   Cu849   1.959   .     S
O836   Cu850   1.959   .     S
O836   C837    1.290   .     A
C837   C869    1.465   .     S
C838   C870    1.465   .     S
O839   Cu849   1.928   .     S
O839   C847    1.283   .     A
O840   Cu850   1.928   .     S
O840   C848    1.283   .     A
O841   C848    1.283   .     A
O841   Cu849   1.928   .     S
O842   C847    1.283   .     A
O842   Cu850   1.928   .     S
C843   C857    1.411   .     A
C843   O917    1.391   .     S
C843   C873    1.422   .     A
C844   O922    1.390   .     S
C844   C874    1.422   .     A
C844   C858    1.411   .     A
C845   O927    1.391   .     S
C845   C857    1.412   .     A
C845   C875    1.422   .     A
C846   C858    1.411   .     A
C846   C876    1.422   .     A
C846   O932    1.390   .     S
C847   C859    1.403   .     S
C848   C860    1.403   .     S
Cu849  N856    2.003   .     S
Cu849  Cu850   2.666   .     S
Cu850  N855    2.003   .     S
H851   C873    1.079   .     S
H852   C874    1.079   .     S
H853   C875    1.079   .     S
H854   C876    1.079   .     S
N855   C875    1.363   .     A
N855   C873    1.363   .     A
N856   C874    1.363   .     A
N856   C876    1.363   .     A
C857   C1066   1.511   1_545 S
C858   C1065   1.511   .     S
C860   C27     1.187   1_556 S
C861   C865    1.398   .     A
C861   C871    1.413   .     A
C861   O877    1.387   .     S
C862   O882    1.387   .     S
C862   C866    1.398   .     A
C862   C872    1.413   .     A
C863   C872    1.413   .     A
C863   C867    1.398   .     A
C863   O887    1.387   .     S
C864   C868    1.398   .     A
C864   C871    1.413   .     A
C864   O892    1.387   .     S
C865   O897    1.385   .     S
C865   C869    1.412   .     A
C866   O902    1.385   .     S
C866   C870    1.412   .     A
C867   O907    1.385   .     S
C867   C870    1.412   .     A
C868   C869    1.412   .     A
C868   O912    1.385   .     S
C871   C976    1.465   1_455 S
C872   C975    1.465   .     S
O877   C878    1.412   .     S
C878   H881    1.109   .     S
C878   H880    1.113   .     S
C878   H983    1.109   1_455 S
H879   C982    1.109   .     S
O882   C883    1.412   .     S
C883   H885    1.113   .     S
C883   H886    1.109   .     S
C883   H988    1.109   .     S
H884   C987    1.109   1_455 S
O887   C888    1.412   .     S
C888   H891    1.109   .     S
C888   H890    1.113   .     S
C888   H993    1.109   .     S
H889   C992    1.109   1_455 S
O892   C893    1.412   .     S
C893   H895    1.113   .     S
C893   H896    1.109   .     S
C893   H998    1.109   1_455 S
H894   C997    1.109   .     S
O897   C898    1.412   .     S
C898   H900    1.109   .     S
C898   H901    1.109   .     S
C898   H899    1.112   .     S
O902   C903    1.412   .     S
C903   H905    1.109   .     S
C903   H906    1.109   .     S
C903   H904    1.112   .     S
O907   C908    1.412   .     S
C908   H911    1.109   .     S
C908   H910    1.109   .     S
C908   H909    1.112   .     S
O912   C913    1.412   .     S
C913   H914    1.112   .     S
C913   H915    1.109   .     S
C913   H916    1.109   .     S
O917   C918    1.412   .     S
C918   H920    1.110   .     S
C918   H919    1.115   .     S
C918   H921    1.109   .     S
O922   C923    1.412   .     S
C923   H924    1.115   .     S
C923   H925    1.110   .     S
C923   H926    1.109   .     S
O927   C928    1.412   .     S
C928   H931    1.109   .     S
C928   H930    1.110   .     S
C928   H929    1.115   .     S
O932   C933    1.412   .     S
C933   H934    1.116   .     S
C933   H935    1.111   .     S
C933   H936    1.110   .     S
O937   C941    1.290   .     A
O937   Cu953   1.959   .     S
O938   Cu954   1.959   .     S
O938   C942    1.290   .     A
O939   C942    1.290   .     A
O939   Cu953   1.959   .     S
O940   Cu954   1.959   .     S
O940   C941    1.290   .     A
C941   C973    1.465   .     S
C942   C974    1.465   .     S
O943   Cu953   1.928   .     S
O943   C951    1.283   .     A
O944   Cu954   1.928   .     S
O944   C952    1.283   .     A
O945   C952    1.283   .     A
O945   Cu953   1.928   .     S
O946   C951    1.283   .     A
O946   Cu954   1.928   .     S
C947   C961    1.411   .     A
C947   O1021   1.391   .     S
C947   C977    1.422   .     A
C948   O1026   1.390   .     S
C948   C978    1.422   .     A
C948   C962    1.411   .     A
C949   O1031   1.391   .     S
C949   C961    1.412   .     A
C949   C979    1.422   .     A
C950   C962    1.411   .     A
C950   C980    1.422   .     A
C950   O1036   1.390   .     S
C951   C963    1.403   .     S
C952   C964    1.403   .     S
Cu953  N960    2.003   .     S
Cu953  Cu954   2.666   .     S
Cu954  N959    2.003   .     S
H955   C977    1.079   .     S
H956   C978    1.079   .     S
H957   C979    1.079   .     S
H958   C980    1.079   .     S
N959   C979    1.363   .     A
N959   C977    1.363   .     A
N960   C978    1.363   .     A
N960   C980    1.363   .     A
C961   C1170   1.511   1_545 S
C962   C1169   1.511   .     S
C964   C131    1.187   1_556 S
C965   C969    1.398   .     A
C965   C975    1.413   .     A
C965   O981    1.387   .     S
C966   O986    1.387   .     S
C966   C970    1.398   .     A
C966   C976    1.413   .     A
C967   C976    1.413   .     A
C967   C971    1.398   .     A
C967   O991    1.387   .     S
C968   C972    1.398   .     A
C968   C975    1.413   .     A
C968   O996    1.387   .     S
C969   O1001   1.385   .     S
C969   C973    1.412   .     A
C970   O1006   1.385   .     S
C970   C974    1.412   .     A
C971   O1011   1.385   .     S
C971   C974    1.412   .     A
C972   C973    1.412   .     A
C972   O1016   1.385   .     S
C976   C871    1.465   1_655 S
O981   C982    1.412   .     S
C982   H985    1.109   .     S
C982   H984    1.113   .     S
H983   C878    1.109   1_655 S
O986   C987    1.412   .     S
C987   H989    1.113   .     S
C987   H990    1.109   .     S
C987   H884    1.109   1_655 S
O991   C992    1.412   .     S
C992   H995    1.109   .     S
C992   H994    1.113   .     S
C992   H889    1.109   1_655 S
O996   C997    1.412   .     S
C997   H999    1.113   .     S
C997   H1000   1.109   .     S
H998   C893    1.109   1_655 S
O1001  C1002   1.412   .     S
C1002  H1004   1.109   .     S
C1002  H1005   1.109   .     S
C1002  H1003   1.112   .     S
O1006  C1007   1.412   .     S
C1007  H1009   1.109   .     S
C1007  H1010   1.109   .     S
C1007  H1008   1.112   .     S
O1011  C1012   1.412   .     S
C1012  H1015   1.109   .     S
C1012  H1014   1.109   .     S
C1012  H1013   1.112   .     S
O1016  C1017   1.412   .     S
C1017  H1018   1.112   .     S
C1017  H1019   1.109   .     S
C1017  H1020   1.109   .     S
O1021  C1022   1.412   .     S
C1022  H1024   1.110   .     S
C1022  H1023   1.115   .     S
C1022  H1025   1.109   .     S
O1026  C1027   1.412   .     S
C1027  H1028   1.115   .     S
C1027  H1029   1.110   .     S
C1027  H1030   1.109   .     S
O1031  C1032   1.412   .     S
C1032  H1035   1.109   .     S
C1032  H1034   1.110   .     S
C1032  H1033   1.115   .     S
O1036  C1037   1.412   .     S
C1037  H1038   1.116   .     S
C1037  H1039   1.111   .     S
C1037  H1040   1.110   .     S
O1041  C1045   1.290   .     A
O1041  Cu1057  1.959   .     S
O1042  Cu1058  1.959   .     S
O1042  C1046   1.290   .     A
O1043  C1046   1.290   .     A
O1043  Cu1057  1.959   .     S
O1044  Cu1058  1.959   .     S
O1044  C1045   1.290   .     A
C1045  C1077   1.465   .     S
C1046  C1078   1.465   .     S
O1047  Cu1057  1.928   .     S
O1047  C1055   1.283   .     A
O1048  Cu1058  1.928   .     S
O1048  C1056   1.283   .     A
O1049  C1056   1.283   .     A
O1049  Cu1057  1.928   .     S
O1050  C1055   1.283   .     A
O1050  Cu1058  1.928   .     S
C1051  C1065   1.411   .     A
C1051  O1125   1.391   .     S
C1051  C1081   1.422   .     A
C1052  O1130   1.390   .     S
C1052  C1082   1.422   .     A
C1052  C1066   1.411   .     A
C1053  O1135   1.391   .     S
C1053  C1065   1.412   .     A
C1053  C1083   1.422   .     A
C1054  C1066   1.411   .     A
C1054  C1084   1.422   .     A
C1054  O1140   1.390   .     S
C1055  C1067   1.403   .     S
C1056  C1068   1.403   .     S
Cu1057 N1064   2.003   .     S
Cu1057 Cu1058  2.666   .     S
Cu1058 N1063   2.003   .     S
H1059  C1081   1.079   .     S
H1060  C1082   1.079   .     S
H1061  C1083   1.079   .     S
H1062  C1084   1.079   .     S
N1063  C1083   1.363   .     A
N1063  C1081   1.363   .     A
N1064  C1082   1.363   .     A
N1064  C1084   1.363   .     A
C1066  C857    1.511   1_565 S
C1068  C235    1.187   1_556 S
C1069  C1073   1.398   .     A
C1069  C1079   1.413   .     A
C1069  O1085   1.387   .     S
C1070  O1090   1.387   .     S
C1070  C1074   1.398   .     A
C1070  C1080   1.413   .     A
C1071  C1080   1.413   .     A
C1071  C1075   1.398   .     A
C1071  O1095   1.387   .     S
C1072  C1076   1.398   .     A
C1072  C1079   1.413   .     A
C1072  O1100   1.387   .     S
C1073  O1105   1.385   .     S
C1073  C1077   1.412   .     A
C1074  O1110   1.385   .     S
C1074  C1078   1.412   .     A
C1075  O1115   1.385   .     S
C1075  C1078   1.412   .     A
C1076  C1077   1.412   .     A
C1076  O1120   1.385   .     S
C1079  C1184   1.465   1_455 S
C1080  C1183   1.465   .     S
O1085  C1086   1.412   .     S
C1086  H1089   1.109   .     S
C1086  H1088   1.113   .     S
C1086  H1191   1.109   1_455 S
H1087  C1190   1.109   .     S
O1090  C1091   1.412   .     S
C1091  H1093   1.113   .     S
C1091  H1094   1.109   .     S
C1091  H1196   1.109   .     S
H1092  C1195   1.109   1_455 S
O1095  C1096   1.412   .     S
C1096  H1099   1.109   .     S
C1096  H1098   1.113   .     S
C1096  H1201   1.109   .     S
H1097  C1200   1.109   1_455 S
O1100  C1101   1.412   .     S
C1101  H1103   1.113   .     S
C1101  H1104   1.109   .     S
C1101  H1206   1.109   1_455 S
H1102  C1205   1.109   .     S
O1105  C1106   1.412   .     S
C1106  H1108   1.109   .     S
C1106  H1109   1.109   .     S
C1106  H1107   1.112   .     S
O1110  C1111   1.412   .     S
C1111  H1113   1.109   .     S
C1111  H1114   1.109   .     S
C1111  H1112   1.112   .     S
O1115  C1116   1.412   .     S
C1116  H1119   1.109   .     S
C1116  H1118   1.109   .     S
C1116  H1117   1.112   .     S
O1120  C1121   1.412   .     S
C1121  H1122   1.112   .     S
C1121  H1123   1.109   .     S
C1121  H1124   1.109   .     S
O1125  C1126   1.412   .     S
C1126  H1128   1.110   .     S
C1126  H1127   1.115   .     S
C1126  H1129   1.109   .     S
O1130  C1131   1.412   .     S
C1131  H1132   1.115   .     S
C1131  H1133   1.110   .     S
C1131  H1134   1.109   .     S
O1135  C1136   1.412   .     S
C1136  H1139   1.109   .     S
C1136  H1138   1.110   .     S
C1136  H1137   1.115   .     S
O1140  C1141   1.412   .     S
C1141  H1142   1.116   .     S
C1141  H1143   1.111   .     S
C1141  H1144   1.110   .     S
O1145  C1149   1.290   .     A
O1145  Cu1161  1.959   .     S
O1146  Cu1162  1.959   .     S
O1146  C1150   1.290   .     A
O1147  C1150   1.290   .     A
O1147  Cu1161  1.959   .     S
O1148  Cu1162  1.959   .     S
O1148  C1149   1.290   .     A
C1149  C1181   1.465   .     S
C1150  C1182   1.465   .     S
O1151  Cu1161  1.928   .     S
O1151  C1159   1.283   .     A
O1152  Cu1162  1.928   .     S
O1152  C1160   1.283   .     A
O1153  C1160   1.283   .     A
O1153  Cu1161  1.928   .     S
O1154  C1159   1.283   .     A
O1154  Cu1162  1.928   .     S
C1155  C1169   1.411   .     A
C1155  O1229   1.391   .     S
C1155  C1185   1.422   .     A
C1156  O1234   1.390   .     S
C1156  C1186   1.422   .     A
C1156  C1170   1.411   .     A
C1157  O1239   1.391   .     S
C1157  C1169   1.412   .     A
C1157  C1187   1.422   .     A
C1158  C1170   1.411   .     A
C1158  C1188   1.422   .     A
C1158  O1244   1.390   .     S
C1159  C1171   1.403   .     S
C1160  C1172   1.403   .     S
Cu1161 N1168   2.003   .     S
Cu1161 Cu1162  2.666   .     S
Cu1162 N1167   2.003   .     S
H1163  C1185   1.079   .     S
H1164  C1186   1.079   .     S
H1165  C1187   1.079   .     S
H1166  C1188   1.079   .     S
N1167  C1187   1.363   .     A
N1167  C1185   1.363   .     A
N1168  C1186   1.363   .     A
N1168  C1188   1.363   .     A
C1170  C961    1.511   1_565 S
C1172  C339    1.187   1_556 S
C1173  C1177   1.398   .     A
C1173  C1183   1.413   .     A
C1173  O1189   1.387   .     S
C1174  O1194   1.387   .     S
C1174  C1178   1.398   .     A
C1174  C1184   1.413   .     A
C1175  C1184   1.413   .     A
C1175  C1179   1.398   .     A
C1175  O1199   1.387   .     S
C1176  C1180   1.398   .     A
C1176  C1183   1.413   .     A
C1176  O1204   1.387   .     S
C1177  O1209   1.385   .     S
C1177  C1181   1.412   .     A
C1178  O1214   1.385   .     S
C1178  C1182   1.412   .     A
C1179  O1219   1.385   .     S
C1179  C1182   1.412   .     A
C1180  C1181   1.412   .     A
C1180  O1224   1.385   .     S
C1184  C1079   1.465   1_655 S
O1189  C1190   1.412   .     S
C1190  H1193   1.109   .     S
C1190  H1192   1.113   .     S
H1191  C1086   1.109   1_655 S
O1194  C1195   1.412   .     S
C1195  H1197   1.113   .     S
C1195  H1198   1.109   .     S
C1195  H1092   1.109   1_655 S
O1199  C1200   1.412   .     S
C1200  H1203   1.109   .     S
C1200  H1202   1.113   .     S
C1200  H1097   1.109   1_655 S
O1204  C1205   1.412   .     S
C1205  H1207   1.113   .     S
C1205  H1208   1.109   .     S
H1206  C1101   1.109   1_655 S
O1209  C1210   1.412   .     S
C1210  H1212   1.109   .     S
C1210  H1213   1.109   .     S
C1210  H1211   1.112   .     S
O1214  C1215   1.412   .     S
C1215  H1217   1.109   .     S
C1215  H1218   1.109   .     S
C1215  H1216   1.112   .     S
O1219  C1220   1.412   .     S
C1220  H1223   1.109   .     S
C1220  H1222   1.109   .     S
C1220  H1221   1.112   .     S
O1224  C1225   1.412   .     S
C1225  H1226   1.112   .     S
C1225  H1227   1.109   .     S
C1225  H1228   1.109   .     S
O1229  C1230   1.412   .     S
C1230  H1232   1.110   .     S
C1230  H1231   1.115   .     S
C1230  H1233   1.109   .     S
O1234  C1235   1.412   .     S
C1235  H1236   1.115   .     S
C1235  H1237   1.110   .     S
C1235  H1238   1.109   .     S
O1239  C1240   1.412   .     S
C1240  H1243   1.109   .     S
C1240  H1242   1.110   .     S
C1240  H1241   1.115   .     S
O1244  C1245   1.412   .     S
C1245  H1246   1.116   .     S
C1245  H1247   1.111   .     S
C1245  H1248   1.110   .     S
