data_str_m2_o5_o17_pcu_sym.23
_audit_creation_date              2020-01-03
_audit_creation_method            'Materials Studio'
_symmetry_space_group_name_H-M    'P1'
_symmetry_Int_Tables_number       1
_symmetry_cell_setting            triclinic
loop_
_symmetry_equiv_pos_as_xyz
  x,y,z
_cell_length_a                    30.1728
_cell_length_b                    27.2845
_cell_length_c                    23.3438
_cell_angle_alpha                 90.0077
_cell_angle_beta                  90.0807
_cell_angle_gamma                 90.0018
loop_
_atom_site_label
_atom_site_type_symbol
_atom_site_fract_x
_atom_site_fract_y
_atom_site_fract_z
_atom_site_U_iso_or_equiv
_atom_site_adp_type
_atom_site_occupancy
O1     O     0.25000   0.09613   0.21425   0.00000  Uiso   1.00
O2     O     0.25000   0.23720   0.11908   0.00000  Uiso   1.00
O3     O     0.25000   0.23720   0.21425   0.00000  Uiso   1.00
O4     O     0.25000   0.09613   0.11908   0.00000  Uiso   1.00
C5     C     0.25000   0.07334   0.16666   0.00000  Uiso   1.00
C6     C     0.25000   0.26000   0.16667   0.00000  Uiso   1.00
O7     O     0.18513   0.16667   0.21427   0.00000  Uiso   1.00
O8     O     0.31487   0.16667   0.11907   0.00000  Uiso   1.00
O9     O     0.31487   0.16667   0.21427   0.00000  Uiso   1.00
O10    O     0.18513   0.16667   0.11907   0.00000  Uiso   1.00
C11    C     0.16414   0.16662   0.16663   0.00000  Uiso   1.00
C12    C     0.33586   0.16672   0.16671   0.00000  Uiso   1.00
Cu13   Cu    0.25000   0.16667   0.22303   0.00000  Uiso   1.00
Cu14   Cu    0.25000   0.16667   0.11031   0.00000  Uiso   1.00
N15    N     0.25000   0.16667   0.02561   0.00000  Uiso   1.00
N16    N     0.25000   0.16667   0.30773   0.00000  Uiso   1.00
C17    C     0.40700   0.18692   0.12047   0.00000  Uiso   1.00
C18    C     0.09300   0.14636   0.21283   0.00000  Uiso   1.00
C19    C     0.40713   0.14684   0.21306   0.00000  Uiso   1.00
C20    C     0.09287   0.18650   0.12027   0.00000  Uiso   1.00
C21    C     0.38412   0.16684   0.16677   0.00000  Uiso   1.00
C22    C     0.11588   0.16648   0.16656   0.00000  Uiso   1.00
C23    C     0.45345   0.14595   0.21337   0.00000  Uiso   1.00
C24    C     0.04655   0.18736   0.11995   0.00000  Uiso   1.00
C25    C     0.45338   0.18775   0.11992   0.00000  Uiso   1.00
C26    C     0.04662   0.14552   0.21338   0.00000  Uiso   1.00
C27    C     0.47674   0.16677   0.16665   0.00000  Uiso   1.00
C28    C     0.02326   0.16654   0.16666   0.00000  Uiso   1.00
C29    C     0.47666   0.12425   0.25924   0.00000  Uiso   1.00
C30    C     0.02334   0.20900   0.07405   0.00000  Uiso   1.00
C31    C     0.47685   0.20922   0.07386   0.00000  Uiso   1.00
C32    C     0.02315   0.12400   0.25940   0.00000  Uiso   1.00
C33    C     0.25000   0.02179   0.16666   0.00000  Uiso   1.00
C34    C     0.25000   0.31154   0.16667   0.00000  Uiso   1.00
H35    H     0.38814   0.20249   0.08546   0.00000  Uiso   1.00
H36    H     0.11186   0.13078   0.24783   0.00000  Uiso   1.00
H37    H     0.38859   0.13123   0.24836   0.00000  Uiso   1.00
H38    H     0.11141   0.20212   0.08499   0.00000  Uiso   1.00
N39    N     0.45283   0.10163   0.30544   0.00000  Uiso   1.00
H40    H     0.46157   0.06456   0.30691   0.00000  Uiso   1.00
H41    H     0.46277   0.11789   0.01059   0.00000  Uiso   1.00
N42    N     0.04717   0.23152   0.02779   0.00000  Uiso   1.00
H43    H     0.03738   0.21502   0.32274   0.00000  Uiso   1.00
H44    H     0.03829   0.26853   0.02602   0.00000  Uiso   1.00
N45    N     0.45435   0.23183   0.02648   0.00000  Uiso   1.00
H46    H     0.43452   0.26029   0.04200   0.00000  Uiso   1.00
H47    H     0.43430   0.20575   0.00635   0.00000  Uiso   1.00
N48    N     0.04565   0.10126   0.30670   0.00000  Uiso   1.00
H49    H     0.06571   0.12729   0.32692   0.00000  Uiso   1.00
H50    H     0.06547   0.07283   0.29109   0.00000  Uiso   1.00
O51    O     0.75000   0.09613   0.21425   0.00000  Uiso   1.00
O52    O     0.75000   0.23720   0.11908   0.00000  Uiso   1.00
O53    O     0.75000   0.23720   0.21425   0.00000  Uiso   1.00
O54    O     0.75000   0.09613   0.11908   0.00000  Uiso   1.00
C55    C     0.75000   0.07334   0.16666   0.00000  Uiso   1.00
C56    C     0.75000   0.26000   0.16667   0.00000  Uiso   1.00
O57    O     0.68513   0.16667   0.21427   0.00000  Uiso   1.00
O58    O     0.81487   0.16667   0.11907   0.00000  Uiso   1.00
O59    O     0.81487   0.16667   0.21427   0.00000  Uiso   1.00
O60    O     0.68513   0.16667   0.11907   0.00000  Uiso   1.00
C61    C     0.66414   0.16662   0.16663   0.00000  Uiso   1.00
C62    C     0.83586   0.16672   0.16671   0.00000  Uiso   1.00
Cu63   Cu    0.75000   0.16667   0.22303   0.00000  Uiso   1.00
Cu64   Cu    0.75000   0.16667   0.11031   0.00000  Uiso   1.00
N65    N     0.75000   0.16667   0.02561   0.00000  Uiso   1.00
N66    N     0.75000   0.16667   0.30773   0.00000  Uiso   1.00
C67    C     0.90700   0.18692   0.12047   0.00000  Uiso   1.00
C68    C     0.59300   0.14636   0.21283   0.00000  Uiso   1.00
C69    C     0.90713   0.14684   0.21306   0.00000  Uiso   1.00
C70    C     0.59287   0.18650   0.12027   0.00000  Uiso   1.00
C71    C     0.88412   0.16684   0.16677   0.00000  Uiso   1.00
C72    C     0.61588   0.16648   0.16656   0.00000  Uiso   1.00
C73    C     0.95345   0.14595   0.21337   0.00000  Uiso   1.00
C74    C     0.54655   0.18736   0.11995   0.00000  Uiso   1.00
C75    C     0.95338   0.18775   0.11992   0.00000  Uiso   1.00
C76    C     0.54662   0.14552   0.21338   0.00000  Uiso   1.00
C77    C     0.97674   0.16677   0.16665   0.00000  Uiso   1.00
C78    C     0.52326   0.16654   0.16666   0.00000  Uiso   1.00
C79    C     0.97666   0.12425   0.25924   0.00000  Uiso   1.00
C80    C     0.52334   0.20900   0.07405   0.00000  Uiso   1.00
C81    C     0.97685   0.20922   0.07386   0.00000  Uiso   1.00
C82    C     0.52315   0.12400   0.25940   0.00000  Uiso   1.00
C83    C     0.75000   0.02179   0.16666   0.00000  Uiso   1.00
C84    C     0.75000   0.31154   0.16667   0.00000  Uiso   1.00
H85    H     0.88814   0.20249   0.08546   0.00000  Uiso   1.00
H86    H     0.61186   0.13078   0.24783   0.00000  Uiso   1.00
H87    H     0.88859   0.13123   0.24836   0.00000  Uiso   1.00
H88    H     0.61141   0.20212   0.08499   0.00000  Uiso   1.00
N89    N     0.95283   0.10163   0.30544   0.00000  Uiso   1.00
H90    H     0.96157   0.06456   0.30691   0.00000  Uiso   1.00
H91    H     0.96277   0.11789   0.01059   0.00000  Uiso   1.00
N92    N     0.54717   0.23152   0.02779   0.00000  Uiso   1.00
H93    H     0.53738   0.21502   0.32274   0.00000  Uiso   1.00
H94    H     0.53829   0.26853   0.02602   0.00000  Uiso   1.00
N95    N     0.95435   0.23183   0.02648   0.00000  Uiso   1.00
H96    H     0.93452   0.26029   0.04200   0.00000  Uiso   1.00
H97    H     0.93430   0.20575   0.00635   0.00000  Uiso   1.00
N98    N     0.54565   0.10126   0.30670   0.00000  Uiso   1.00
H99    H     0.56571   0.12729   0.32692   0.00000  Uiso   1.00
H100   H     0.56547   0.07283   0.29109   0.00000  Uiso   1.00
O101   O     0.25000   0.42946   0.21425   0.00000  Uiso   1.00
O102   O     0.25000   0.57054   0.11908   0.00000  Uiso   1.00
O103   O     0.25000   0.57054   0.21425   0.00000  Uiso   1.00
O104   O     0.25000   0.42946   0.11908   0.00000  Uiso   1.00
C105   C     0.25000   0.40667   0.16666   0.00000  Uiso   1.00
C106   C     0.25000   0.59333   0.16667   0.00000  Uiso   1.00
O107   O     0.18513   0.50000   0.21427   0.00000  Uiso   1.00
O108   O     0.31487   0.50000   0.11907   0.00000  Uiso   1.00
O109   O     0.31487   0.50000   0.21427   0.00000  Uiso   1.00
O110   O     0.18513   0.50000   0.11907   0.00000  Uiso   1.00
C111   C     0.16414   0.49995   0.16663   0.00000  Uiso   1.00
C112   C     0.33586   0.50005   0.16671   0.00000  Uiso   1.00
Cu113  Cu    0.25000   0.50000   0.22303   0.00000  Uiso   1.00
Cu114  Cu    0.25000   0.50000   0.11031   0.00000  Uiso   1.00
N115   N     0.25000   0.50000   0.02561   0.00000  Uiso   1.00
N116   N     0.25000   0.50000   0.30773   0.00000  Uiso   1.00
C117   C     0.40700   0.52026   0.12047   0.00000  Uiso   1.00
C118   C     0.09300   0.47969   0.21283   0.00000  Uiso   1.00
C119   C     0.40713   0.48017   0.21306   0.00000  Uiso   1.00
C120   C     0.09287   0.51983   0.12027   0.00000  Uiso   1.00
C121   C     0.38412   0.50018   0.16677   0.00000  Uiso   1.00
C122   C     0.11588   0.49982   0.16656   0.00000  Uiso   1.00
C123   C     0.45345   0.47928   0.21337   0.00000  Uiso   1.00
C124   C     0.04655   0.52070   0.11995   0.00000  Uiso   1.00
C125   C     0.45338   0.52108   0.11992   0.00000  Uiso   1.00
C126   C     0.04662   0.47886   0.21338   0.00000  Uiso   1.00
C127   C     0.47674   0.50010   0.16665   0.00000  Uiso   1.00
C128   C     0.02326   0.49987   0.16666   0.00000  Uiso   1.00
C129   C     0.47666   0.45759   0.25924   0.00000  Uiso   1.00
C130   C     0.02334   0.54233   0.07405   0.00000  Uiso   1.00
C131   C     0.47685   0.54255   0.07386   0.00000  Uiso   1.00
C132   C     0.02315   0.45733   0.25940   0.00000  Uiso   1.00
C133   C     0.25000   0.35512   0.16666   0.00000  Uiso   1.00
C134   C     0.25000   0.64488   0.16667   0.00000  Uiso   1.00
H135   H     0.38814   0.53582   0.08546   0.00000  Uiso   1.00
H136   H     0.11186   0.46411   0.24783   0.00000  Uiso   1.00
H137   H     0.38859   0.46456   0.24836   0.00000  Uiso   1.00
H138   H     0.11141   0.53546   0.08499   0.00000  Uiso   1.00
N139   N     0.45283   0.43496   0.30544   0.00000  Uiso   1.00
H140   H     0.46157   0.39789   0.30691   0.00000  Uiso   1.00
H141   H     0.46277   0.45122   0.01059   0.00000  Uiso   1.00
N142   N     0.04717   0.56486   0.02779   0.00000  Uiso   1.00
H143   H     0.03738   0.54836   0.32274   0.00000  Uiso   1.00
H144   H     0.03829   0.60187   0.02602   0.00000  Uiso   1.00
N145   N     0.45435   0.56517   0.02648   0.00000  Uiso   1.00
H146   H     0.43452   0.59362   0.04200   0.00000  Uiso   1.00
H147   H     0.43430   0.53909   0.00635   0.00000  Uiso   1.00
N148   N     0.04565   0.43459   0.30670   0.00000  Uiso   1.00
H149   H     0.06571   0.46062   0.32692   0.00000  Uiso   1.00
H150   H     0.06547   0.40616   0.29109   0.00000  Uiso   1.00
O151   O     0.75000   0.42946   0.21425   0.00000  Uiso   1.00
O152   O     0.75000   0.57054   0.11908   0.00000  Uiso   1.00
O153   O     0.75000   0.57054   0.21425   0.00000  Uiso   1.00
O154   O     0.75000   0.42946   0.11908   0.00000  Uiso   1.00
C155   C     0.75000   0.40667   0.16666   0.00000  Uiso   1.00
C156   C     0.75000   0.59333   0.16667   0.00000  Uiso   1.00
O157   O     0.68513   0.50000   0.21427   0.00000  Uiso   1.00
O158   O     0.81487   0.50000   0.11907   0.00000  Uiso   1.00
O159   O     0.81487   0.50000   0.21427   0.00000  Uiso   1.00
O160   O     0.68513   0.50000   0.11907   0.00000  Uiso   1.00
C161   C     0.66414   0.49995   0.16663   0.00000  Uiso   1.00
C162   C     0.83586   0.50005   0.16671   0.00000  Uiso   1.00
Cu163  Cu    0.75000   0.50000   0.22303   0.00000  Uiso   1.00
Cu164  Cu    0.75000   0.50000   0.11031   0.00000  Uiso   1.00
N165   N     0.75000   0.50000   0.02561   0.00000  Uiso   1.00
N166   N     0.75000   0.50000   0.30773   0.00000  Uiso   1.00
C167   C     0.90700   0.52026   0.12047   0.00000  Uiso   1.00
C168   C     0.59300   0.47969   0.21283   0.00000  Uiso   1.00
C169   C     0.90713   0.48017   0.21306   0.00000  Uiso   1.00
C170   C     0.59287   0.51983   0.12027   0.00000  Uiso   1.00
C171   C     0.88412   0.50018   0.16677   0.00000  Uiso   1.00
C172   C     0.61588   0.49982   0.16656   0.00000  Uiso   1.00
C173   C     0.95345   0.47928   0.21337   0.00000  Uiso   1.00
C174   C     0.54655   0.52070   0.11995   0.00000  Uiso   1.00
C175   C     0.95338   0.52108   0.11992   0.00000  Uiso   1.00
C176   C     0.54662   0.47886   0.21338   0.00000  Uiso   1.00
C177   C     0.97674   0.50010   0.16665   0.00000  Uiso   1.00
C178   C     0.52326   0.49987   0.16666   0.00000  Uiso   1.00
C179   C     0.97666   0.45759   0.25924   0.00000  Uiso   1.00
C180   C     0.52334   0.54233   0.07405   0.00000  Uiso   1.00
C181   C     0.97685   0.54255   0.07386   0.00000  Uiso   1.00
C182   C     0.52315   0.45733   0.25940   0.00000  Uiso   1.00
C183   C     0.75000   0.35512   0.16666   0.00000  Uiso   1.00
C184   C     0.75000   0.64488   0.16667   0.00000  Uiso   1.00
H185   H     0.88814   0.53582   0.08546   0.00000  Uiso   1.00
H186   H     0.61186   0.46411   0.24783   0.00000  Uiso   1.00
H187   H     0.88859   0.46456   0.24836   0.00000  Uiso   1.00
H188   H     0.61141   0.53546   0.08499   0.00000  Uiso   1.00
N189   N     0.95283   0.43496   0.30544   0.00000  Uiso   1.00
H190   H     0.96157   0.39789   0.30691   0.00000  Uiso   1.00
H191   H     0.96277   0.45122   0.01059   0.00000  Uiso   1.00
N192   N     0.54717   0.56486   0.02779   0.00000  Uiso   1.00
H193   H     0.53738   0.54836   0.32274   0.00000  Uiso   1.00
H194   H     0.53829   0.60187   0.02602   0.00000  Uiso   1.00
N195   N     0.95435   0.56517   0.02648   0.00000  Uiso   1.00
H196   H     0.93452   0.59362   0.04200   0.00000  Uiso   1.00
H197   H     0.93430   0.53909   0.00635   0.00000  Uiso   1.00
N198   N     0.54565   0.43459   0.30670   0.00000  Uiso   1.00
H199   H     0.56571   0.46062   0.32692   0.00000  Uiso   1.00
H200   H     0.56547   0.40616   0.29109   0.00000  Uiso   1.00
O201   O     0.25000   0.76280   0.21425   0.00000  Uiso   1.00
O202   O     0.25000   0.90387   0.11908   0.00000  Uiso   1.00
O203   O     0.25000   0.90387   0.21425   0.00000  Uiso   1.00
O204   O     0.25000   0.76280   0.11908   0.00000  Uiso   1.00
C205   C     0.25000   0.74000   0.16666   0.00000  Uiso   1.00
C206   C     0.25000   0.92666   0.16667   0.00000  Uiso   1.00
O207   O     0.18513   0.83333   0.21427   0.00000  Uiso   1.00
O208   O     0.31487   0.83333   0.11907   0.00000  Uiso   1.00
O209   O     0.31487   0.83333   0.21427   0.00000  Uiso   1.00
O210   O     0.18513   0.83333   0.11907   0.00000  Uiso   1.00
C211   C     0.16414   0.83328   0.16663   0.00000  Uiso   1.00
C212   C     0.33586   0.83338   0.16671   0.00000  Uiso   1.00
Cu213  Cu    0.25000   0.83333   0.22303   0.00000  Uiso   1.00
Cu214  Cu    0.25000   0.83333   0.11031   0.00000  Uiso   1.00
N215   N     0.25000   0.83333   0.02561   0.00000  Uiso   1.00
N216   N     0.25000   0.83333   0.30773   0.00000  Uiso   1.00
C217   C     0.40700   0.85359   0.12047   0.00000  Uiso   1.00
C218   C     0.09300   0.81303   0.21283   0.00000  Uiso   1.00
C219   C     0.40713   0.81350   0.21306   0.00000  Uiso   1.00
C220   C     0.09287   0.85317   0.12027   0.00000  Uiso   1.00
C221   C     0.38412   0.83351   0.16677   0.00000  Uiso   1.00
C222   C     0.11588   0.83315   0.16656   0.00000  Uiso   1.00
C223   C     0.45345   0.81262   0.21337   0.00000  Uiso   1.00
C224   C     0.04655   0.85403   0.11995   0.00000  Uiso   1.00
C225   C     0.45338   0.85442   0.11992   0.00000  Uiso   1.00
C226   C     0.04662   0.81219   0.21338   0.00000  Uiso   1.00
C227   C     0.47674   0.83344   0.16665   0.00000  Uiso   1.00
C228   C     0.02326   0.83320   0.16666   0.00000  Uiso   1.00
C229   C     0.47666   0.79092   0.25924   0.00000  Uiso   1.00
C230   C     0.02334   0.87567   0.07405   0.00000  Uiso   1.00
C231   C     0.47685   0.87588   0.07386   0.00000  Uiso   1.00
C232   C     0.02315   0.79067   0.25940   0.00000  Uiso   1.00
C233   C     0.25000   0.68846   0.16666   0.00000  Uiso   1.00
C234   C     0.25000   0.97821   0.16667   0.00000  Uiso   1.00
H235   H     0.38814   0.86915   0.08546   0.00000  Uiso   1.00
H236   H     0.11186   0.79744   0.24783   0.00000  Uiso   1.00
H237   H     0.38859   0.79790   0.24836   0.00000  Uiso   1.00
H238   H     0.11141   0.86879   0.08499   0.00000  Uiso   1.00
N239   N     0.45283   0.76830   0.30544   0.00000  Uiso   1.00
H240   H     0.46157   0.73122   0.30691   0.00000  Uiso   1.00
H241   H     0.46277   0.78455   0.01059   0.00000  Uiso   1.00
N242   N     0.04717   0.89819   0.02779   0.00000  Uiso   1.00
H243   H     0.03738   0.88169   0.32274   0.00000  Uiso   1.00
H244   H     0.03829   0.93520   0.02602   0.00000  Uiso   1.00
N245   N     0.45435   0.89850   0.02648   0.00000  Uiso   1.00
H246   H     0.43452   0.92696   0.04200   0.00000  Uiso   1.00
H247   H     0.43430   0.87242   0.00635   0.00000  Uiso   1.00
N248   N     0.04565   0.76793   0.30670   0.00000  Uiso   1.00
H249   H     0.06571   0.79395   0.32692   0.00000  Uiso   1.00
H250   H     0.06547   0.73950   0.29109   0.00000  Uiso   1.00
O251   O     0.75000   0.76280   0.21425   0.00000  Uiso   1.00
O252   O     0.75000   0.90387   0.11908   0.00000  Uiso   1.00
O253   O     0.75000   0.90387   0.21425   0.00000  Uiso   1.00
O254   O     0.75000   0.76280   0.11908   0.00000  Uiso   1.00
C255   C     0.75000   0.74000   0.16666   0.00000  Uiso   1.00
C256   C     0.75000   0.92666   0.16667   0.00000  Uiso   1.00
O257   O     0.68513   0.83333   0.21427   0.00000  Uiso   1.00
O258   O     0.81487   0.83333   0.11907   0.00000  Uiso   1.00
O259   O     0.81487   0.83333   0.21427   0.00000  Uiso   1.00
O260   O     0.68513   0.83333   0.11907   0.00000  Uiso   1.00
C261   C     0.66414   0.83328   0.16663   0.00000  Uiso   1.00
C262   C     0.83586   0.83338   0.16671   0.00000  Uiso   1.00
Cu263  Cu    0.75000   0.83333   0.22303   0.00000  Uiso   1.00
Cu264  Cu    0.75000   0.83333   0.11031   0.00000  Uiso   1.00
N265   N     0.75000   0.83333   0.02561   0.00000  Uiso   1.00
N266   N     0.75000   0.83333   0.30773   0.00000  Uiso   1.00
C267   C     0.90700   0.85359   0.12047   0.00000  Uiso   1.00
C268   C     0.59300   0.81303   0.21283   0.00000  Uiso   1.00
C269   C     0.90713   0.81350   0.21306   0.00000  Uiso   1.00
C270   C     0.59287   0.85317   0.12027   0.00000  Uiso   1.00
C271   C     0.88412   0.83351   0.16677   0.00000  Uiso   1.00
C272   C     0.61588   0.83315   0.16656   0.00000  Uiso   1.00
C273   C     0.95345   0.81262   0.21337   0.00000  Uiso   1.00
C274   C     0.54655   0.85403   0.11995   0.00000  Uiso   1.00
C275   C     0.95338   0.85442   0.11992   0.00000  Uiso   1.00
C276   C     0.54662   0.81219   0.21338   0.00000  Uiso   1.00
C277   C     0.97674   0.83344   0.16665   0.00000  Uiso   1.00
C278   C     0.52326   0.83320   0.16666   0.00000  Uiso   1.00
C279   C     0.97666   0.79092   0.25924   0.00000  Uiso   1.00
C280   C     0.52334   0.87567   0.07405   0.00000  Uiso   1.00
C281   C     0.97685   0.87588   0.07386   0.00000  Uiso   1.00
C282   C     0.52315   0.79067   0.25940   0.00000  Uiso   1.00
C283   C     0.75000   0.68846   0.16666   0.00000  Uiso   1.00
C284   C     0.75000   0.97821   0.16667   0.00000  Uiso   1.00
H285   H     0.88814   0.86915   0.08546   0.00000  Uiso   1.00
H286   H     0.61186   0.79744   0.24783   0.00000  Uiso   1.00
H287   H     0.88859   0.79790   0.24836   0.00000  Uiso   1.00
H288   H     0.61141   0.86879   0.08499   0.00000  Uiso   1.00
N289   N     0.95283   0.76830   0.30544   0.00000  Uiso   1.00
H290   H     0.96157   0.73122   0.30691   0.00000  Uiso   1.00
H291   H     0.96277   0.78455   0.01059   0.00000  Uiso   1.00
N292   N     0.54717   0.89819   0.02779   0.00000  Uiso   1.00
H293   H     0.53738   0.88169   0.32274   0.00000  Uiso   1.00
H294   H     0.53829   0.93520   0.02602   0.00000  Uiso   1.00
N295   N     0.95435   0.89850   0.02648   0.00000  Uiso   1.00
H296   H     0.93452   0.92696   0.04200   0.00000  Uiso   1.00
H297   H     0.93430   0.87242   0.00635   0.00000  Uiso   1.00
N298   N     0.54565   0.76793   0.30670   0.00000  Uiso   1.00
H299   H     0.56571   0.79395   0.32692   0.00000  Uiso   1.00
H300   H     0.56547   0.73950   0.29109   0.00000  Uiso   1.00
O301   O     0.25000   0.09613   0.54759   0.00000  Uiso   1.00
O302   O     0.25000   0.23720   0.45241   0.00000  Uiso   1.00
O303   O     0.25000   0.23720   0.54759   0.00000  Uiso   1.00
O304   O     0.25000   0.09613   0.45241   0.00000  Uiso   1.00
C305   C     0.25000   0.07334   0.50000   0.00000  Uiso   1.00
C306   C     0.25000   0.26000   0.50000   0.00000  Uiso   1.00
O307   O     0.18513   0.16667   0.54760   0.00000  Uiso   1.00
O308   O     0.31487   0.16667   0.45240   0.00000  Uiso   1.00
O309   O     0.31487   0.16667   0.54760   0.00000  Uiso   1.00
O310   O     0.18513   0.16667   0.45240   0.00000  Uiso   1.00
C311   C     0.16414   0.16662   0.49996   0.00000  Uiso   1.00
C312   C     0.33586   0.16672   0.50004   0.00000  Uiso   1.00
Cu313  Cu    0.25000   0.16667   0.55636   0.00000  Uiso   1.00
Cu314  Cu    0.25000   0.16667   0.44364   0.00000  Uiso   1.00
N315   N     0.25000   0.16667   0.35894   0.00000  Uiso   1.00
N316   N     0.25000   0.16667   0.64106   0.00000  Uiso   1.00
C317   C     0.40700   0.18692   0.45380   0.00000  Uiso   1.00
C318   C     0.09300   0.14636   0.54617   0.00000  Uiso   1.00
C319   C     0.40713   0.14684   0.54640   0.00000  Uiso   1.00
C320   C     0.09287   0.18650   0.45361   0.00000  Uiso   1.00
C321   C     0.38412   0.16684   0.50011   0.00000  Uiso   1.00
C322   C     0.11588   0.16648   0.49989   0.00000  Uiso   1.00
C323   C     0.45345   0.14595   0.54670   0.00000  Uiso   1.00
C324   C     0.04655   0.18736   0.45328   0.00000  Uiso   1.00
C325   C     0.45338   0.18775   0.45325   0.00000  Uiso   1.00
C326   C     0.04662   0.14552   0.54671   0.00000  Uiso   1.00
C327   C     0.47674   0.16677   0.49999   0.00000  Uiso   1.00
C328   C     0.02326   0.16654   0.49999   0.00000  Uiso   1.00
C329   C     0.47666   0.12425   0.59257   0.00000  Uiso   1.00
C330   C     0.02334   0.20900   0.40738   0.00000  Uiso   1.00
C331   C     0.47685   0.20922   0.40720   0.00000  Uiso   1.00
C332   C     0.02315   0.12400   0.59273   0.00000  Uiso   1.00
C333   C     0.25000   0.02179   0.50000   0.00000  Uiso   1.00
C334   C     0.25000   0.31154   0.50000   0.00000  Uiso   1.00
H335   H     0.38814   0.20249   0.41880   0.00000  Uiso   1.00
H336   H     0.11186   0.13078   0.58116   0.00000  Uiso   1.00
H337   H     0.38859   0.13123   0.58169   0.00000  Uiso   1.00
H338   H     0.11141   0.20212   0.41833   0.00000  Uiso   1.00
N339   N     0.45283   0.10163   0.63877   0.00000  Uiso   1.00
H340   H     0.46157   0.06456   0.64024   0.00000  Uiso   1.00
H341   H     0.46277   0.11789   0.34393   0.00000  Uiso   1.00
N342   N     0.04717   0.23152   0.36112   0.00000  Uiso   1.00
H343   H     0.03738   0.21502   0.65607   0.00000  Uiso   1.00
H344   H     0.03829   0.26853   0.35935   0.00000  Uiso   1.00
N345   N     0.45435   0.23183   0.35982   0.00000  Uiso   1.00
H346   H     0.43452   0.26029   0.37534   0.00000  Uiso   1.00
H347   H     0.43430   0.20575   0.33968   0.00000  Uiso   1.00
N348   N     0.04565   0.10126   0.64004   0.00000  Uiso   1.00
H349   H     0.06571   0.12729   0.66025   0.00000  Uiso   1.00
H350   H     0.06547   0.07283   0.62442   0.00000  Uiso   1.00
O351   O     0.75000   0.09613   0.54759   0.00000  Uiso   1.00
O352   O     0.75000   0.23720   0.45241   0.00000  Uiso   1.00
O353   O     0.75000   0.23720   0.54759   0.00000  Uiso   1.00
O354   O     0.75000   0.09613   0.45241   0.00000  Uiso   1.00
C355   C     0.75000   0.07334   0.50000   0.00000  Uiso   1.00
C356   C     0.75000   0.26000   0.50000   0.00000  Uiso   1.00
O357   O     0.68513   0.16667   0.54760   0.00000  Uiso   1.00
O358   O     0.81487   0.16667   0.45240   0.00000  Uiso   1.00
O359   O     0.81487   0.16667   0.54760   0.00000  Uiso   1.00
O360   O     0.68513   0.16667   0.45240   0.00000  Uiso   1.00
C361   C     0.66414   0.16662   0.49996   0.00000  Uiso   1.00
C362   C     0.83586   0.16672   0.50004   0.00000  Uiso   1.00
Cu363  Cu    0.75000   0.16667   0.55636   0.00000  Uiso   1.00
Cu364  Cu    0.75000   0.16667   0.44364   0.00000  Uiso   1.00
N365   N     0.75000   0.16667   0.35894   0.00000  Uiso   1.00
N366   N     0.75000   0.16667   0.64106   0.00000  Uiso   1.00
C367   C     0.90700   0.18692   0.45380   0.00000  Uiso   1.00
C368   C     0.59300   0.14636   0.54617   0.00000  Uiso   1.00
C369   C     0.90713   0.14684   0.54640   0.00000  Uiso   1.00
C370   C     0.59287   0.18650   0.45361   0.00000  Uiso   1.00
C371   C     0.88412   0.16684   0.50011   0.00000  Uiso   1.00
C372   C     0.61588   0.16648   0.49989   0.00000  Uiso   1.00
C373   C     0.95345   0.14595   0.54670   0.00000  Uiso   1.00
C374   C     0.54655   0.18736   0.45328   0.00000  Uiso   1.00
C375   C     0.95338   0.18775   0.45325   0.00000  Uiso   1.00
C376   C     0.54662   0.14552   0.54671   0.00000  Uiso   1.00
C377   C     0.97674   0.16677   0.49999   0.00000  Uiso   1.00
C378   C     0.52326   0.16654   0.49999   0.00000  Uiso   1.00
C379   C     0.97666   0.12425   0.59257   0.00000  Uiso   1.00
C380   C     0.52334   0.20900   0.40738   0.00000  Uiso   1.00
C381   C     0.97685   0.20922   0.40720   0.00000  Uiso   1.00
C382   C     0.52315   0.12400   0.59273   0.00000  Uiso   1.00
C383   C     0.75000   0.02179   0.50000   0.00000  Uiso   1.00
C384   C     0.75000   0.31154   0.50000   0.00000  Uiso   1.00
H385   H     0.88814   0.20249   0.41880   0.00000  Uiso   1.00
H386   H     0.61186   0.13078   0.58116   0.00000  Uiso   1.00
H387   H     0.88859   0.13123   0.58169   0.00000  Uiso   1.00
H388   H     0.61141   0.20212   0.41833   0.00000  Uiso   1.00
N389   N     0.95283   0.10163   0.63877   0.00000  Uiso   1.00
H390   H     0.96157   0.06456   0.64024   0.00000  Uiso   1.00
H391   H     0.96277   0.11789   0.34393   0.00000  Uiso   1.00
N392   N     0.54717   0.23152   0.36112   0.00000  Uiso   1.00
H393   H     0.53738   0.21502   0.65607   0.00000  Uiso   1.00
H394   H     0.53829   0.26853   0.35935   0.00000  Uiso   1.00
N395   N     0.95435   0.23183   0.35982   0.00000  Uiso   1.00
H396   H     0.93452   0.26029   0.37534   0.00000  Uiso   1.00
H397   H     0.93430   0.20575   0.33968   0.00000  Uiso   1.00
N398   N     0.54565   0.10126   0.64004   0.00000  Uiso   1.00
H399   H     0.56571   0.12729   0.66025   0.00000  Uiso   1.00
H400   H     0.56547   0.07283   0.62442   0.00000  Uiso   1.00
O401   O     0.25000   0.42946   0.54759   0.00000  Uiso   1.00
O402   O     0.25000   0.57054   0.45241   0.00000  Uiso   1.00
O403   O     0.25000   0.57054   0.54759   0.00000  Uiso   1.00
O404   O     0.25000   0.42946   0.45241   0.00000  Uiso   1.00
C405   C     0.25000   0.40667   0.50000   0.00000  Uiso   1.00
C406   C     0.25000   0.59333   0.50000   0.00000  Uiso   1.00
O407   O     0.18513   0.50000   0.54760   0.00000  Uiso   1.00
O408   O     0.31487   0.50000   0.45240   0.00000  Uiso   1.00
O409   O     0.31487   0.50000   0.54760   0.00000  Uiso   1.00
O410   O     0.18513   0.50000   0.45240   0.00000  Uiso   1.00
C411   C     0.16414   0.49995   0.49996   0.00000  Uiso   1.00
C412   C     0.33586   0.50005   0.50004   0.00000  Uiso   1.00
Cu413  Cu    0.25000   0.50000   0.55636   0.00000  Uiso   1.00
Cu414  Cu    0.25000   0.50000   0.44364   0.00000  Uiso   1.00
N415   N     0.25000   0.50000   0.35894   0.00000  Uiso   1.00
N416   N     0.25000   0.50000   0.64106   0.00000  Uiso   1.00
C417   C     0.40700   0.52026   0.45380   0.00000  Uiso   1.00
C418   C     0.09300   0.47969   0.54617   0.00000  Uiso   1.00
C419   C     0.40713   0.48017   0.54640   0.00000  Uiso   1.00
C420   C     0.09287   0.51983   0.45361   0.00000  Uiso   1.00
C421   C     0.38412   0.50018   0.50011   0.00000  Uiso   1.00
C422   C     0.11588   0.49982   0.49989   0.00000  Uiso   1.00
C423   C     0.45345   0.47928   0.54670   0.00000  Uiso   1.00
C424   C     0.04655   0.52070   0.45328   0.00000  Uiso   1.00
C425   C     0.45338   0.52108   0.45325   0.00000  Uiso   1.00
C426   C     0.04662   0.47886   0.54671   0.00000  Uiso   1.00
C427   C     0.47674   0.50010   0.49999   0.00000  Uiso   1.00
C428   C     0.02326   0.49987   0.49999   0.00000  Uiso   1.00
C429   C     0.47666   0.45759   0.59257   0.00000  Uiso   1.00
C430   C     0.02334   0.54233   0.40738   0.00000  Uiso   1.00
C431   C     0.47685   0.54255   0.40720   0.00000  Uiso   1.00
C432   C     0.02315   0.45733   0.59273   0.00000  Uiso   1.00
C433   C     0.25000   0.35512   0.50000   0.00000  Uiso   1.00
C434   C     0.25000   0.64488   0.50000   0.00000  Uiso   1.00
H435   H     0.38814   0.53582   0.41880   0.00000  Uiso   1.00
H436   H     0.11186   0.46411   0.58116   0.00000  Uiso   1.00
H437   H     0.38859   0.46456   0.58169   0.00000  Uiso   1.00
H438   H     0.11141   0.53546   0.41833   0.00000  Uiso   1.00
N439   N     0.45283   0.43496   0.63877   0.00000  Uiso   1.00
H440   H     0.46157   0.39789   0.64024   0.00000  Uiso   1.00
H441   H     0.46277   0.45122   0.34393   0.00000  Uiso   1.00
N442   N     0.04717   0.56486   0.36112   0.00000  Uiso   1.00
H443   H     0.03738   0.54836   0.65607   0.00000  Uiso   1.00
H444   H     0.03829   0.60187   0.35935   0.00000  Uiso   1.00
N445   N     0.45435   0.56517   0.35982   0.00000  Uiso   1.00
H446   H     0.43452   0.59362   0.37534   0.00000  Uiso   1.00
H447   H     0.43430   0.53909   0.33968   0.00000  Uiso   1.00
N448   N     0.04565   0.43459   0.64004   0.00000  Uiso   1.00
H449   H     0.06571   0.46062   0.66025   0.00000  Uiso   1.00
H450   H     0.06547   0.40616   0.62442   0.00000  Uiso   1.00
O451   O     0.75000   0.42946   0.54759   0.00000  Uiso   1.00
O452   O     0.75000   0.57054   0.45241   0.00000  Uiso   1.00
O453   O     0.75000   0.57054   0.54759   0.00000  Uiso   1.00
O454   O     0.75000   0.42946   0.45241   0.00000  Uiso   1.00
C455   C     0.75000   0.40667   0.50000   0.00000  Uiso   1.00
C456   C     0.75000   0.59333   0.50000   0.00000  Uiso   1.00
O457   O     0.68513   0.50000   0.54760   0.00000  Uiso   1.00
O458   O     0.81487   0.50000   0.45240   0.00000  Uiso   1.00
O459   O     0.81487   0.50000   0.54760   0.00000  Uiso   1.00
O460   O     0.68513   0.50000   0.45240   0.00000  Uiso   1.00
C461   C     0.66414   0.49995   0.49996   0.00000  Uiso   1.00
C462   C     0.83586   0.50005   0.50004   0.00000  Uiso   1.00
Cu463  Cu    0.75000   0.50000   0.55636   0.00000  Uiso   1.00
Cu464  Cu    0.75000   0.50000   0.44364   0.00000  Uiso   1.00
N465   N     0.75000   0.50000   0.35894   0.00000  Uiso   1.00
N466   N     0.75000   0.50000   0.64106   0.00000  Uiso   1.00
C467   C     0.90700   0.52026   0.45380   0.00000  Uiso   1.00
C468   C     0.59300   0.47969   0.54617   0.00000  Uiso   1.00
C469   C     0.90713   0.48017   0.54640   0.00000  Uiso   1.00
C470   C     0.59287   0.51983   0.45361   0.00000  Uiso   1.00
C471   C     0.88412   0.50018   0.50011   0.00000  Uiso   1.00
C472   C     0.61588   0.49982   0.49989   0.00000  Uiso   1.00
C473   C     0.95345   0.47928   0.54670   0.00000  Uiso   1.00
C474   C     0.54655   0.52070   0.45328   0.00000  Uiso   1.00
C475   C     0.95338   0.52108   0.45325   0.00000  Uiso   1.00
C476   C     0.54662   0.47886   0.54671   0.00000  Uiso   1.00
C477   C     0.97674   0.50010   0.49999   0.00000  Uiso   1.00
C478   C     0.52326   0.49987   0.49999   0.00000  Uiso   1.00
C479   C     0.97666   0.45759   0.59257   0.00000  Uiso   1.00
C480   C     0.52334   0.54233   0.40738   0.00000  Uiso   1.00
C481   C     0.97685   0.54255   0.40720   0.00000  Uiso   1.00
C482   C     0.52315   0.45733   0.59273   0.00000  Uiso   1.00
C483   C     0.75000   0.35512   0.50000   0.00000  Uiso   1.00
C484   C     0.75000   0.64488   0.50000   0.00000  Uiso   1.00
H485   H     0.88814   0.53582   0.41880   0.00000  Uiso   1.00
H486   H     0.61186   0.46411   0.58116   0.00000  Uiso   1.00
H487   H     0.88859   0.46456   0.58169   0.00000  Uiso   1.00
H488   H     0.61141   0.53546   0.41833   0.00000  Uiso   1.00
N489   N     0.95283   0.43496   0.63877   0.00000  Uiso   1.00
H490   H     0.96157   0.39789   0.64024   0.00000  Uiso   1.00
H491   H     0.96277   0.45122   0.34393   0.00000  Uiso   1.00
N492   N     0.54717   0.56486   0.36112   0.00000  Uiso   1.00
H493   H     0.53738   0.54836   0.65607   0.00000  Uiso   1.00
H494   H     0.53829   0.60187   0.35935   0.00000  Uiso   1.00
N495   N     0.95435   0.56517   0.35982   0.00000  Uiso   1.00
H496   H     0.93452   0.59362   0.37534   0.00000  Uiso   1.00
H497   H     0.93430   0.53909   0.33968   0.00000  Uiso   1.00
N498   N     0.54565   0.43459   0.64004   0.00000  Uiso   1.00
H499   H     0.56571   0.46062   0.66025   0.00000  Uiso   1.00
H500   H     0.56547   0.40616   0.62442   0.00000  Uiso   1.00
O501   O     0.25000   0.76280   0.54759   0.00000  Uiso   1.00
O502   O     0.25000   0.90387   0.45241   0.00000  Uiso   1.00
O503   O     0.25000   0.90387   0.54759   0.00000  Uiso   1.00
O504   O     0.25000   0.76280   0.45241   0.00000  Uiso   1.00
C505   C     0.25000   0.74000   0.50000   0.00000  Uiso   1.00
C506   C     0.25000   0.92666   0.50000   0.00000  Uiso   1.00
O507   O     0.18513   0.83333   0.54760   0.00000  Uiso   1.00
O508   O     0.31487   0.83333   0.45240   0.00000  Uiso   1.00
O509   O     0.31487   0.83333   0.54760   0.00000  Uiso   1.00
O510   O     0.18513   0.83333   0.45240   0.00000  Uiso   1.00
C511   C     0.16414   0.83328   0.49996   0.00000  Uiso   1.00
C512   C     0.33586   0.83338   0.50004   0.00000  Uiso   1.00
Cu513  Cu    0.25000   0.83333   0.55636   0.00000  Uiso   1.00
Cu514  Cu    0.25000   0.83333   0.44364   0.00000  Uiso   1.00
N515   N     0.25000   0.83333   0.35894   0.00000  Uiso   1.00
N516   N     0.25000   0.83333   0.64106   0.00000  Uiso   1.00
C517   C     0.40700   0.85359   0.45380   0.00000  Uiso   1.00
C518   C     0.09300   0.81303   0.54617   0.00000  Uiso   1.00
C519   C     0.40713   0.81350   0.54640   0.00000  Uiso   1.00
C520   C     0.09287   0.85317   0.45361   0.00000  Uiso   1.00
C521   C     0.38412   0.83351   0.50011   0.00000  Uiso   1.00
C522   C     0.11588   0.83315   0.49989   0.00000  Uiso   1.00
C523   C     0.45345   0.81262   0.54670   0.00000  Uiso   1.00
C524   C     0.04655   0.85403   0.45328   0.00000  Uiso   1.00
C525   C     0.45338   0.85442   0.45325   0.00000  Uiso   1.00
C526   C     0.04662   0.81219   0.54671   0.00000  Uiso   1.00
C527   C     0.47674   0.83344   0.49999   0.00000  Uiso   1.00
C528   C     0.02326   0.83320   0.49999   0.00000  Uiso   1.00
C529   C     0.47666   0.79092   0.59257   0.00000  Uiso   1.00
C530   C     0.02334   0.87567   0.40738   0.00000  Uiso   1.00
C531   C     0.47685   0.87588   0.40720   0.00000  Uiso   1.00
C532   C     0.02315   0.79067   0.59273   0.00000  Uiso   1.00
C533   C     0.25000   0.68846   0.50000   0.00000  Uiso   1.00
C534   C     0.25000   0.97821   0.50000   0.00000  Uiso   1.00
H535   H     0.38814   0.86915   0.41880   0.00000  Uiso   1.00
H536   H     0.11186   0.79744   0.58116   0.00000  Uiso   1.00
H537   H     0.38859   0.79790   0.58169   0.00000  Uiso   1.00
H538   H     0.11141   0.86879   0.41833   0.00000  Uiso   1.00
N539   N     0.45283   0.76830   0.63877   0.00000  Uiso   1.00
H540   H     0.46157   0.73122   0.64024   0.00000  Uiso   1.00
H541   H     0.46277   0.78455   0.34393   0.00000  Uiso   1.00
N542   N     0.04717   0.89819   0.36112   0.00000  Uiso   1.00
H543   H     0.03738   0.88169   0.65607   0.00000  Uiso   1.00
H544   H     0.03829   0.93520   0.35935   0.00000  Uiso   1.00
N545   N     0.45435   0.89850   0.35982   0.00000  Uiso   1.00
H546   H     0.43452   0.92696   0.37534   0.00000  Uiso   1.00
H547   H     0.43430   0.87242   0.33968   0.00000  Uiso   1.00
N548   N     0.04565   0.76793   0.64004   0.00000  Uiso   1.00
H549   H     0.06571   0.79395   0.66025   0.00000  Uiso   1.00
H550   H     0.06547   0.73950   0.62442   0.00000  Uiso   1.00
O551   O     0.75000   0.76280   0.54759   0.00000  Uiso   1.00
O552   O     0.75000   0.90387   0.45241   0.00000  Uiso   1.00
O553   O     0.75000   0.90387   0.54759   0.00000  Uiso   1.00
O554   O     0.75000   0.76280   0.45241   0.00000  Uiso   1.00
C555   C     0.75000   0.74000   0.50000   0.00000  Uiso   1.00
C556   C     0.75000   0.92666   0.50000   0.00000  Uiso   1.00
O557   O     0.68513   0.83333   0.54760   0.00000  Uiso   1.00
O558   O     0.81487   0.83333   0.45240   0.00000  Uiso   1.00
O559   O     0.81487   0.83333   0.54760   0.00000  Uiso   1.00
O560   O     0.68513   0.83333   0.45240   0.00000  Uiso   1.00
C561   C     0.66414   0.83328   0.49996   0.00000  Uiso   1.00
C562   C     0.83586   0.83338   0.50004   0.00000  Uiso   1.00
Cu563  Cu    0.75000   0.83333   0.55636   0.00000  Uiso   1.00
Cu564  Cu    0.75000   0.83333   0.44364   0.00000  Uiso   1.00
N565   N     0.75000   0.83333   0.35894   0.00000  Uiso   1.00
N566   N     0.75000   0.83333   0.64106   0.00000  Uiso   1.00
C567   C     0.90700   0.85359   0.45380   0.00000  Uiso   1.00
C568   C     0.59300   0.81303   0.54617   0.00000  Uiso   1.00
C569   C     0.90713   0.81350   0.54640   0.00000  Uiso   1.00
C570   C     0.59287   0.85317   0.45361   0.00000  Uiso   1.00
C571   C     0.88412   0.83351   0.50011   0.00000  Uiso   1.00
C572   C     0.61588   0.83315   0.49989   0.00000  Uiso   1.00
C573   C     0.95345   0.81262   0.54670   0.00000  Uiso   1.00
C574   C     0.54655   0.85403   0.45328   0.00000  Uiso   1.00
C575   C     0.95338   0.85442   0.45325   0.00000  Uiso   1.00
C576   C     0.54662   0.81219   0.54671   0.00000  Uiso   1.00
C577   C     0.97674   0.83344   0.49999   0.00000  Uiso   1.00
C578   C     0.52326   0.83320   0.49999   0.00000  Uiso   1.00
C579   C     0.97666   0.79092   0.59257   0.00000  Uiso   1.00
C580   C     0.52334   0.87567   0.40738   0.00000  Uiso   1.00
C581   C     0.97685   0.87588   0.40720   0.00000  Uiso   1.00
C582   C     0.52315   0.79067   0.59273   0.00000  Uiso   1.00
C583   C     0.75000   0.68846   0.50000   0.00000  Uiso   1.00
C584   C     0.75000   0.97821   0.50000   0.00000  Uiso   1.00
H585   H     0.88814   0.86915   0.41880   0.00000  Uiso   1.00
H586   H     0.61186   0.79744   0.58116   0.00000  Uiso   1.00
H587   H     0.88859   0.79790   0.58169   0.00000  Uiso   1.00
H588   H     0.61141   0.86879   0.41833   0.00000  Uiso   1.00
N589   N     0.95283   0.76830   0.63877   0.00000  Uiso   1.00
H590   H     0.96157   0.73122   0.64024   0.00000  Uiso   1.00
H591   H     0.96277   0.78455   0.34393   0.00000  Uiso   1.00
N592   N     0.54717   0.89819   0.36112   0.00000  Uiso   1.00
H593   H     0.53738   0.88169   0.65607   0.00000  Uiso   1.00
H594   H     0.53829   0.93520   0.35935   0.00000  Uiso   1.00
N595   N     0.95435   0.89850   0.35982   0.00000  Uiso   1.00
H596   H     0.93452   0.92696   0.37534   0.00000  Uiso   1.00
H597   H     0.93430   0.87242   0.33968   0.00000  Uiso   1.00
N598   N     0.54565   0.76793   0.64004   0.00000  Uiso   1.00
H599   H     0.56571   0.79395   0.66025   0.00000  Uiso   1.00
H600   H     0.56547   0.73950   0.62442   0.00000  Uiso   1.00
O601   O     0.25000   0.09613   0.88092   0.00000  Uiso   1.00
O602   O     0.25000   0.23720   0.78575   0.00000  Uiso   1.00
O603   O     0.25000   0.23720   0.88092   0.00000  Uiso   1.00
O604   O     0.25000   0.09613   0.78575   0.00000  Uiso   1.00
C605   C     0.25000   0.07334   0.83333   0.00000  Uiso   1.00
C606   C     0.25000   0.26000   0.83334   0.00000  Uiso   1.00
O607   O     0.18513   0.16667   0.88093   0.00000  Uiso   1.00
O608   O     0.31487   0.16667   0.78573   0.00000  Uiso   1.00
O609   O     0.31487   0.16667   0.88093   0.00000  Uiso   1.00
O610   O     0.18513   0.16667   0.78573   0.00000  Uiso   1.00
C611   C     0.16414   0.16662   0.83329   0.00000  Uiso   1.00
C612   C     0.33586   0.16672   0.83337   0.00000  Uiso   1.00
Cu613  Cu    0.25000   0.16667   0.88969   0.00000  Uiso   1.00
Cu614  Cu    0.25000   0.16667   0.77697   0.00000  Uiso   1.00
N615   N     0.25000   0.16667   0.69227   0.00000  Uiso   1.00
N616   N     0.25000   0.16667   0.97439   0.00000  Uiso   1.00
C617   C     0.40700   0.18692   0.78714   0.00000  Uiso   1.00
C618   C     0.09300   0.14636   0.87950   0.00000  Uiso   1.00
C619   C     0.40713   0.14684   0.87973   0.00000  Uiso   1.00
C620   C     0.09287   0.18650   0.78694   0.00000  Uiso   1.00
C621   C     0.38412   0.16684   0.83344   0.00000  Uiso   1.00
C622   C     0.11588   0.16648   0.83322   0.00000  Uiso   1.00
C623   C     0.45345   0.14595   0.88004   0.00000  Uiso   1.00
C624   C     0.04655   0.18736   0.78662   0.00000  Uiso   1.00
C625   C     0.45338   0.18775   0.78659   0.00000  Uiso   1.00
C626   C     0.04662   0.14552   0.88004   0.00000  Uiso   1.00
C627   C     0.47674   0.16677   0.83332   0.00000  Uiso   1.00
C628   C     0.02326   0.16654   0.83333   0.00000  Uiso   1.00
C629   C     0.47666   0.12425   0.92590   0.00000  Uiso   1.00
C630   C     0.02334   0.20900   0.74072   0.00000  Uiso   1.00
C631   C     0.47685   0.20922   0.74053   0.00000  Uiso   1.00
C632   C     0.02315   0.12400   0.92606   0.00000  Uiso   1.00
C633   C     0.25000   0.02179   0.83333   0.00000  Uiso   1.00
C634   C     0.25000   0.31154   0.83334   0.00000  Uiso   1.00
H635   H     0.38814   0.20249   0.75213   0.00000  Uiso   1.00
H636   H     0.11186   0.13078   0.91450   0.00000  Uiso   1.00
H637   H     0.38859   0.13123   0.91502   0.00000  Uiso   1.00
H638   H     0.11141   0.20212   0.75166   0.00000  Uiso   1.00
N639   N     0.45283   0.10163   0.97211   0.00000  Uiso   1.00
H640   H     0.46157   0.06456   0.97358   0.00000  Uiso   1.00
H641   H     0.46277   0.11789   0.67726   0.00000  Uiso   1.00
N642   N     0.04717   0.23152   0.69446   0.00000  Uiso   1.00
H643   H     0.03738   0.21502   0.98941   0.00000  Uiso   1.00
H644   H     0.03829   0.26853   0.69269   0.00000  Uiso   1.00
N645   N     0.45435   0.23183   0.69315   0.00000  Uiso   1.00
H646   H     0.43452   0.26029   0.70867   0.00000  Uiso   1.00
H647   H     0.43430   0.20575   0.67302   0.00000  Uiso   1.00
N648   N     0.04565   0.10126   0.97337   0.00000  Uiso   1.00
H649   H     0.06571   0.12729   0.99359   0.00000  Uiso   1.00
H650   H     0.06547   0.07283   0.95775   0.00000  Uiso   1.00
O651   O     0.75000   0.09613   0.88092   0.00000  Uiso   1.00
O652   O     0.75000   0.23720   0.78575   0.00000  Uiso   1.00
O653   O     0.75000   0.23720   0.88092   0.00000  Uiso   1.00
O654   O     0.75000   0.09613   0.78575   0.00000  Uiso   1.00
C655   C     0.75000   0.07334   0.83333   0.00000  Uiso   1.00
C656   C     0.75000   0.26000   0.83334   0.00000  Uiso   1.00
O657   O     0.68513   0.16667   0.88093   0.00000  Uiso   1.00
O658   O     0.81487   0.16667   0.78573   0.00000  Uiso   1.00
O659   O     0.81487   0.16667   0.88093   0.00000  Uiso   1.00
O660   O     0.68513   0.16667   0.78573   0.00000  Uiso   1.00
C661   C     0.66414   0.16662   0.83329   0.00000  Uiso   1.00
C662   C     0.83586   0.16672   0.83337   0.00000  Uiso   1.00
Cu663  Cu    0.75000   0.16667   0.88969   0.00000  Uiso   1.00
Cu664  Cu    0.75000   0.16667   0.77697   0.00000  Uiso   1.00
N665   N     0.75000   0.16667   0.69227   0.00000  Uiso   1.00
N666   N     0.75000   0.16667   0.97439   0.00000  Uiso   1.00
C667   C     0.90700   0.18692   0.78714   0.00000  Uiso   1.00
C668   C     0.59300   0.14636   0.87950   0.00000  Uiso   1.00
C669   C     0.90713   0.14684   0.87973   0.00000  Uiso   1.00
C670   C     0.59287   0.18650   0.78694   0.00000  Uiso   1.00
C671   C     0.88412   0.16684   0.83344   0.00000  Uiso   1.00
C672   C     0.61588   0.16648   0.83322   0.00000  Uiso   1.00
C673   C     0.95345   0.14595   0.88004   0.00000  Uiso   1.00
C674   C     0.54655   0.18736   0.78662   0.00000  Uiso   1.00
C675   C     0.95338   0.18775   0.78659   0.00000  Uiso   1.00
C676   C     0.54662   0.14552   0.88004   0.00000  Uiso   1.00
C677   C     0.97674   0.16677   0.83332   0.00000  Uiso   1.00
C678   C     0.52326   0.16654   0.83333   0.00000  Uiso   1.00
C679   C     0.97666   0.12425   0.92590   0.00000  Uiso   1.00
C680   C     0.52334   0.20900   0.74072   0.00000  Uiso   1.00
C681   C     0.97685   0.20922   0.74053   0.00000  Uiso   1.00
C682   C     0.52315   0.12400   0.92606   0.00000  Uiso   1.00
C683   C     0.75000   0.02179   0.83333   0.00000  Uiso   1.00
C684   C     0.75000   0.31154   0.83334   0.00000  Uiso   1.00
H685   H     0.88814   0.20249   0.75213   0.00000  Uiso   1.00
H686   H     0.61186   0.13078   0.91450   0.00000  Uiso   1.00
H687   H     0.88859   0.13123   0.91502   0.00000  Uiso   1.00
H688   H     0.61141   0.20212   0.75166   0.00000  Uiso   1.00
N689   N     0.95283   0.10163   0.97211   0.00000  Uiso   1.00
H690   H     0.96157   0.06456   0.97358   0.00000  Uiso   1.00
H691   H     0.96277   0.11789   0.67726   0.00000  Uiso   1.00
N692   N     0.54717   0.23152   0.69446   0.00000  Uiso   1.00
H693   H     0.53738   0.21502   0.98941   0.00000  Uiso   1.00
H694   H     0.53829   0.26853   0.69269   0.00000  Uiso   1.00
N695   N     0.95435   0.23183   0.69315   0.00000  Uiso   1.00
H696   H     0.93452   0.26029   0.70867   0.00000  Uiso   1.00
H697   H     0.93430   0.20575   0.67302   0.00000  Uiso   1.00
N698   N     0.54565   0.10126   0.97337   0.00000  Uiso   1.00
H699   H     0.56571   0.12729   0.99359   0.00000  Uiso   1.00
H700   H     0.56547   0.07283   0.95775   0.00000  Uiso   1.00
O701   O     0.25000   0.42946   0.88092   0.00000  Uiso   1.00
O702   O     0.25000   0.57054   0.78575   0.00000  Uiso   1.00
O703   O     0.25000   0.57054   0.88092   0.00000  Uiso   1.00
O704   O     0.25000   0.42946   0.78575   0.00000  Uiso   1.00
C705   C     0.25000   0.40667   0.83333   0.00000  Uiso   1.00
C706   C     0.25000   0.59333   0.83334   0.00000  Uiso   1.00
O707   O     0.18513   0.50000   0.88093   0.00000  Uiso   1.00
O708   O     0.31487   0.50000   0.78573   0.00000  Uiso   1.00
O709   O     0.31487   0.50000   0.88093   0.00000  Uiso   1.00
O710   O     0.18513   0.50000   0.78573   0.00000  Uiso   1.00
C711   C     0.16414   0.49995   0.83329   0.00000  Uiso   1.00
C712   C     0.33586   0.50005   0.83337   0.00000  Uiso   1.00
Cu713  Cu    0.25000   0.50000   0.88969   0.00000  Uiso   1.00
Cu714  Cu    0.25000   0.50000   0.77697   0.00000  Uiso   1.00
N715   N     0.25000   0.50000   0.69227   0.00000  Uiso   1.00
N716   N     0.25000   0.50000   0.97439   0.00000  Uiso   1.00
C717   C     0.40700   0.52026   0.78714   0.00000  Uiso   1.00
C718   C     0.09300   0.47969   0.87950   0.00000  Uiso   1.00
C719   C     0.40713   0.48017   0.87973   0.00000  Uiso   1.00
C720   C     0.09287   0.51983   0.78694   0.00000  Uiso   1.00
C721   C     0.38412   0.50018   0.83344   0.00000  Uiso   1.00
C722   C     0.11588   0.49982   0.83322   0.00000  Uiso   1.00
C723   C     0.45345   0.47928   0.88004   0.00000  Uiso   1.00
C724   C     0.04655   0.52070   0.78662   0.00000  Uiso   1.00
C725   C     0.45338   0.52108   0.78659   0.00000  Uiso   1.00
C726   C     0.04662   0.47886   0.88004   0.00000  Uiso   1.00
C727   C     0.47674   0.50010   0.83332   0.00000  Uiso   1.00
C728   C     0.02326   0.49987   0.83333   0.00000  Uiso   1.00
C729   C     0.47666   0.45759   0.92590   0.00000  Uiso   1.00
C730   C     0.02334   0.54233   0.74072   0.00000  Uiso   1.00
C731   C     0.47685   0.54255   0.74053   0.00000  Uiso   1.00
C732   C     0.02315   0.45733   0.92606   0.00000  Uiso   1.00
C733   C     0.25000   0.35512   0.83333   0.00000  Uiso   1.00
C734   C     0.25000   0.64488   0.83334   0.00000  Uiso   1.00
H735   H     0.38814   0.53582   0.75213   0.00000  Uiso   1.00
H736   H     0.11186   0.46411   0.91450   0.00000  Uiso   1.00
H737   H     0.38859   0.46456   0.91502   0.00000  Uiso   1.00
H738   H     0.11141   0.53546   0.75166   0.00000  Uiso   1.00
N739   N     0.45283   0.43496   0.97211   0.00000  Uiso   1.00
H740   H     0.46157   0.39789   0.97358   0.00000  Uiso   1.00
H741   H     0.46277   0.45122   0.67726   0.00000  Uiso   1.00
N742   N     0.04717   0.56486   0.69446   0.00000  Uiso   1.00
H743   H     0.03738   0.54836   0.98941   0.00000  Uiso   1.00
H744   H     0.03829   0.60187   0.69269   0.00000  Uiso   1.00
N745   N     0.45435   0.56517   0.69315   0.00000  Uiso   1.00
H746   H     0.43452   0.59362   0.70867   0.00000  Uiso   1.00
H747   H     0.43430   0.53909   0.67302   0.00000  Uiso   1.00
N748   N     0.04565   0.43459   0.97337   0.00000  Uiso   1.00
H749   H     0.06571   0.46062   0.99359   0.00000  Uiso   1.00
H750   H     0.06547   0.40616   0.95775   0.00000  Uiso   1.00
O751   O     0.75000   0.42946   0.88092   0.00000  Uiso   1.00
O752   O     0.75000   0.57054   0.78575   0.00000  Uiso   1.00
O753   O     0.75000   0.57054   0.88092   0.00000  Uiso   1.00
O754   O     0.75000   0.42946   0.78575   0.00000  Uiso   1.00
C755   C     0.75000   0.40667   0.83333   0.00000  Uiso   1.00
C756   C     0.75000   0.59333   0.83334   0.00000  Uiso   1.00
O757   O     0.68513   0.50000   0.88093   0.00000  Uiso   1.00
O758   O     0.81487   0.50000   0.78573   0.00000  Uiso   1.00
O759   O     0.81487   0.50000   0.88093   0.00000  Uiso   1.00
O760   O     0.68513   0.50000   0.78573   0.00000  Uiso   1.00
C761   C     0.66414   0.49995   0.83329   0.00000  Uiso   1.00
C762   C     0.83586   0.50005   0.83337   0.00000  Uiso   1.00
Cu763  Cu    0.75000   0.50000   0.88969   0.00000  Uiso   1.00
Cu764  Cu    0.75000   0.50000   0.77697   0.00000  Uiso   1.00
N765   N     0.75000   0.50000   0.69227   0.00000  Uiso   1.00
N766   N     0.75000   0.50000   0.97439   0.00000  Uiso   1.00
C767   C     0.90700   0.52026   0.78714   0.00000  Uiso   1.00
C768   C     0.59300   0.47969   0.87950   0.00000  Uiso   1.00
C769   C     0.90713   0.48017   0.87973   0.00000  Uiso   1.00
C770   C     0.59287   0.51983   0.78694   0.00000  Uiso   1.00
C771   C     0.88412   0.50018   0.83344   0.00000  Uiso   1.00
C772   C     0.61588   0.49982   0.83322   0.00000  Uiso   1.00
C773   C     0.95345   0.47928   0.88004   0.00000  Uiso   1.00
C774   C     0.54655   0.52070   0.78662   0.00000  Uiso   1.00
C775   C     0.95338   0.52108   0.78659   0.00000  Uiso   1.00
C776   C     0.54662   0.47886   0.88004   0.00000  Uiso   1.00
C777   C     0.97674   0.50010   0.83332   0.00000  Uiso   1.00
C778   C     0.52326   0.49987   0.83333   0.00000  Uiso   1.00
C779   C     0.97666   0.45759   0.92590   0.00000  Uiso   1.00
C780   C     0.52334   0.54233   0.74072   0.00000  Uiso   1.00
C781   C     0.97685   0.54255   0.74053   0.00000  Uiso   1.00
C782   C     0.52315   0.45733   0.92606   0.00000  Uiso   1.00
C783   C     0.75000   0.35512   0.83333   0.00000  Uiso   1.00
C784   C     0.75000   0.64488   0.83334   0.00000  Uiso   1.00
H785   H     0.88814   0.53582   0.75213   0.00000  Uiso   1.00
H786   H     0.61186   0.46411   0.91450   0.00000  Uiso   1.00
H787   H     0.88859   0.46456   0.91502   0.00000  Uiso   1.00
H788   H     0.61141   0.53546   0.75166   0.00000  Uiso   1.00
N789   N     0.95283   0.43496   0.97211   0.00000  Uiso   1.00
H790   H     0.96157   0.39789   0.97358   0.00000  Uiso   1.00
H791   H     0.96277   0.45122   0.67726   0.00000  Uiso   1.00
N792   N     0.54717   0.56486   0.69446   0.00000  Uiso   1.00
H793   H     0.53738   0.54836   0.98941   0.00000  Uiso   1.00
H794   H     0.53829   0.60187   0.69269   0.00000  Uiso   1.00
N795   N     0.95435   0.56517   0.69315   0.00000  Uiso   1.00
H796   H     0.93452   0.59362   0.70867   0.00000  Uiso   1.00
H797   H     0.93430   0.53909   0.67302   0.00000  Uiso   1.00
N798   N     0.54565   0.43459   0.97337   0.00000  Uiso   1.00
H799   H     0.56571   0.46062   0.99359   0.00000  Uiso   1.00
H800   H     0.56547   0.40616   0.95775   0.00000  Uiso   1.00
O801   O     0.25000   0.76280   0.88092   0.00000  Uiso   1.00
O802   O     0.25000   0.90387   0.78575   0.00000  Uiso   1.00
O803   O     0.25000   0.90387   0.88092   0.00000  Uiso   1.00
O804   O     0.25000   0.76280   0.78575   0.00000  Uiso   1.00
C805   C     0.25000   0.74000   0.83333   0.00000  Uiso   1.00
C806   C     0.25000   0.92666   0.83334   0.00000  Uiso   1.00
O807   O     0.18513   0.83333   0.88093   0.00000  Uiso   1.00
O808   O     0.31487   0.83333   0.78573   0.00000  Uiso   1.00
O809   O     0.31487   0.83333   0.88093   0.00000  Uiso   1.00
O810   O     0.18513   0.83333   0.78573   0.00000  Uiso   1.00
C811   C     0.16414   0.83328   0.83329   0.00000  Uiso   1.00
C812   C     0.33586   0.83338   0.83337   0.00000  Uiso   1.00
Cu813  Cu    0.25000   0.83333   0.88969   0.00000  Uiso   1.00
Cu814  Cu    0.25000   0.83333   0.77697   0.00000  Uiso   1.00
N815   N     0.25000   0.83333   0.69227   0.00000  Uiso   1.00
N816   N     0.25000   0.83333   0.97439   0.00000  Uiso   1.00
C817   C     0.40700   0.85359   0.78714   0.00000  Uiso   1.00
C818   C     0.09300   0.81303   0.87950   0.00000  Uiso   1.00
C819   C     0.40713   0.81350   0.87973   0.00000  Uiso   1.00
C820   C     0.09287   0.85317   0.78694   0.00000  Uiso   1.00
C821   C     0.38412   0.83351   0.83344   0.00000  Uiso   1.00
C822   C     0.11588   0.83315   0.83322   0.00000  Uiso   1.00
C823   C     0.45345   0.81262   0.88004   0.00000  Uiso   1.00
C824   C     0.04655   0.85403   0.78662   0.00000  Uiso   1.00
C825   C     0.45338   0.85442   0.78659   0.00000  Uiso   1.00
C826   C     0.04662   0.81219   0.88004   0.00000  Uiso   1.00
C827   C     0.47674   0.83344   0.83332   0.00000  Uiso   1.00
C828   C     0.02326   0.83320   0.83333   0.00000  Uiso   1.00
C829   C     0.47666   0.79092   0.92590   0.00000  Uiso   1.00
C830   C     0.02334   0.87567   0.74072   0.00000  Uiso   1.00
C831   C     0.47685   0.87588   0.74053   0.00000  Uiso   1.00
C832   C     0.02315   0.79067   0.92606   0.00000  Uiso   1.00
C833   C     0.25000   0.68846   0.83333   0.00000  Uiso   1.00
C834   C     0.25000   0.97821   0.83334   0.00000  Uiso   1.00
H835   H     0.38814   0.86915   0.75213   0.00000  Uiso   1.00
H836   H     0.11186   0.79744   0.91450   0.00000  Uiso   1.00
H837   H     0.38859   0.79790   0.91502   0.00000  Uiso   1.00
H838   H     0.11141   0.86879   0.75166   0.00000  Uiso   1.00
N839   N     0.45283   0.76830   0.97211   0.00000  Uiso   1.00
H840   H     0.46157   0.73122   0.97358   0.00000  Uiso   1.00
H841   H     0.46277   0.78455   0.67726   0.00000  Uiso   1.00
N842   N     0.04717   0.89819   0.69446   0.00000  Uiso   1.00
H843   H     0.03738   0.88169   0.98941   0.00000  Uiso   1.00
H844   H     0.03829   0.93520   0.69269   0.00000  Uiso   1.00
N845   N     0.45435   0.89850   0.69315   0.00000  Uiso   1.00
H846   H     0.43452   0.92696   0.70867   0.00000  Uiso   1.00
H847   H     0.43430   0.87242   0.67302   0.00000  Uiso   1.00
N848   N     0.04565   0.76793   0.97337   0.00000  Uiso   1.00
H849   H     0.06571   0.79395   0.99359   0.00000  Uiso   1.00
H850   H     0.06547   0.73950   0.95775   0.00000  Uiso   1.00
O851   O     0.75000   0.76280   0.88092   0.00000  Uiso   1.00
O852   O     0.75000   0.90387   0.78575   0.00000  Uiso   1.00
O853   O     0.75000   0.90387   0.88092   0.00000  Uiso   1.00
O854   O     0.75000   0.76280   0.78575   0.00000  Uiso   1.00
C855   C     0.75000   0.74000   0.83333   0.00000  Uiso   1.00
C856   C     0.75000   0.92666   0.83334   0.00000  Uiso   1.00
O857   O     0.68513   0.83333   0.88093   0.00000  Uiso   1.00
O858   O     0.81487   0.83333   0.78573   0.00000  Uiso   1.00
O859   O     0.81487   0.83333   0.88093   0.00000  Uiso   1.00
O860   O     0.68513   0.83333   0.78573   0.00000  Uiso   1.00
C861   C     0.66414   0.83328   0.83329   0.00000  Uiso   1.00
C862   C     0.83586   0.83338   0.83337   0.00000  Uiso   1.00
Cu863  Cu    0.75000   0.83333   0.88969   0.00000  Uiso   1.00
Cu864  Cu    0.75000   0.83333   0.77697   0.00000  Uiso   1.00
N865   N     0.75000   0.83333   0.69227   0.00000  Uiso   1.00
N866   N     0.75000   0.83333   0.97439   0.00000  Uiso   1.00
C867   C     0.90700   0.85359   0.78714   0.00000  Uiso   1.00
C868   C     0.59300   0.81303   0.87950   0.00000  Uiso   1.00
C869   C     0.90713   0.81350   0.87973   0.00000  Uiso   1.00
C870   C     0.59287   0.85317   0.78694   0.00000  Uiso   1.00
C871   C     0.88412   0.83351   0.83344   0.00000  Uiso   1.00
C872   C     0.61588   0.83315   0.83322   0.00000  Uiso   1.00
C873   C     0.95345   0.81262   0.88004   0.00000  Uiso   1.00
C874   C     0.54655   0.85403   0.78662   0.00000  Uiso   1.00
C875   C     0.95338   0.85442   0.78659   0.00000  Uiso   1.00
C876   C     0.54662   0.81219   0.88004   0.00000  Uiso   1.00
C877   C     0.97674   0.83344   0.83332   0.00000  Uiso   1.00
C878   C     0.52326   0.83320   0.83333   0.00000  Uiso   1.00
C879   C     0.97666   0.79092   0.92590   0.00000  Uiso   1.00
C880   C     0.52334   0.87567   0.74072   0.00000  Uiso   1.00
C881   C     0.97685   0.87588   0.74053   0.00000  Uiso   1.00
C882   C     0.52315   0.79067   0.92606   0.00000  Uiso   1.00
C883   C     0.75000   0.68846   0.83333   0.00000  Uiso   1.00
C884   C     0.75000   0.97821   0.83334   0.00000  Uiso   1.00
H885   H     0.88814   0.86915   0.75213   0.00000  Uiso   1.00
H886   H     0.61186   0.79744   0.91450   0.00000  Uiso   1.00
H887   H     0.88859   0.79790   0.91502   0.00000  Uiso   1.00
H888   H     0.61141   0.86879   0.75166   0.00000  Uiso   1.00
N889   N     0.95283   0.76830   0.97211   0.00000  Uiso   1.00
H890   H     0.96157   0.73122   0.97358   0.00000  Uiso   1.00
H891   H     0.96277   0.78455   0.67726   0.00000  Uiso   1.00
N892   N     0.54717   0.89819   0.69446   0.00000  Uiso   1.00
H893   H     0.53738   0.88169   0.98941   0.00000  Uiso   1.00
H894   H     0.53829   0.93520   0.69269   0.00000  Uiso   1.00
N895   N     0.95435   0.89850   0.69315   0.00000  Uiso   1.00
H896   H     0.93452   0.92696   0.70867   0.00000  Uiso   1.00
H897   H     0.93430   0.87242   0.67302   0.00000  Uiso   1.00
N898   N     0.54565   0.76793   0.97337   0.00000  Uiso   1.00
H899   H     0.56571   0.79395   0.99359   0.00000  Uiso   1.00
H900   H     0.56547   0.73950   0.95775   0.00000  Uiso   1.00
loop_
_geom_bond_atom_site_label_1
_geom_bond_atom_site_label_2
_geom_bond_distance
_geom_bond_site_symmetry_2
_ccdc_geom_bond_type
O1     C5      1.273   .     A
O1     Cu13    1.935   .     S
O2     C6      1.273   .     A
O2     Cu14    1.935   .     S
O3     Cu13    1.935   .     S
O3     C6      1.273   .     A
O4     Cu14    1.935   .     S
O4     C5      1.273   .     A
C5     C33     1.406   .     S
C6     C34     1.406   .     S
O7     C11     1.279   .     A
O7     Cu13    1.968   .     S
O8     C12     1.279   .     A
O8     Cu14    1.968   .     S
O9     C12     1.279   .     A
O9     Cu13    1.968   .     S
O10    C11     1.279   .     A
O10    Cu14    1.968   .     S
C11    C22     1.456   .     S
C12    C21     1.456   .     S
Cu13   N16     1.977   .     S
Cu13   Cu14    2.631   .     S
Cu14   N15     1.977   .     S
N15    N616    1.196   1_554 S
N16    N315    1.196   .     S
C17    C25     1.400   .     A
C17    H35     1.082   .     S
C17    C21     1.395   .     A
C18    C22     1.395   .     A
C18    H36     1.082   .     S
C18    C26     1.400   .     A
C19    C23     1.398   .     A
C19    H37     1.084   .     S
C19    C21     1.395   .     A
C20    H38     1.084   .     S
C20    C22     1.395   .     A
C20    C24     1.398   .     A
C23    C27     1.417   .     A
C23    C29     1.409   .     A
C24    C30     1.409   .     A
C24    C28     1.417   .     A
C25    C31     1.415   .     A
C25    C27     1.419   .     A
C26    C32     1.415   .     A
C26    C28     1.419   .     A
C27    C78     1.404   .     S
C28    C77     1.404   1_455 S
C29    N39     1.437   .     S
C29    C82     1.403   .     S
C30    N42     1.436   .     S
C30    C81     1.403   1_455 S
C31    N45     1.436   .     S
C31    C80     1.403   .     S
C32    N48     1.436   .     S
C32    C79     1.403   1_455 S
C33    C234    1.189   1_545 S
C34    C133    1.189   .     S
N39    H40     1.046   .     S
N39    H341    1.045   .     S
H41    N639    1.045   1_554 S
N42    H44     1.045   .     S
N42    H643    1.045   1_554 S
H43    N342    1.045   .     S
N45    H46     1.045   .     S
N45    H47     1.045   .     S
N48    H50     1.045   .     S
N48    H49     1.045   .     S
O51    C55     1.273   .     A
O51    Cu63    1.935   .     S
O52    C56     1.273   .     A
O52    Cu64    1.935   .     S
O53    Cu63    1.935   .     S
O53    C56     1.273   .     A
O54    Cu64    1.935   .     S
O54    C55     1.273   .     A
C55    C83     1.406   .     S
C56    C84     1.406   .     S
O57    C61     1.279   .     A
O57    Cu63    1.968   .     S
O58    C62     1.279   .     A
O58    Cu64    1.968   .     S
O59    C62     1.279   .     A
O59    Cu63    1.968   .     S
O60    C61     1.279   .     A
O60    Cu64    1.968   .     S
C61    C72     1.456   .     S
C62    C71     1.456   .     S
Cu63   N66     1.977   .     S
Cu63   Cu64    2.631   .     S
Cu64   N65     1.977   .     S
N65    N666    1.196   1_554 S
N66    N365    1.196   .     S
C67    C75     1.400   .     A
C67    H85     1.082   .     S
C67    C71     1.395   .     A
C68    C72     1.395   .     A
C68    H86     1.082   .     S
C68    C76     1.400   .     A
C69    C73     1.398   .     A
C69    H87     1.084   .     S
C69    C71     1.395   .     A
C70    H88     1.084   .     S
C70    C72     1.395   .     A
C70    C74     1.398   .     A
C73    C77     1.417   .     A
C73    C79     1.409   .     A
C74    C80     1.409   .     A
C74    C78     1.417   .     A
C75    C81     1.415   .     A
C75    C77     1.419   .     A
C76    C82     1.415   .     A
C76    C78     1.419   .     A
C77    C28     1.404   1_655 S
C79    N89     1.437   .     S
C79    C32     1.403   1_655 S
C80    N92     1.436   .     S
C81    N95     1.436   .     S
C81    C30     1.403   1_655 S
C82    N98     1.436   .     S
C83    C284    1.189   1_545 S
C84    C183    1.189   .     S
N89    H90     1.046   .     S
N89    H391    1.045   .     S
H91    N689    1.045   1_554 S
N92    H94     1.045   .     S
N92    H693    1.045   1_554 S
H93    N392    1.045   .     S
N95    H96     1.045   .     S
N95    H97     1.045   .     S
N98    H100    1.045   .     S
N98    H99     1.045   .     S
O101   C105    1.273   .     A
O101   Cu113   1.935   .     S
O102   C106    1.273   .     A
O102   Cu114   1.935   .     S
O103   Cu113   1.935   .     S
O103   C106    1.273   .     A
O104   Cu114   1.935   .     S
O104   C105    1.273   .     A
C105   C133    1.406   .     S
C106   C134    1.406   .     S
O107   C111    1.279   .     A
O107   Cu113   1.968   .     S
O108   C112    1.279   .     A
O108   Cu114   1.968   .     S
O109   C112    1.279   .     A
O109   Cu113   1.968   .     S
O110   C111    1.279   .     A
O110   Cu114   1.968   .     S
C111   C122    1.456   .     S
C112   C121    1.456   .     S
Cu113  N116    1.977   .     S
Cu113  Cu114   2.631   .     S
Cu114  N115    1.977   .     S
N115   N716    1.196   1_554 S
N116   N415    1.196   .     S
C117   C125    1.400   .     A
C117   H135    1.082   .     S
C117   C121    1.395   .     A
C118   C122    1.395   .     A
C118   H136    1.082   .     S
C118   C126    1.400   .     A
C119   C123    1.398   .     A
C119   H137    1.084   .     S
C119   C121    1.395   .     A
C120   H138    1.084   .     S
C120   C122    1.395   .     A
C120   C124    1.398   .     A
C123   C127    1.417   .     A
C123   C129    1.409   .     A
C124   C130    1.409   .     A
C124   C128    1.417   .     A
C125   C131    1.415   .     A
C125   C127    1.419   .     A
C126   C132    1.415   .     A
C126   C128    1.419   .     A
C127   C178    1.404   .     S
C128   C177    1.404   1_455 S
C129   N139    1.437   .     S
C129   C182    1.403   .     S
C130   N142    1.436   .     S
C130   C181    1.403   1_455 S
C131   N145    1.436   .     S
C131   C180    1.403   .     S
C132   N148    1.436   .     S
C132   C179    1.403   1_455 S
C134   C233    1.189   .     S
N139   H140    1.046   .     S
N139   H441    1.045   .     S
H141   N739    1.045   1_554 S
N142   H144    1.045   .     S
N142   H743    1.045   1_554 S
H143   N442    1.045   .     S
N145   H146    1.045   .     S
N145   H147    1.045   .     S
N148   H150    1.045   .     S
N148   H149    1.045   .     S
O151   C155    1.273   .     A
O151   Cu163   1.935   .     S
O152   C156    1.273   .     A
O152   Cu164   1.935   .     S
O153   Cu163   1.935   .     S
O153   C156    1.273   .     A
O154   Cu164   1.935   .     S
O154   C155    1.273   .     A
C155   C183    1.406   .     S
C156   C184    1.406   .     S
O157   C161    1.279   .     A
O157   Cu163   1.968   .     S
O158   C162    1.279   .     A
O158   Cu164   1.968   .     S
O159   C162    1.279   .     A
O159   Cu163   1.968   .     S
O160   C161    1.279   .     A
O160   Cu164   1.968   .     S
C161   C172    1.456   .     S
C162   C171    1.456   .     S
Cu163  N166    1.977   .     S
Cu163  Cu164   2.631   .     S
Cu164  N165    1.977   .     S
N165   N766    1.196   1_554 S
N166   N465    1.196   .     S
C167   C175    1.400   .     A
C167   H185    1.082   .     S
C167   C171    1.395   .     A
C168   C172    1.395   .     A
C168   H186    1.082   .     S
C168   C176    1.400   .     A
C169   C173    1.398   .     A
C169   H187    1.084   .     S
C169   C171    1.395   .     A
C170   H188    1.084   .     S
C170   C172    1.395   .     A
C170   C174    1.398   .     A
C173   C177    1.417   .     A
C173   C179    1.409   .     A
C174   C180    1.409   .     A
C174   C178    1.417   .     A
C175   C181    1.415   .     A
C175   C177    1.419   .     A
C176   C182    1.415   .     A
C176   C178    1.419   .     A
C177   C128    1.404   1_655 S
C179   N189    1.437   .     S
C179   C132    1.403   1_655 S
C180   N192    1.436   .     S
C181   N195    1.436   .     S
C181   C130    1.403   1_655 S
C182   N198    1.436   .     S
C184   C283    1.189   .     S
N189   H190    1.046   .     S
N189   H491    1.045   .     S
H191   N789    1.045   1_554 S
N192   H194    1.045   .     S
N192   H793    1.045   1_554 S
H193   N492    1.045   .     S
N195   H196    1.045   .     S
N195   H197    1.045   .     S
N198   H200    1.045   .     S
N198   H199    1.045   .     S
O201   C205    1.273   .     A
O201   Cu213   1.935   .     S
O202   C206    1.273   .     A
O202   Cu214   1.935   .     S
O203   Cu213   1.935   .     S
O203   C206    1.273   .     A
O204   Cu214   1.935   .     S
O204   C205    1.273   .     A
C205   C233    1.406   .     S
C206   C234    1.406   .     S
O207   C211    1.279   .     A
O207   Cu213   1.968   .     S
O208   C212    1.279   .     A
O208   Cu214   1.968   .     S
O209   C212    1.279   .     A
O209   Cu213   1.968   .     S
O210   C211    1.279   .     A
O210   Cu214   1.968   .     S
C211   C222    1.456   .     S
C212   C221    1.456   .     S
Cu213  N216    1.977   .     S
Cu213  Cu214   2.631   .     S
Cu214  N215    1.977   .     S
N215   N816    1.196   1_554 S
N216   N515    1.196   .     S
C217   C225    1.400   .     A
C217   H235    1.082   .     S
C217   C221    1.395   .     A
C218   C222    1.395   .     A
C218   H236    1.082   .     S
C218   C226    1.400   .     A
C219   C223    1.398   .     A
C219   H237    1.084   .     S
C219   C221    1.395   .     A
C220   H238    1.084   .     S
C220   C222    1.395   .     A
C220   C224    1.398   .     A
C223   C227    1.417   .     A
C223   C229    1.409   .     A
C224   C230    1.409   .     A
C224   C228    1.417   .     A
C225   C231    1.415   .     A
C225   C227    1.419   .     A
C226   C232    1.415   .     A
C226   C228    1.419   .     A
C227   C278    1.404   .     S
C228   C277    1.404   1_455 S
C229   N239    1.437   .     S
C229   C282    1.403   .     S
C230   N242    1.436   .     S
C230   C281    1.403   1_455 S
C231   N245    1.436   .     S
C231   C280    1.403   .     S
C232   N248    1.436   .     S
C232   C279    1.403   1_455 S
C234   C33     1.189   1_565 S
N239   H240    1.046   .     S
N239   H541    1.045   .     S
H241   N839    1.045   1_554 S
N242   H244    1.045   .     S
N242   H843    1.045   1_554 S
H243   N542    1.045   .     S
N245   H246    1.045   .     S
N245   H247    1.045   .     S
N248   H250    1.045   .     S
N248   H249    1.045   .     S
O251   C255    1.273   .     A
O251   Cu263   1.935   .     S
O252   C256    1.273   .     A
O252   Cu264   1.935   .     S
O253   Cu263   1.935   .     S
O253   C256    1.273   .     A
O254   Cu264   1.935   .     S
O254   C255    1.273   .     A
C255   C283    1.406   .     S
C256   C284    1.406   .     S
O257   C261    1.279   .     A
O257   Cu263   1.968   .     S
O258   C262    1.279   .     A
O258   Cu264   1.968   .     S
O259   C262    1.279   .     A
O259   Cu263   1.968   .     S
O260   C261    1.279   .     A
O260   Cu264   1.968   .     S
C261   C272    1.456   .     S
C262   C271    1.456   .     S
Cu263  N266    1.977   .     S
Cu263  Cu264   2.631   .     S
Cu264  N265    1.977   .     S
N265   N866    1.196   1_554 S
N266   N565    1.196   .     S
C267   C275    1.400   .     A
C267   H285    1.082   .     S
C267   C271    1.395   .     A
C268   C272    1.395   .     A
C268   H286    1.082   .     S
C268   C276    1.400   .     A
C269   C273    1.398   .     A
C269   H287    1.084   .     S
C269   C271    1.395   .     A
C270   H288    1.084   .     S
C270   C272    1.395   .     A
C270   C274    1.398   .     A
C273   C277    1.417   .     A
C273   C279    1.409   .     A
C274   C280    1.409   .     A
C274   C278    1.417   .     A
C275   C281    1.415   .     A
C275   C277    1.419   .     A
C276   C282    1.415   .     A
C276   C278    1.419   .     A
C277   C228    1.404   1_655 S
C279   N289    1.437   .     S
C279   C232    1.403   1_655 S
C280   N292    1.436   .     S
C281   N295    1.436   .     S
C281   C230    1.403   1_655 S
C282   N298    1.436   .     S
C284   C83     1.189   1_565 S
N289   H290    1.046   .     S
N289   H591    1.045   .     S
H291   N889    1.045   1_554 S
N292   H294    1.045   .     S
N292   H893    1.045   1_554 S
H293   N592    1.045   .     S
N295   H296    1.045   .     S
N295   H297    1.045   .     S
N298   H300    1.045   .     S
N298   H299    1.045   .     S
O301   C305    1.273   .     A
O301   Cu313   1.935   .     S
O302   C306    1.273   .     A
O302   Cu314   1.935   .     S
O303   Cu313   1.935   .     S
O303   C306    1.273   .     A
O304   Cu314   1.935   .     S
O304   C305    1.273   .     A
C305   C333    1.406   .     S
C306   C334    1.406   .     S
O307   C311    1.279   .     A
O307   Cu313   1.968   .     S
O308   C312    1.279   .     A
O308   Cu314   1.968   .     S
O309   C312    1.279   .     A
O309   Cu313   1.968   .     S
O310   C311    1.279   .     A
O310   Cu314   1.968   .     S
C311   C322    1.456   .     S
C312   C321    1.456   .     S
Cu313  N316    1.977   .     S
Cu313  Cu314   2.631   .     S
Cu314  N315    1.977   .     S
N316   N615    1.196   .     S
C317   C325    1.400   .     A
C317   H335    1.082   .     S
C317   C321    1.395   .     A
C318   C322    1.395   .     A
C318   H336    1.082   .     S
C318   C326    1.400   .     A
C319   C323    1.398   .     A
C319   H337    1.084   .     S
C319   C321    1.395   .     A
C320   H338    1.084   .     S
C320   C322    1.395   .     A
C320   C324    1.398   .     A
C323   C327    1.417   .     A
C323   C329    1.409   .     A
C324   C330    1.409   .     A
C324   C328    1.417   .     A
C325   C331    1.415   .     A
C325   C327    1.419   .     A
C326   C332    1.415   .     A
C326   C328    1.419   .     A
C327   C378    1.404   .     S
C328   C377    1.404   1_455 S
C329   N339    1.437   .     S
C329   C382    1.403   .     S
C330   N342    1.436   .     S
C330   C381    1.403   1_455 S
C331   N345    1.436   .     S
C331   C380    1.403   .     S
C332   N348    1.436   .     S
C332   C379    1.403   1_455 S
C333   C534    1.189   1_545 S
C334   C433    1.189   .     S
N339   H340    1.046   .     S
N339   H641    1.045   .     S
N342   H344    1.045   .     S
H343   N642    1.045   .     S
N345   H346    1.045   .     S
N345   H347    1.045   .     S
N348   H350    1.045   .     S
N348   H349    1.045   .     S
O351   C355    1.273   .     A
O351   Cu363   1.935   .     S
O352   C356    1.273   .     A
O352   Cu364   1.935   .     S
O353   Cu363   1.935   .     S
O353   C356    1.273   .     A
O354   Cu364   1.935   .     S
O354   C355    1.273   .     A
C355   C383    1.406   .     S
C356   C384    1.406   .     S
O357   C361    1.279   .     A
O357   Cu363   1.968   .     S
O358   C362    1.279   .     A
O358   Cu364   1.968   .     S
O359   C362    1.279   .     A
O359   Cu363   1.968   .     S
O360   C361    1.279   .     A
O360   Cu364   1.968   .     S
C361   C372    1.456   .     S
C362   C371    1.456   .     S
Cu363  N366    1.977   .     S
Cu363  Cu364   2.631   .     S
Cu364  N365    1.977   .     S
N366   N665    1.196   .     S
C367   C375    1.400   .     A
C367   H385    1.082   .     S
C367   C371    1.395   .     A
C368   C372    1.395   .     A
C368   H386    1.082   .     S
C368   C376    1.400   .     A
C369   C373    1.398   .     A
C369   H387    1.084   .     S
C369   C371    1.395   .     A
C370   H388    1.084   .     S
C370   C372    1.395   .     A
C370   C374    1.398   .     A
C373   C377    1.417   .     A
C373   C379    1.409   .     A
C374   C380    1.409   .     A
C374   C378    1.417   .     A
C375   C381    1.415   .     A
C375   C377    1.419   .     A
C376   C382    1.415   .     A
C376   C378    1.419   .     A
C377   C328    1.404   1_655 S
C379   N389    1.437   .     S
C379   C332    1.403   1_655 S
C380   N392    1.436   .     S
C381   N395    1.436   .     S
C381   C330    1.403   1_655 S
C382   N398    1.436   .     S
C383   C584    1.189   1_545 S
C384   C483    1.189   .     S
N389   H390    1.046   .     S
N389   H691    1.045   .     S
N392   H394    1.045   .     S
H393   N692    1.045   .     S
N395   H396    1.045   .     S
N395   H397    1.045   .     S
N398   H400    1.045   .     S
N398   H399    1.045   .     S
O401   C405    1.273   .     A
O401   Cu413   1.935   .     S
O402   C406    1.273   .     A
O402   Cu414   1.935   .     S
O403   Cu413   1.935   .     S
O403   C406    1.273   .     A
O404   Cu414   1.935   .     S
O404   C405    1.273   .     A
C405   C433    1.406   .     S
C406   C434    1.406   .     S
O407   C411    1.279   .     A
O407   Cu413   1.968   .     S
O408   C412    1.279   .     A
O408   Cu414   1.968   .     S
O409   C412    1.279   .     A
O409   Cu413   1.968   .     S
O410   C411    1.279   .     A
O410   Cu414   1.968   .     S
C411   C422    1.456   .     S
C412   C421    1.456   .     S
Cu413  N416    1.977   .     S
Cu413  Cu414   2.631   .     S
Cu414  N415    1.977   .     S
N416   N715    1.196   .     S
C417   C425    1.400   .     A
C417   H435    1.082   .     S
C417   C421    1.395   .     A
C418   C422    1.395   .     A
C418   H436    1.082   .     S
C418   C426    1.400   .     A
C419   C423    1.398   .     A
C419   H437    1.084   .     S
C419   C421    1.395   .     A
C420   H438    1.084   .     S
C420   C422    1.395   .     A
C420   C424    1.398   .     A
C423   C427    1.417   .     A
C423   C429    1.409   .     A
C424   C430    1.409   .     A
C424   C428    1.417   .     A
C425   C431    1.415   .     A
C425   C427    1.419   .     A
C426   C432    1.415   .     A
C426   C428    1.419   .     A
C427   C478    1.404   .     S
C428   C477    1.404   1_455 S
C429   N439    1.437   .     S
C429   C482    1.403   .     S
C430   N442    1.436   .     S
C430   C481    1.403   1_455 S
C431   N445    1.436   .     S
C431   C480    1.403   .     S
C432   N448    1.436   .     S
C432   C479    1.403   1_455 S
C434   C533    1.189   .     S
N439   H440    1.046   .     S
N439   H741    1.045   .     S
N442   H444    1.045   .     S
H443   N742    1.045   .     S
N445   H446    1.045   .     S
N445   H447    1.045   .     S
N448   H450    1.045   .     S
N448   H449    1.045   .     S
O451   C455    1.273   .     A
O451   Cu463   1.935   .     S
O452   C456    1.273   .     A
O452   Cu464   1.935   .     S
O453   Cu463   1.935   .     S
O453   C456    1.273   .     A
O454   Cu464   1.935   .     S
O454   C455    1.273   .     A
C455   C483    1.406   .     S
C456   C484    1.406   .     S
O457   C461    1.279   .     A
O457   Cu463   1.968   .     S
O458   C462    1.279   .     A
O458   Cu464   1.968   .     S
O459   C462    1.279   .     A
O459   Cu463   1.968   .     S
O460   C461    1.279   .     A
O460   Cu464   1.968   .     S
C461   C472    1.456   .     S
C462   C471    1.456   .     S
Cu463  N466    1.977   .     S
Cu463  Cu464   2.631   .     S
Cu464  N465    1.977   .     S
N466   N765    1.196   .     S
C467   C475    1.400   .     A
C467   H485    1.082   .     S
C467   C471    1.395   .     A
C468   C472    1.395   .     A
C468   H486    1.082   .     S
C468   C476    1.400   .     A
C469   C473    1.398   .     A
C469   H487    1.084   .     S
C469   C471    1.395   .     A
C470   H488    1.084   .     S
C470   C472    1.395   .     A
C470   C474    1.398   .     A
C473   C477    1.417   .     A
C473   C479    1.409   .     A
C474   C480    1.409   .     A
C474   C478    1.417   .     A
C475   C481    1.415   .     A
C475   C477    1.419   .     A
C476   C482    1.415   .     A
C476   C478    1.419   .     A
C477   C428    1.404   1_655 S
C479   N489    1.437   .     S
C479   C432    1.403   1_655 S
C480   N492    1.436   .     S
C481   N495    1.436   .     S
C481   C430    1.403   1_655 S
C482   N498    1.436   .     S
C484   C583    1.189   .     S
N489   H490    1.046   .     S
N489   H791    1.045   .     S
N492   H494    1.045   .     S
H493   N792    1.045   .     S
N495   H496    1.045   .     S
N495   H497    1.045   .     S
N498   H500    1.045   .     S
N498   H499    1.045   .     S
O501   C505    1.273   .     A
O501   Cu513   1.935   .     S
O502   C506    1.273   .     A
O502   Cu514   1.935   .     S
O503   Cu513   1.935   .     S
O503   C506    1.273   .     A
O504   Cu514   1.935   .     S
O504   C505    1.273   .     A
C505   C533    1.406   .     S
C506   C534    1.406   .     S
O507   C511    1.279   .     A
O507   Cu513   1.968   .     S
O508   C512    1.279   .     A
O508   Cu514   1.968   .     S
O509   C512    1.279   .     A
O509   Cu513   1.968   .     S
O510   C511    1.279   .     A
O510   Cu514   1.968   .     S
C511   C522    1.456   .     S
C512   C521    1.456   .     S
Cu513  N516    1.977   .     S
Cu513  Cu514   2.631   .     S
Cu514  N515    1.977   .     S
N516   N815    1.196   .     S
C517   C525    1.400   .     A
C517   H535    1.082   .     S
C517   C521    1.395   .     A
C518   C522    1.395   .     A
C518   H536    1.082   .     S
C518   C526    1.400   .     A
C519   C523    1.398   .     A
C519   H537    1.084   .     S
C519   C521    1.395   .     A
C520   H538    1.084   .     S
C520   C522    1.395   .     A
C520   C524    1.398   .     A
C523   C527    1.417   .     A
C523   C529    1.409   .     A
C524   C530    1.409   .     A
C524   C528    1.417   .     A
C525   C531    1.415   .     A
C525   C527    1.419   .     A
C526   C532    1.415   .     A
C526   C528    1.419   .     A
C527   C578    1.404   .     S
C528   C577    1.404   1_455 S
C529   N539    1.437   .     S
C529   C582    1.403   .     S
C530   N542    1.436   .     S
C530   C581    1.403   1_455 S
C531   N545    1.436   .     S
C531   C580    1.403   .     S
C532   N548    1.436   .     S
C532   C579    1.403   1_455 S
C534   C333    1.189   1_565 S
N539   H540    1.046   .     S
N539   H841    1.045   .     S
N542   H544    1.045   .     S
H543   N842    1.045   .     S
N545   H546    1.045   .     S
N545   H547    1.045   .     S
N548   H550    1.045   .     S
N548   H549    1.045   .     S
O551   C555    1.273   .     A
O551   Cu563   1.935   .     S
O552   C556    1.273   .     A
O552   Cu564   1.935   .     S
O553   Cu563   1.935   .     S
O553   C556    1.273   .     A
O554   Cu564   1.935   .     S
O554   C555    1.273   .     A
C555   C583    1.406   .     S
C556   C584    1.406   .     S
O557   C561    1.279   .     A
O557   Cu563   1.968   .     S
O558   C562    1.279   .     A
O558   Cu564   1.968   .     S
O559   C562    1.279   .     A
O559   Cu563   1.968   .     S
O560   C561    1.279   .     A
O560   Cu564   1.968   .     S
C561   C572    1.456   .     S
C562   C571    1.456   .     S
Cu563  N566    1.977   .     S
Cu563  Cu564   2.631   .     S
Cu564  N565    1.977   .     S
N566   N865    1.196   .     S
C567   C575    1.400   .     A
C567   H585    1.082   .     S
C567   C571    1.395   .     A
C568   C572    1.395   .     A
C568   H586    1.082   .     S
C568   C576    1.400   .     A
C569   C573    1.398   .     A
C569   H587    1.084   .     S
C569   C571    1.395   .     A
C570   H588    1.084   .     S
C570   C572    1.395   .     A
C570   C574    1.398   .     A
C573   C577    1.417   .     A
C573   C579    1.409   .     A
C574   C580    1.409   .     A
C574   C578    1.417   .     A
C575   C581    1.415   .     A
C575   C577    1.419   .     A
C576   C582    1.415   .     A
C576   C578    1.419   .     A
C577   C528    1.404   1_655 S
C579   N589    1.437   .     S
C579   C532    1.403   1_655 S
C580   N592    1.436   .     S
C581   N595    1.436   .     S
C581   C530    1.403   1_655 S
C582   N598    1.436   .     S
C584   C383    1.189   1_565 S
N589   H590    1.046   .     S
N589   H891    1.045   .     S
N592   H594    1.045   .     S
H593   N892    1.045   .     S
N595   H596    1.045   .     S
N595   H597    1.045   .     S
N598   H600    1.045   .     S
N598   H599    1.045   .     S
O601   C605    1.273   .     A
O601   Cu613   1.935   .     S
O602   C606    1.273   .     A
O602   Cu614   1.935   .     S
O603   Cu613   1.935   .     S
O603   C606    1.273   .     A
O604   Cu614   1.935   .     S
O604   C605    1.273   .     A
C605   C633    1.406   .     S
C606   C634    1.406   .     S
O607   C611    1.279   .     A
O607   Cu613   1.968   .     S
O608   C612    1.279   .     A
O608   Cu614   1.968   .     S
O609   C612    1.279   .     A
O609   Cu613   1.968   .     S
O610   C611    1.279   .     A
O610   Cu614   1.968   .     S
C611   C622    1.456   .     S
C612   C621    1.456   .     S
Cu613  N616    1.977   .     S
Cu613  Cu614   2.631   .     S
Cu614  N615    1.977   .     S
N616   N15     1.196   1_556 S
C617   C625    1.400   .     A
C617   H635    1.082   .     S
C617   C621    1.395   .     A
C618   C622    1.395   .     A
C618   H636    1.082   .     S
C618   C626    1.400   .     A
C619   C623    1.398   .     A
C619   H637    1.084   .     S
C619   C621    1.395   .     A
C620   H638    1.084   .     S
C620   C622    1.395   .     A
C620   C624    1.398   .     A
C623   C627    1.417   .     A
C623   C629    1.409   .     A
C624   C630    1.409   .     A
C624   C628    1.417   .     A
C625   C631    1.415   .     A
C625   C627    1.419   .     A
C626   C632    1.415   .     A
C626   C628    1.419   .     A
C627   C678    1.404   .     S
C628   C677    1.404   1_455 S
C629   N639    1.437   .     S
C629   C682    1.403   .     S
C630   N642    1.436   .     S
C630   C681    1.403   1_455 S
C631   N645    1.436   .     S
C631   C680    1.403   .     S
C632   N648    1.436   .     S
C632   C679    1.403   1_455 S
C633   C834    1.189   1_545 S
C634   C733    1.189   .     S
N639   H640    1.046   .     S
N639   H41     1.045   1_556 S
N642   H644    1.045   .     S
H643   N42     1.045   1_556 S
N645   H646    1.045   .     S
N645   H647    1.045   .     S
N648   H650    1.045   .     S
N648   H649    1.045   .     S
O651   C655    1.273   .     A
O651   Cu663   1.935   .     S
O652   C656    1.273   .     A
O652   Cu664   1.935   .     S
O653   Cu663   1.935   .     S
O653   C656    1.273   .     A
O654   Cu664   1.935   .     S
O654   C655    1.273   .     A
C655   C683    1.406   .     S
C656   C684    1.406   .     S
O657   C661    1.279   .     A
O657   Cu663   1.968   .     S
O658   C662    1.279   .     A
O658   Cu664   1.968   .     S
O659   C662    1.279   .     A
O659   Cu663   1.968   .     S
O660   C661    1.279   .     A
O660   Cu664   1.968   .     S
C661   C672    1.456   .     S
C662   C671    1.456   .     S
Cu663  N666    1.977   .     S
Cu663  Cu664   2.631   .     S
Cu664  N665    1.977   .     S
N666   N65     1.196   1_556 S
C667   C675    1.400   .     A
C667   H685    1.082   .     S
C667   C671    1.395   .     A
C668   C672    1.395   .     A
C668   H686    1.082   .     S
C668   C676    1.400   .     A
C669   C673    1.398   .     A
C669   H687    1.084   .     S
C669   C671    1.395   .     A
C670   H688    1.084   .     S
C670   C672    1.395   .     A
C670   C674    1.398   .     A
C673   C677    1.417   .     A
C673   C679    1.409   .     A
C674   C680    1.409   .     A
C674   C678    1.417   .     A
C675   C681    1.415   .     A
C675   C677    1.419   .     A
C676   C682    1.415   .     A
C676   C678    1.419   .     A
C677   C628    1.404   1_655 S
C679   N689    1.437   .     S
C679   C632    1.403   1_655 S
C680   N692    1.436   .     S
C681   N695    1.436   .     S
C681   C630    1.403   1_655 S
C682   N698    1.436   .     S
C683   C884    1.189   1_545 S
C684   C783    1.189   .     S
N689   H690    1.046   .     S
N689   H91     1.045   1_556 S
N692   H694    1.045   .     S
H693   N92     1.045   1_556 S
N695   H696    1.045   .     S
N695   H697    1.045   .     S
N698   H700    1.045   .     S
N698   H699    1.045   .     S
O701   C705    1.273   .     A
O701   Cu713   1.935   .     S
O702   C706    1.273   .     A
O702   Cu714   1.935   .     S
O703   Cu713   1.935   .     S
O703   C706    1.273   .     A
O704   Cu714   1.935   .     S
O704   C705    1.273   .     A
C705   C733    1.406   .     S
C706   C734    1.406   .     S
O707   C711    1.279   .     A
O707   Cu713   1.968   .     S
O708   C712    1.279   .     A
O708   Cu714   1.968   .     S
O709   C712    1.279   .     A
O709   Cu713   1.968   .     S
O710   C711    1.279   .     A
O710   Cu714   1.968   .     S
C711   C722    1.456   .     S
C712   C721    1.456   .     S
Cu713  N716    1.977   .     S
Cu713  Cu714   2.631   .     S
Cu714  N715    1.977   .     S
N716   N115    1.196   1_556 S
C717   C725    1.400   .     A
C717   H735    1.082   .     S
C717   C721    1.395   .     A
C718   C722    1.395   .     A
C718   H736    1.082   .     S
C718   C726    1.400   .     A
C719   C723    1.398   .     A
C719   H737    1.084   .     S
C719   C721    1.395   .     A
C720   H738    1.084   .     S
C720   C722    1.395   .     A
C720   C724    1.398   .     A
C723   C727    1.417   .     A
C723   C729    1.409   .     A
C724   C730    1.409   .     A
C724   C728    1.417   .     A
C725   C731    1.415   .     A
C725   C727    1.419   .     A
C726   C732    1.415   .     A
C726   C728    1.419   .     A
C727   C778    1.404   .     S
C728   C777    1.404   1_455 S
C729   N739    1.437   .     S
C729   C782    1.403   .     S
C730   N742    1.436   .     S
C730   C781    1.403   1_455 S
C731   N745    1.436   .     S
C731   C780    1.403   .     S
C732   N748    1.436   .     S
C732   C779    1.403   1_455 S
C734   C833    1.189   .     S
N739   H740    1.046   .     S
N739   H141    1.045   1_556 S
N742   H744    1.045   .     S
H743   N142    1.045   1_556 S
N745   H746    1.045   .     S
N745   H747    1.045   .     S
N748   H750    1.045   .     S
N748   H749    1.045   .     S
O751   C755    1.273   .     A
O751   Cu763   1.935   .     S
O752   C756    1.273   .     A
O752   Cu764   1.935   .     S
O753   Cu763   1.935   .     S
O753   C756    1.273   .     A
O754   Cu764   1.935   .     S
O754   C755    1.273   .     A
C755   C783    1.406   .     S
C756   C784    1.406   .     S
O757   C761    1.279   .     A
O757   Cu763   1.968   .     S
O758   C762    1.279   .     A
O758   Cu764   1.968   .     S
O759   C762    1.279   .     A
O759   Cu763   1.968   .     S
O760   C761    1.279   .     A
O760   Cu764   1.968   .     S
C761   C772    1.456   .     S
C762   C771    1.456   .     S
Cu763  N766    1.977   .     S
Cu763  Cu764   2.631   .     S
Cu764  N765    1.977   .     S
N766   N165    1.196   1_556 S
C767   C775    1.400   .     A
C767   H785    1.082   .     S
C767   C771    1.395   .     A
C768   C772    1.395   .     A
C768   H786    1.082   .     S
C768   C776    1.400   .     A
C769   C773    1.398   .     A
C769   H787    1.084   .     S
C769   C771    1.395   .     A
C770   H788    1.084   .     S
C770   C772    1.395   .     A
C770   C774    1.398   .     A
C773   C777    1.417   .     A
C773   C779    1.409   .     A
C774   C780    1.409   .     A
C774   C778    1.417   .     A
C775   C781    1.415   .     A
C775   C777    1.419   .     A
C776   C782    1.415   .     A
C776   C778    1.419   .     A
C777   C728    1.404   1_655 S
C779   N789    1.437   .     S
C779   C732    1.403   1_655 S
C780   N792    1.436   .     S
C781   N795    1.436   .     S
C781   C730    1.403   1_655 S
C782   N798    1.436   .     S
C784   C883    1.189   .     S
N789   H790    1.046   .     S
N789   H191    1.045   1_556 S
N792   H794    1.045   .     S
H793   N192    1.045   1_556 S
N795   H796    1.045   .     S
N795   H797    1.045   .     S
N798   H800    1.045   .     S
N798   H799    1.045   .     S
O801   C805    1.273   .     A
O801   Cu813   1.935   .     S
O802   C806    1.273   .     A
O802   Cu814   1.935   .     S
O803   Cu813   1.935   .     S
O803   C806    1.273   .     A
O804   Cu814   1.935   .     S
O804   C805    1.273   .     A
C805   C833    1.406   .     S
C806   C834    1.406   .     S
O807   C811    1.279   .     A
O807   Cu813   1.968   .     S
O808   C812    1.279   .     A
O808   Cu814   1.968   .     S
O809   C812    1.279   .     A
O809   Cu813   1.968   .     S
O810   C811    1.279   .     A
O810   Cu814   1.968   .     S
C811   C822    1.456   .     S
C812   C821    1.456   .     S
Cu813  N816    1.977   .     S
Cu813  Cu814   2.631   .     S
Cu814  N815    1.977   .     S
N816   N215    1.196   1_556 S
C817   C825    1.400   .     A
C817   H835    1.082   .     S
C817   C821    1.395   .     A
C818   C822    1.395   .     A
C818   H836    1.082   .     S
C818   C826    1.400   .     A
C819   C823    1.398   .     A
C819   H837    1.084   .     S
C819   C821    1.395   .     A
C820   H838    1.084   .     S
C820   C822    1.395   .     A
C820   C824    1.398   .     A
C823   C827    1.417   .     A
C823   C829    1.409   .     A
C824   C830    1.409   .     A
C824   C828    1.417   .     A
C825   C831    1.415   .     A
C825   C827    1.419   .     A
C826   C832    1.415   .     A
C826   C828    1.419   .     A
C827   C878    1.404   .     S
C828   C877    1.404   1_455 S
C829   N839    1.437   .     S
C829   C882    1.403   .     S
C830   N842    1.436   .     S
C830   C881    1.403   1_455 S
C831   N845    1.436   .     S
C831   C880    1.403   .     S
C832   N848    1.436   .     S
C832   C879    1.403   1_455 S
C834   C633    1.189   1_565 S
N839   H840    1.046   .     S
N839   H241    1.045   1_556 S
N842   H844    1.045   .     S
H843   N242    1.045   1_556 S
N845   H846    1.045   .     S
N845   H847    1.045   .     S
N848   H850    1.045   .     S
N848   H849    1.045   .     S
O851   C855    1.273   .     A
O851   Cu863   1.935   .     S
O852   C856    1.273   .     A
O852   Cu864   1.935   .     S
O853   Cu863   1.935   .     S
O853   C856    1.273   .     A
O854   Cu864   1.935   .     S
O854   C855    1.273   .     A
C855   C883    1.406   .     S
C856   C884    1.406   .     S
O857   C861    1.279   .     A
O857   Cu863   1.968   .     S
O858   C862    1.279   .     A
O858   Cu864   1.968   .     S
O859   C862    1.279   .     A
O859   Cu863   1.968   .     S
O860   C861    1.279   .     A
O860   Cu864   1.968   .     S
C861   C872    1.456   .     S
C862   C871    1.456   .     S
Cu863  N866    1.977   .     S
Cu863  Cu864   2.631   .     S
Cu864  N865    1.977   .     S
N866   N265    1.196   1_556 S
C867   C875    1.400   .     A
C867   H885    1.082   .     S
C867   C871    1.395   .     A
C868   C872    1.395   .     A
C868   H886    1.082   .     S
C868   C876    1.400   .     A
C869   C873    1.398   .     A
C869   H887    1.084   .     S
C869   C871    1.395   .     A
C870   H888    1.084   .     S
C870   C872    1.395   .     A
C870   C874    1.398   .     A
C873   C877    1.417   .     A
C873   C879    1.409   .     A
C874   C880    1.409   .     A
C874   C878    1.417   .     A
C875   C881    1.415   .     A
C875   C877    1.419   .     A
C876   C882    1.415   .     A
C876   C878    1.419   .     A
C877   C828    1.404   1_655 S
C879   N889    1.437   .     S
C879   C832    1.403   1_655 S
C880   N892    1.436   .     S
C881   N895    1.436   .     S
C881   C830    1.403   1_655 S
C882   N898    1.436   .     S
C884   C683    1.189   1_565 S
N889   H890    1.046   .     S
N889   H291    1.045   1_556 S
N892   H894    1.045   .     S
H893   N292    1.045   1_556 S
N895   H896    1.045   .     S
N895   H897    1.045   .     S
N898   H900    1.045   .     S
N898   H899    1.045   .     S
