data_str_m1_o10_o18_pcu_sym.124
_audit_creation_date              2020-01-03
_audit_creation_method            'Materials Studio'
_symmetry_space_group_name_H-M    'P1'
_symmetry_Int_Tables_number       1
_symmetry_cell_setting            triclinic
loop_
_symmetry_equiv_pos_as_xyz
  x,y,z
_cell_length_a                    32.5371
_cell_length_b                    32.5421
_cell_length_c                    35.4997
_cell_angle_alpha                 98.0588
_cell_angle_beta                  73.1652
_cell_angle_gamma                 98.5652
loop_
_atom_site_label
_atom_site_type_symbol
_atom_site_fract_x
_atom_site_fract_y
_atom_site_fract_z
_atom_site_U_iso_or_equiv
_atom_site_adp_type
_atom_site_occupancy
C1     C     0.05247   0.15983   0.25880   0.00000  Uiso   1.00
C2     C     0.18552   0.11428   0.46004   0.00000  Uiso   1.00
C3     C     0.21404   0.10420   0.47916   0.00000  Uiso   1.00
C4     C     0.28109   0.17356   0.24121   0.00000  Uiso   1.00
C5     C     0.20986   0.11719   0.01927   0.00000  Uiso   1.00
C6     C     0.17278   0.13685   0.04182   0.00000  Uiso   1.00
C7     C     0.24089   0.10946   0.03785   0.00000  Uiso   1.00
C8     C     0.23380   0.11980   0.07861   0.00000  Uiso   1.00
C9     C     0.16662   0.14580   0.08300   0.00000  Uiso   1.00
C10    C     0.32704   0.17624   0.23765   0.00000  Uiso   1.00
C11    C     0.00711   0.15735   0.26222   0.00000  Uiso   1.00
C12    C     0.09264   0.20759   0.42099   0.00000  Uiso   1.00
C13    C     0.18102   0.32218   0.23808   0.00000  Uiso   1.00
C14    C     0.15169   0.01206   0.26217   0.00000  Uiso   1.00
C15    C     0.15599   0.05606   0.25890   0.00000  Uiso   1.00
C16    C     0.17691   0.27769   0.24133   0.00000  Uiso   1.00
C17    C     0.18805   0.14545   0.14387   0.00000  Uiso   1.00
C18    C     0.14510   0.18733   0.35639   0.00000  Uiso   1.00
C19    C     0.13044   0.19004   0.39996   0.00000  Uiso   1.00
C20    C     0.19651   0.13698   0.10104   0.00000  Uiso   1.00
C21    C     0.07636   0.20538   0.46162   0.00000  Uiso   1.00
C22    C     0.18520   0.09019   0.42124   0.00000  Uiso   1.00
C23    C     0.15193   0.17078   0.42025   0.00000  Uiso   1.00
C24    C     0.13403   0.16459   0.46051   0.00000  Uiso   1.00
C25    C     0.09661   0.18406   0.48204   0.00000  Uiso   1.00
C26    C     0.15458   0.14221   0.48032   0.00000  Uiso   1.00
C27    C     0.14422   0.14843   0.02220   0.00000  Uiso   1.00
C28    C     0.10589   0.16632   0.04289   0.00000  Uiso   1.00
C29    C     0.08124   0.18252   0.02336   0.00000  Uiso   1.00
H30    H     0.01672   0.19363   0.21495   0.00000  Uiso   1.00
H31    H     0.18313   0.16107   0.40416   0.00000  Uiso   1.00
H32    H     0.09386   0.16753   0.07453   0.00000  Uiso   1.00
H33    H     0.32460   0.20005   0.11194   0.00000  Uiso   1.00
H34    H     0.01771   0.08524   0.02213   0.00000  Uiso   1.00
H35    H     0.21918   0.06129   0.37010   0.00000  Uiso   1.00
H36    H     0.31809   0.13985   0.28516   0.00000  Uiso   1.00
H37    H     0.20814   0.00282   0.21591   0.00000  Uiso   1.00
H38    H     0.12418   0.33216   0.28440   0.00000  Uiso   1.00
H39    H     0.13952   0.16068   0.10207   0.00000  Uiso   1.00
H40    H     0.25688   0.11373   0.09326   0.00000  Uiso   1.00
H41    H     0.23839   0.08431   0.46268   0.00000  Uiso   1.00
H42    H     0.04790   0.22067   0.47655   0.00000  Uiso   1.00
H43    H     0.07538   0.22280   0.40601   0.00000  Uiso   1.00
O44    O     0.16667   0.16667   0.25000   0.00000  Uiso   1.00
O45    O     0.15693   0.12393   0.16625   0.00000  Uiso   1.00
O46    O     0.12687   0.20646   0.33749   0.00000  Uiso   1.00
O47    O     0.21088   0.17493   0.15877   0.00000  Uiso   1.00
O48    O     0.17198   0.16135   0.33749   0.00000  Uiso   1.00
O49    O     0.04007   0.25005   0.05343   0.00000  Uiso   1.00
O50    O     0.32989   0.18667   0.03452   0.00000  Uiso   1.00
O51    O     0.01982   0.19005   0.09899   0.00000  Uiso   1.00
O52    O     0.27855   0.04289   0.49715   0.00000  Uiso   1.00
O53    O     0.31198   0.11166   0.47633   0.00000  Uiso   1.00
O54    O     0.32248   0.09033   0.04050   0.00000  Uiso   1.00
O55    O     0.17849   0.08101   0.27820   0.00000  Uiso   1.00
O56    O     0.15117   0.08039   0.41234   0.00000  Uiso   1.00
O57    O     0.22364   0.07764   0.39538   0.00000  Uiso   1.00
O58    O     0.14581   0.26136   0.26767   0.00000  Uiso   1.00
O59    O     0.07452   0.13251   0.23607   0.00000  Uiso   1.00
O60    O     0.26785   0.19179   0.21805   0.00000  Uiso   1.00
O61    O     0.06990   0.18960   0.27820   0.00000  Uiso   1.00
O62    O     0.25440   0.15277   0.26767   0.00000  Uiso   1.00
O63    O     0.13800   0.06903   0.23607   0.00000  Uiso   1.00
O64    O     0.20437   0.25527   0.21805   0.00000  Uiso   1.00
S65    S     0.03308   0.20325   0.05244   0.00000  Uiso   1.00
S66    S     0.28936   0.08782   0.01137   0.00000  Uiso   1.00
Zn67   Zn    0.19244   0.14090   0.28277   0.00000  Uiso   1.00
Zn68   Zn    0.13459   0.12378   0.22257   0.00000  Uiso   1.00
Zn69   Zn    0.21166   0.19664   0.21188   0.00000  Uiso   1.00
Zn70   Zn    0.12798   0.20535   0.28277   0.00000  Uiso   1.00
C71    C     0.38581   0.15983   0.25880   0.00000  Uiso   1.00
C72    C     0.51886   0.11428   0.46004   0.00000  Uiso   1.00
C73    C     0.54737   0.10420   0.47916   0.00000  Uiso   1.00
C74    C     0.61443   0.17356   0.24121   0.00000  Uiso   1.00
C75    C     0.54319   0.11719   0.01927   0.00000  Uiso   1.00
C76    C     0.50611   0.13685   0.04182   0.00000  Uiso   1.00
C77    C     0.57423   0.10946   0.03785   0.00000  Uiso   1.00
C78    C     0.56713   0.11980   0.07861   0.00000  Uiso   1.00
C79    C     0.49995   0.14580   0.08300   0.00000  Uiso   1.00
C80    C     0.66037   0.17624   0.23765   0.00000  Uiso   1.00
C81    C     0.34044   0.15735   0.26222   0.00000  Uiso   1.00
C82    C     0.42597   0.20759   0.42099   0.00000  Uiso   1.00
C83    C     0.51435   0.32218   0.23808   0.00000  Uiso   1.00
C84    C     0.48502   0.01206   0.26217   0.00000  Uiso   1.00
C85    C     0.48932   0.05606   0.25890   0.00000  Uiso   1.00
C86    C     0.51024   0.27769   0.24133   0.00000  Uiso   1.00
C87    C     0.52138   0.14545   0.14387   0.00000  Uiso   1.00
C88    C     0.47843   0.18733   0.35639   0.00000  Uiso   1.00
C89    C     0.46377   0.19004   0.39996   0.00000  Uiso   1.00
C90    C     0.52985   0.13698   0.10104   0.00000  Uiso   1.00
C91    C     0.40969   0.20538   0.46162   0.00000  Uiso   1.00
C92    C     0.51854   0.09019   0.42124   0.00000  Uiso   1.00
C93    C     0.48526   0.17078   0.42025   0.00000  Uiso   1.00
C94    C     0.46736   0.16459   0.46051   0.00000  Uiso   1.00
C95    C     0.42994   0.18406   0.48204   0.00000  Uiso   1.00
C96    C     0.48791   0.14221   0.48032   0.00000  Uiso   1.00
C97    C     0.47756   0.14843   0.02220   0.00000  Uiso   1.00
C98    C     0.43922   0.16632   0.04289   0.00000  Uiso   1.00
C99    C     0.41458   0.18252   0.02336   0.00000  Uiso   1.00
H100   H     0.35006   0.19363   0.21495   0.00000  Uiso   1.00
H101   H     0.51646   0.16107   0.40416   0.00000  Uiso   1.00
H102   H     0.42719   0.16753   0.07453   0.00000  Uiso   1.00
H103   H     0.65793   0.20005   0.11194   0.00000  Uiso   1.00
H104   H     0.35105   0.08524   0.02213   0.00000  Uiso   1.00
H105   H     0.55251   0.06129   0.37010   0.00000  Uiso   1.00
H106   H     0.65142   0.13985   0.28516   0.00000  Uiso   1.00
H107   H     0.54147   0.00282   0.21591   0.00000  Uiso   1.00
H108   H     0.45752   0.33216   0.28440   0.00000  Uiso   1.00
H109   H     0.47286   0.16068   0.10207   0.00000  Uiso   1.00
H110   H     0.59021   0.11373   0.09326   0.00000  Uiso   1.00
H111   H     0.57172   0.08431   0.46268   0.00000  Uiso   1.00
H112   H     0.38124   0.22067   0.47655   0.00000  Uiso   1.00
H113   H     0.40871   0.22280   0.40601   0.00000  Uiso   1.00
O114   O     0.50000   0.16667   0.25000   0.00000  Uiso   1.00
O115   O     0.49027   0.12393   0.16625   0.00000  Uiso   1.00
O116   O     0.46020   0.20646   0.33749   0.00000  Uiso   1.00
O117   O     0.54421   0.17493   0.15877   0.00000  Uiso   1.00
O118   O     0.50532   0.16135   0.33749   0.00000  Uiso   1.00
O119   O     0.37341   0.25005   0.05343   0.00000  Uiso   1.00
O120   O     0.66323   0.18667   0.03452   0.00000  Uiso   1.00
O121   O     0.35316   0.19005   0.09899   0.00000  Uiso   1.00
O122   O     0.61189   0.04289   0.49715   0.00000  Uiso   1.00
O123   O     0.64531   0.11166   0.47633   0.00000  Uiso   1.00
O124   O     0.65581   0.09033   0.04050   0.00000  Uiso   1.00
O125   O     0.51182   0.08101   0.27820   0.00000  Uiso   1.00
O126   O     0.48451   0.08039   0.41234   0.00000  Uiso   1.00
O127   O     0.55698   0.07764   0.39538   0.00000  Uiso   1.00
O128   O     0.47914   0.26136   0.26767   0.00000  Uiso   1.00
O129   O     0.40785   0.13251   0.23607   0.00000  Uiso   1.00
O130   O     0.60119   0.19179   0.21805   0.00000  Uiso   1.00
O131   O     0.40323   0.18960   0.27820   0.00000  Uiso   1.00
O132   O     0.58773   0.15277   0.26767   0.00000  Uiso   1.00
O133   O     0.47133   0.06903   0.23607   0.00000  Uiso   1.00
O134   O     0.53771   0.25527   0.21805   0.00000  Uiso   1.00
S135   S     0.36642   0.20325   0.05244   0.00000  Uiso   1.00
S136   S     0.62269   0.08782   0.01137   0.00000  Uiso   1.00
Zn137  Zn    0.52577   0.14090   0.28277   0.00000  Uiso   1.00
Zn138  Zn    0.46792   0.12378   0.22257   0.00000  Uiso   1.00
Zn139  Zn    0.54500   0.19664   0.21188   0.00000  Uiso   1.00
Zn140  Zn    0.46131   0.20535   0.28277   0.00000  Uiso   1.00
C141   C     0.71914   0.15983   0.25880   0.00000  Uiso   1.00
C142   C     0.85219   0.11428   0.46004   0.00000  Uiso   1.00
C143   C     0.88071   0.10420   0.47916   0.00000  Uiso   1.00
C144   C     0.94776   0.17356   0.24121   0.00000  Uiso   1.00
C145   C     0.87653   0.11719   0.01927   0.00000  Uiso   1.00
C146   C     0.83945   0.13685   0.04182   0.00000  Uiso   1.00
C147   C     0.90756   0.10946   0.03785   0.00000  Uiso   1.00
C148   C     0.90047   0.11980   0.07861   0.00000  Uiso   1.00
C149   C     0.83329   0.14580   0.08300   0.00000  Uiso   1.00
C150   C     0.99370   0.17624   0.23765   0.00000  Uiso   1.00
C151   C     0.67378   0.15735   0.26222   0.00000  Uiso   1.00
C152   C     0.75931   0.20759   0.42099   0.00000  Uiso   1.00
C153   C     0.84769   0.32218   0.23808   0.00000  Uiso   1.00
C154   C     0.81835   0.01206   0.26217   0.00000  Uiso   1.00
C155   C     0.82265   0.05606   0.25890   0.00000  Uiso   1.00
C156   C     0.84358   0.27769   0.24133   0.00000  Uiso   1.00
C157   C     0.85472   0.14545   0.14387   0.00000  Uiso   1.00
C158   C     0.81177   0.18733   0.35639   0.00000  Uiso   1.00
C159   C     0.79711   0.19004   0.39996   0.00000  Uiso   1.00
C160   C     0.86318   0.13698   0.10104   0.00000  Uiso   1.00
C161   C     0.74303   0.20538   0.46162   0.00000  Uiso   1.00
C162   C     0.85187   0.09019   0.42124   0.00000  Uiso   1.00
C163   C     0.81859   0.17078   0.42025   0.00000  Uiso   1.00
C164   C     0.80070   0.16459   0.46051   0.00000  Uiso   1.00
C165   C     0.76327   0.18406   0.48204   0.00000  Uiso   1.00
C166   C     0.82124   0.14221   0.48032   0.00000  Uiso   1.00
C167   C     0.81089   0.14843   0.02220   0.00000  Uiso   1.00
C168   C     0.77256   0.16632   0.04289   0.00000  Uiso   1.00
C169   C     0.74791   0.18252   0.02336   0.00000  Uiso   1.00
H170   H     0.68339   0.19363   0.21495   0.00000  Uiso   1.00
H171   H     0.84980   0.16107   0.40416   0.00000  Uiso   1.00
H172   H     0.76052   0.16753   0.07453   0.00000  Uiso   1.00
H173   H     0.99126   0.20005   0.11194   0.00000  Uiso   1.00
H174   H     0.68438   0.08524   0.02213   0.00000  Uiso   1.00
H175   H     0.88585   0.06129   0.37010   0.00000  Uiso   1.00
H176   H     0.98475   0.13985   0.28516   0.00000  Uiso   1.00
H177   H     0.87481   0.00282   0.21591   0.00000  Uiso   1.00
H178   H     0.79085   0.33216   0.28440   0.00000  Uiso   1.00
H179   H     0.80619   0.16068   0.10207   0.00000  Uiso   1.00
H180   H     0.92355   0.11373   0.09326   0.00000  Uiso   1.00
H181   H     0.90505   0.08431   0.46268   0.00000  Uiso   1.00
H182   H     0.71457   0.22067   0.47655   0.00000  Uiso   1.00
H183   H     0.74204   0.22280   0.40601   0.00000  Uiso   1.00
O184   O     0.83333   0.16667   0.25000   0.00000  Uiso   1.00
O185   O     0.82360   0.12393   0.16625   0.00000  Uiso   1.00
O186   O     0.79354   0.20646   0.33749   0.00000  Uiso   1.00
O187   O     0.87755   0.17493   0.15877   0.00000  Uiso   1.00
O188   O     0.83865   0.16135   0.33749   0.00000  Uiso   1.00
O189   O     0.70674   0.25005   0.05343   0.00000  Uiso   1.00
O190   O     0.99656   0.18667   0.03452   0.00000  Uiso   1.00
O191   O     0.68649   0.19005   0.09899   0.00000  Uiso   1.00
O192   O     0.94522   0.04289   0.49715   0.00000  Uiso   1.00
O193   O     0.97864   0.11166   0.47633   0.00000  Uiso   1.00
O194   O     0.98914   0.09033   0.04050   0.00000  Uiso   1.00
O195   O     0.84515   0.08101   0.27820   0.00000  Uiso   1.00
O196   O     0.81784   0.08039   0.41234   0.00000  Uiso   1.00
O197   O     0.89031   0.07764   0.39538   0.00000  Uiso   1.00
O198   O     0.81247   0.26136   0.26767   0.00000  Uiso   1.00
O199   O     0.74119   0.13251   0.23607   0.00000  Uiso   1.00
O200   O     0.93452   0.19179   0.21805   0.00000  Uiso   1.00
O201   O     0.73656   0.18960   0.27820   0.00000  Uiso   1.00
O202   O     0.92106   0.15277   0.26767   0.00000  Uiso   1.00
O203   O     0.80467   0.06903   0.23607   0.00000  Uiso   1.00
O204   O     0.87104   0.25527   0.21805   0.00000  Uiso   1.00
S205   S     0.69975   0.20325   0.05244   0.00000  Uiso   1.00
S206   S     0.95603   0.08782   0.01137   0.00000  Uiso   1.00
Zn207  Zn    0.85910   0.14090   0.28277   0.00000  Uiso   1.00
Zn208  Zn    0.80125   0.12378   0.22257   0.00000  Uiso   1.00
Zn209  Zn    0.87833   0.19664   0.21188   0.00000  Uiso   1.00
Zn210  Zn    0.79465   0.20535   0.28277   0.00000  Uiso   1.00
C211   C     0.05247   0.49317   0.25880   0.00000  Uiso   1.00
C212   C     0.18552   0.44762   0.46004   0.00000  Uiso   1.00
C213   C     0.21404   0.43753   0.47916   0.00000  Uiso   1.00
C214   C     0.28109   0.50689   0.24121   0.00000  Uiso   1.00
C215   C     0.20986   0.45052   0.01927   0.00000  Uiso   1.00
C216   C     0.17278   0.47018   0.04182   0.00000  Uiso   1.00
C217   C     0.24089   0.44279   0.03785   0.00000  Uiso   1.00
C218   C     0.23380   0.45313   0.07861   0.00000  Uiso   1.00
C219   C     0.16662   0.47913   0.08300   0.00000  Uiso   1.00
C220   C     0.32704   0.50957   0.23765   0.00000  Uiso   1.00
C221   C     0.00711   0.49068   0.26222   0.00000  Uiso   1.00
C222   C     0.09264   0.54092   0.42099   0.00000  Uiso   1.00
C223   C     0.18102   0.65551   0.23808   0.00000  Uiso   1.00
C224   C     0.15169   0.34539   0.26217   0.00000  Uiso   1.00
C225   C     0.15599   0.38940   0.25890   0.00000  Uiso   1.00
C226   C     0.17691   0.61103   0.24133   0.00000  Uiso   1.00
C227   C     0.18805   0.47878   0.14387   0.00000  Uiso   1.00
C228   C     0.14510   0.52066   0.35639   0.00000  Uiso   1.00
C229   C     0.13044   0.52337   0.39996   0.00000  Uiso   1.00
C230   C     0.19651   0.47032   0.10104   0.00000  Uiso   1.00
C231   C     0.07636   0.53871   0.46162   0.00000  Uiso   1.00
C232   C     0.18520   0.42353   0.42124   0.00000  Uiso   1.00
C233   C     0.15193   0.50411   0.42025   0.00000  Uiso   1.00
C234   C     0.13403   0.49793   0.46051   0.00000  Uiso   1.00
C235   C     0.09661   0.51740   0.48204   0.00000  Uiso   1.00
C236   C     0.15458   0.47554   0.48032   0.00000  Uiso   1.00
C237   C     0.14422   0.48177   0.02220   0.00000  Uiso   1.00
C238   C     0.10589   0.49965   0.04289   0.00000  Uiso   1.00
C239   C     0.08124   0.51586   0.02336   0.00000  Uiso   1.00
H240   H     0.01672   0.52697   0.21495   0.00000  Uiso   1.00
H241   H     0.18313   0.49441   0.40416   0.00000  Uiso   1.00
H242   H     0.09386   0.50086   0.07453   0.00000  Uiso   1.00
H243   H     0.32460   0.53338   0.11194   0.00000  Uiso   1.00
H244   H     0.01771   0.41857   0.02213   0.00000  Uiso   1.00
H245   H     0.21918   0.39463   0.37010   0.00000  Uiso   1.00
H246   H     0.31809   0.47318   0.28516   0.00000  Uiso   1.00
H247   H     0.20814   0.33615   0.21591   0.00000  Uiso   1.00
H248   H     0.12418   0.66550   0.28440   0.00000  Uiso   1.00
H249   H     0.13952   0.49401   0.10207   0.00000  Uiso   1.00
H250   H     0.25688   0.44706   0.09326   0.00000  Uiso   1.00
H251   H     0.23839   0.41764   0.46268   0.00000  Uiso   1.00
H252   H     0.04790   0.55400   0.47655   0.00000  Uiso   1.00
H253   H     0.07538   0.55613   0.40601   0.00000  Uiso   1.00
O254   O     0.16667   0.50000   0.25000   0.00000  Uiso   1.00
O255   O     0.15693   0.45726   0.16625   0.00000  Uiso   1.00
O256   O     0.12687   0.53979   0.33749   0.00000  Uiso   1.00
O257   O     0.21088   0.50826   0.15877   0.00000  Uiso   1.00
O258   O     0.17198   0.49468   0.33749   0.00000  Uiso   1.00
O259   O     0.04007   0.58339   0.05343   0.00000  Uiso   1.00
O260   O     0.32989   0.52001   0.03452   0.00000  Uiso   1.00
O261   O     0.01982   0.52339   0.09899   0.00000  Uiso   1.00
O262   O     0.27855   0.37622   0.49715   0.00000  Uiso   1.00
O263   O     0.31198   0.44500   0.47633   0.00000  Uiso   1.00
O264   O     0.32248   0.42366   0.04050   0.00000  Uiso   1.00
O265   O     0.17849   0.41434   0.27820   0.00000  Uiso   1.00
O266   O     0.15117   0.41372   0.41234   0.00000  Uiso   1.00
O267   O     0.22364   0.41097   0.39538   0.00000  Uiso   1.00
O268   O     0.14581   0.59469   0.26767   0.00000  Uiso   1.00
O269   O     0.07452   0.46584   0.23607   0.00000  Uiso   1.00
O270   O     0.26785   0.52512   0.21805   0.00000  Uiso   1.00
O271   O     0.06990   0.52293   0.27820   0.00000  Uiso   1.00
O272   O     0.25440   0.48610   0.26767   0.00000  Uiso   1.00
O273   O     0.13800   0.40236   0.23607   0.00000  Uiso   1.00
O274   O     0.20437   0.58860   0.21805   0.00000  Uiso   1.00
S275   S     0.03308   0.53659   0.05244   0.00000  Uiso   1.00
S276   S     0.28936   0.42115   0.01137   0.00000  Uiso   1.00
Zn277  Zn    0.19244   0.47423   0.28277   0.00000  Uiso   1.00
Zn278  Zn    0.13459   0.45711   0.22257   0.00000  Uiso   1.00
Zn279  Zn    0.21166   0.52997   0.21188   0.00000  Uiso   1.00
Zn280  Zn    0.12798   0.53868   0.28277   0.00000  Uiso   1.00
C281   C     0.38581   0.49317   0.25880   0.00000  Uiso   1.00
C282   C     0.51886   0.44762   0.46004   0.00000  Uiso   1.00
C283   C     0.54737   0.43753   0.47916   0.00000  Uiso   1.00
C284   C     0.61443   0.50689   0.24121   0.00000  Uiso   1.00
C285   C     0.54319   0.45052   0.01927   0.00000  Uiso   1.00
C286   C     0.50611   0.47018   0.04182   0.00000  Uiso   1.00
C287   C     0.57423   0.44279   0.03785   0.00000  Uiso   1.00
C288   C     0.56713   0.45313   0.07861   0.00000  Uiso   1.00
C289   C     0.49995   0.47913   0.08300   0.00000  Uiso   1.00
C290   C     0.66037   0.50957   0.23765   0.00000  Uiso   1.00
C291   C     0.34044   0.49068   0.26222   0.00000  Uiso   1.00
C292   C     0.42597   0.54092   0.42099   0.00000  Uiso   1.00
C293   C     0.51435   0.65551   0.23808   0.00000  Uiso   1.00
C294   C     0.48502   0.34539   0.26217   0.00000  Uiso   1.00
C295   C     0.48932   0.38940   0.25890   0.00000  Uiso   1.00
C296   C     0.51024   0.61103   0.24133   0.00000  Uiso   1.00
C297   C     0.52138   0.47878   0.14387   0.00000  Uiso   1.00
C298   C     0.47843   0.52066   0.35639   0.00000  Uiso   1.00
C299   C     0.46377   0.52337   0.39996   0.00000  Uiso   1.00
C300   C     0.52985   0.47032   0.10104   0.00000  Uiso   1.00
C301   C     0.40969   0.53871   0.46162   0.00000  Uiso   1.00
C302   C     0.51854   0.42353   0.42124   0.00000  Uiso   1.00
C303   C     0.48526   0.50411   0.42025   0.00000  Uiso   1.00
C304   C     0.46736   0.49793   0.46051   0.00000  Uiso   1.00
C305   C     0.42994   0.51740   0.48204   0.00000  Uiso   1.00
C306   C     0.48791   0.47554   0.48032   0.00000  Uiso   1.00
C307   C     0.47756   0.48177   0.02220   0.00000  Uiso   1.00
C308   C     0.43922   0.49965   0.04289   0.00000  Uiso   1.00
C309   C     0.41458   0.51586   0.02336   0.00000  Uiso   1.00
H310   H     0.35006   0.52697   0.21495   0.00000  Uiso   1.00
H311   H     0.51646   0.49441   0.40416   0.00000  Uiso   1.00
H312   H     0.42719   0.50086   0.07453   0.00000  Uiso   1.00
H313   H     0.65793   0.53338   0.11194   0.00000  Uiso   1.00
H314   H     0.35105   0.41857   0.02213   0.00000  Uiso   1.00
H315   H     0.55251   0.39463   0.37010   0.00000  Uiso   1.00
H316   H     0.65142   0.47318   0.28516   0.00000  Uiso   1.00
H317   H     0.54147   0.33615   0.21591   0.00000  Uiso   1.00
H318   H     0.45752   0.66550   0.28440   0.00000  Uiso   1.00
H319   H     0.47286   0.49401   0.10207   0.00000  Uiso   1.00
H320   H     0.59021   0.44706   0.09326   0.00000  Uiso   1.00
H321   H     0.57172   0.41764   0.46268   0.00000  Uiso   1.00
H322   H     0.38124   0.55400   0.47655   0.00000  Uiso   1.00
H323   H     0.40871   0.55613   0.40601   0.00000  Uiso   1.00
O324   O     0.50000   0.50000   0.25000   0.00000  Uiso   1.00
O325   O     0.49027   0.45726   0.16625   0.00000  Uiso   1.00
O326   O     0.46020   0.53979   0.33749   0.00000  Uiso   1.00
O327   O     0.54421   0.50826   0.15877   0.00000  Uiso   1.00
O328   O     0.50532   0.49468   0.33749   0.00000  Uiso   1.00
O329   O     0.37341   0.58339   0.05343   0.00000  Uiso   1.00
O330   O     0.66323   0.52001   0.03452   0.00000  Uiso   1.00
O331   O     0.35316   0.52339   0.09899   0.00000  Uiso   1.00
O332   O     0.61189   0.37622   0.49715   0.00000  Uiso   1.00
O333   O     0.64531   0.44500   0.47633   0.00000  Uiso   1.00
O334   O     0.65581   0.42366   0.04050   0.00000  Uiso   1.00
O335   O     0.51182   0.41434   0.27820   0.00000  Uiso   1.00
O336   O     0.48451   0.41372   0.41234   0.00000  Uiso   1.00
O337   O     0.55698   0.41097   0.39538   0.00000  Uiso   1.00
O338   O     0.47914   0.59469   0.26767   0.00000  Uiso   1.00
O339   O     0.40785   0.46584   0.23607   0.00000  Uiso   1.00
O340   O     0.60119   0.52512   0.21805   0.00000  Uiso   1.00
O341   O     0.40323   0.52293   0.27820   0.00000  Uiso   1.00
O342   O     0.58773   0.48610   0.26767   0.00000  Uiso   1.00
O343   O     0.47133   0.40236   0.23607   0.00000  Uiso   1.00
O344   O     0.53771   0.58860   0.21805   0.00000  Uiso   1.00
S345   S     0.36642   0.53659   0.05244   0.00000  Uiso   1.00
S346   S     0.62269   0.42115   0.01137   0.00000  Uiso   1.00
Zn347  Zn    0.52577   0.47423   0.28277   0.00000  Uiso   1.00
Zn348  Zn    0.46792   0.45711   0.22257   0.00000  Uiso   1.00
Zn349  Zn    0.54500   0.52997   0.21188   0.00000  Uiso   1.00
Zn350  Zn    0.46131   0.53868   0.28277   0.00000  Uiso   1.00
C351   C     0.71914   0.49317   0.25880   0.00000  Uiso   1.00
C352   C     0.85219   0.44762   0.46004   0.00000  Uiso   1.00
C353   C     0.88071   0.43753   0.47916   0.00000  Uiso   1.00
C354   C     0.94776   0.50689   0.24121   0.00000  Uiso   1.00
C355   C     0.87653   0.45052   0.01927   0.00000  Uiso   1.00
C356   C     0.83945   0.47018   0.04182   0.00000  Uiso   1.00
C357   C     0.90756   0.44279   0.03785   0.00000  Uiso   1.00
C358   C     0.90047   0.45313   0.07861   0.00000  Uiso   1.00
C359   C     0.83329   0.47913   0.08300   0.00000  Uiso   1.00
C360   C     0.99370   0.50957   0.23765   0.00000  Uiso   1.00
C361   C     0.67378   0.49068   0.26222   0.00000  Uiso   1.00
C362   C     0.75931   0.54092   0.42099   0.00000  Uiso   1.00
C363   C     0.84769   0.65551   0.23808   0.00000  Uiso   1.00
C364   C     0.81835   0.34539   0.26217   0.00000  Uiso   1.00
C365   C     0.82265   0.38940   0.25890   0.00000  Uiso   1.00
C366   C     0.84358   0.61103   0.24133   0.00000  Uiso   1.00
C367   C     0.85472   0.47878   0.14387   0.00000  Uiso   1.00
C368   C     0.81177   0.52066   0.35639   0.00000  Uiso   1.00
C369   C     0.79711   0.52337   0.39996   0.00000  Uiso   1.00
C370   C     0.86318   0.47032   0.10104   0.00000  Uiso   1.00
C371   C     0.74303   0.53871   0.46162   0.00000  Uiso   1.00
C372   C     0.85187   0.42353   0.42124   0.00000  Uiso   1.00
C373   C     0.81859   0.50411   0.42025   0.00000  Uiso   1.00
C374   C     0.80070   0.49793   0.46051   0.00000  Uiso   1.00
C375   C     0.76327   0.51740   0.48204   0.00000  Uiso   1.00
C376   C     0.82124   0.47554   0.48032   0.00000  Uiso   1.00
C377   C     0.81089   0.48177   0.02220   0.00000  Uiso   1.00
C378   C     0.77256   0.49965   0.04289   0.00000  Uiso   1.00
C379   C     0.74791   0.51586   0.02336   0.00000  Uiso   1.00
H380   H     0.68339   0.52697   0.21495   0.00000  Uiso   1.00
H381   H     0.84980   0.49441   0.40416   0.00000  Uiso   1.00
H382   H     0.76052   0.50086   0.07453   0.00000  Uiso   1.00
H383   H     0.99126   0.53338   0.11194   0.00000  Uiso   1.00
H384   H     0.68438   0.41857   0.02213   0.00000  Uiso   1.00
H385   H     0.88585   0.39463   0.37010   0.00000  Uiso   1.00
H386   H     0.98475   0.47318   0.28516   0.00000  Uiso   1.00
H387   H     0.87481   0.33615   0.21591   0.00000  Uiso   1.00
H388   H     0.79085   0.66550   0.28440   0.00000  Uiso   1.00
H389   H     0.80619   0.49401   0.10207   0.00000  Uiso   1.00
H390   H     0.92355   0.44706   0.09326   0.00000  Uiso   1.00
H391   H     0.90505   0.41764   0.46268   0.00000  Uiso   1.00
H392   H     0.71457   0.55400   0.47655   0.00000  Uiso   1.00
H393   H     0.74204   0.55613   0.40601   0.00000  Uiso   1.00
O394   O     0.83333   0.50000   0.25000   0.00000  Uiso   1.00
O395   O     0.82360   0.45726   0.16625   0.00000  Uiso   1.00
O396   O     0.79354   0.53979   0.33749   0.00000  Uiso   1.00
O397   O     0.87755   0.50826   0.15877   0.00000  Uiso   1.00
O398   O     0.83865   0.49468   0.33749   0.00000  Uiso   1.00
O399   O     0.70674   0.58339   0.05343   0.00000  Uiso   1.00
O400   O     0.99656   0.52001   0.03452   0.00000  Uiso   1.00
O401   O     0.68649   0.52339   0.09899   0.00000  Uiso   1.00
O402   O     0.94522   0.37622   0.49715   0.00000  Uiso   1.00
O403   O     0.97864   0.44500   0.47633   0.00000  Uiso   1.00
O404   O     0.98914   0.42366   0.04050   0.00000  Uiso   1.00
O405   O     0.84515   0.41434   0.27820   0.00000  Uiso   1.00
O406   O     0.81784   0.41372   0.41234   0.00000  Uiso   1.00
O407   O     0.89031   0.41097   0.39538   0.00000  Uiso   1.00
O408   O     0.81247   0.59469   0.26767   0.00000  Uiso   1.00
O409   O     0.74119   0.46584   0.23607   0.00000  Uiso   1.00
O410   O     0.93452   0.52512   0.21805   0.00000  Uiso   1.00
O411   O     0.73656   0.52293   0.27820   0.00000  Uiso   1.00
O412   O     0.92106   0.48610   0.26767   0.00000  Uiso   1.00
O413   O     0.80467   0.40236   0.23607   0.00000  Uiso   1.00
O414   O     0.87104   0.58860   0.21805   0.00000  Uiso   1.00
S415   S     0.69975   0.53659   0.05244   0.00000  Uiso   1.00
S416   S     0.95603   0.42115   0.01137   0.00000  Uiso   1.00
Zn417  Zn    0.85910   0.47423   0.28277   0.00000  Uiso   1.00
Zn418  Zn    0.80125   0.45711   0.22257   0.00000  Uiso   1.00
Zn419  Zn    0.87833   0.52997   0.21188   0.00000  Uiso   1.00
Zn420  Zn    0.79465   0.53868   0.28277   0.00000  Uiso   1.00
C421   C     0.05247   0.82650   0.25880   0.00000  Uiso   1.00
C422   C     0.18552   0.78095   0.46004   0.00000  Uiso   1.00
C423   C     0.21404   0.77087   0.47916   0.00000  Uiso   1.00
C424   C     0.28109   0.84022   0.24121   0.00000  Uiso   1.00
C425   C     0.20986   0.78386   0.01927   0.00000  Uiso   1.00
C426   C     0.17278   0.80352   0.04182   0.00000  Uiso   1.00
C427   C     0.24089   0.77612   0.03785   0.00000  Uiso   1.00
C428   C     0.23380   0.78647   0.07861   0.00000  Uiso   1.00
C429   C     0.16662   0.81246   0.08300   0.00000  Uiso   1.00
C430   C     0.32704   0.84290   0.23765   0.00000  Uiso   1.00
C431   C     0.00711   0.82401   0.26222   0.00000  Uiso   1.00
C432   C     0.09264   0.87425   0.42099   0.00000  Uiso   1.00
C433   C     0.18102   0.98885   0.23808   0.00000  Uiso   1.00
C434   C     0.15169   0.67872   0.26217   0.00000  Uiso   1.00
C435   C     0.15599   0.72273   0.25890   0.00000  Uiso   1.00
C436   C     0.17691   0.94436   0.24133   0.00000  Uiso   1.00
C437   C     0.18805   0.81212   0.14387   0.00000  Uiso   1.00
C438   C     0.14510   0.85400   0.35639   0.00000  Uiso   1.00
C439   C     0.13044   0.85670   0.39996   0.00000  Uiso   1.00
C440   C     0.19651   0.80365   0.10104   0.00000  Uiso   1.00
C441   C     0.07636   0.87204   0.46162   0.00000  Uiso   1.00
C442   C     0.18520   0.75686   0.42124   0.00000  Uiso   1.00
C443   C     0.15193   0.83744   0.42025   0.00000  Uiso   1.00
C444   C     0.13403   0.83126   0.46051   0.00000  Uiso   1.00
C445   C     0.09661   0.85073   0.48204   0.00000  Uiso   1.00
C446   C     0.15458   0.80887   0.48032   0.00000  Uiso   1.00
C447   C     0.14422   0.81510   0.02220   0.00000  Uiso   1.00
C448   C     0.10589   0.83298   0.04289   0.00000  Uiso   1.00
C449   C     0.08124   0.84919   0.02336   0.00000  Uiso   1.00
H450   H     0.01672   0.86030   0.21495   0.00000  Uiso   1.00
H451   H     0.18313   0.82774   0.40416   0.00000  Uiso   1.00
H452   H     0.09386   0.83419   0.07453   0.00000  Uiso   1.00
H453   H     0.32460   0.86672   0.11194   0.00000  Uiso   1.00
H454   H     0.01771   0.75190   0.02213   0.00000  Uiso   1.00
H455   H     0.21918   0.72796   0.37010   0.00000  Uiso   1.00
H456   H     0.31809   0.80651   0.28516   0.00000  Uiso   1.00
H457   H     0.20814   0.66948   0.21591   0.00000  Uiso   1.00
H458   H     0.12418   0.99883   0.28440   0.00000  Uiso   1.00
H459   H     0.13952   0.82735   0.10207   0.00000  Uiso   1.00
H460   H     0.25688   0.78039   0.09326   0.00000  Uiso   1.00
H461   H     0.23839   0.75098   0.46268   0.00000  Uiso   1.00
H462   H     0.04790   0.88733   0.47655   0.00000  Uiso   1.00
H463   H     0.07538   0.88946   0.40601   0.00000  Uiso   1.00
O464   O     0.16667   0.83333   0.25000   0.00000  Uiso   1.00
O465   O     0.15693   0.79060   0.16625   0.00000  Uiso   1.00
O466   O     0.12687   0.87313   0.33749   0.00000  Uiso   1.00
O467   O     0.21088   0.84159   0.15877   0.00000  Uiso   1.00
O468   O     0.17198   0.82802   0.33749   0.00000  Uiso   1.00
O469   O     0.04007   0.91672   0.05343   0.00000  Uiso   1.00
O470   O     0.32989   0.85334   0.03452   0.00000  Uiso   1.00
O471   O     0.01982   0.85672   0.09899   0.00000  Uiso   1.00
O472   O     0.27855   0.70956   0.49715   0.00000  Uiso   1.00
O473   O     0.31198   0.77833   0.47633   0.00000  Uiso   1.00
O474   O     0.32248   0.75699   0.04050   0.00000  Uiso   1.00
O475   O     0.17849   0.74768   0.27820   0.00000  Uiso   1.00
O476   O     0.15117   0.74706   0.41234   0.00000  Uiso   1.00
O477   O     0.22364   0.74430   0.39538   0.00000  Uiso   1.00
O478   O     0.14581   0.92803   0.26767   0.00000  Uiso   1.00
O479   O     0.07452   0.79917   0.23607   0.00000  Uiso   1.00
O480   O     0.26785   0.85845   0.21805   0.00000  Uiso   1.00
O481   O     0.06990   0.85627   0.27820   0.00000  Uiso   1.00
O482   O     0.25440   0.81944   0.26767   0.00000  Uiso   1.00
O483   O     0.13800   0.73570   0.23607   0.00000  Uiso   1.00
O484   O     0.20437   0.92193   0.21805   0.00000  Uiso   1.00
S485   S     0.03308   0.86992   0.05244   0.00000  Uiso   1.00
S486   S     0.28936   0.75448   0.01137   0.00000  Uiso   1.00
Zn487  Zn    0.19244   0.80756   0.28277   0.00000  Uiso   1.00
Zn488  Zn    0.13459   0.79044   0.22257   0.00000  Uiso   1.00
Zn489  Zn    0.21166   0.86331   0.21188   0.00000  Uiso   1.00
Zn490  Zn    0.12798   0.87202   0.28277   0.00000  Uiso   1.00
C491   C     0.38581   0.82650   0.25880   0.00000  Uiso   1.00
C492   C     0.51886   0.78095   0.46004   0.00000  Uiso   1.00
C493   C     0.54737   0.77087   0.47916   0.00000  Uiso   1.00
C494   C     0.61443   0.84022   0.24121   0.00000  Uiso   1.00
C495   C     0.54319   0.78386   0.01927   0.00000  Uiso   1.00
C496   C     0.50611   0.80352   0.04182   0.00000  Uiso   1.00
C497   C     0.57423   0.77612   0.03785   0.00000  Uiso   1.00
C498   C     0.56713   0.78647   0.07861   0.00000  Uiso   1.00
C499   C     0.49995   0.81246   0.08300   0.00000  Uiso   1.00
C500   C     0.66037   0.84290   0.23765   0.00000  Uiso   1.00
C501   C     0.34044   0.82401   0.26222   0.00000  Uiso   1.00
C502   C     0.42597   0.87425   0.42099   0.00000  Uiso   1.00
C503   C     0.51435   0.98885   0.23808   0.00000  Uiso   1.00
C504   C     0.48502   0.67872   0.26217   0.00000  Uiso   1.00
C505   C     0.48932   0.72273   0.25890   0.00000  Uiso   1.00
C506   C     0.51024   0.94436   0.24133   0.00000  Uiso   1.00
C507   C     0.52138   0.81212   0.14387   0.00000  Uiso   1.00
C508   C     0.47843   0.85400   0.35639   0.00000  Uiso   1.00
C509   C     0.46377   0.85670   0.39996   0.00000  Uiso   1.00
C510   C     0.52985   0.80365   0.10104   0.00000  Uiso   1.00
C511   C     0.40969   0.87204   0.46162   0.00000  Uiso   1.00
C512   C     0.51854   0.75686   0.42124   0.00000  Uiso   1.00
C513   C     0.48526   0.83744   0.42025   0.00000  Uiso   1.00
C514   C     0.46736   0.83126   0.46051   0.00000  Uiso   1.00
C515   C     0.42994   0.85073   0.48204   0.00000  Uiso   1.00
C516   C     0.48791   0.80887   0.48032   0.00000  Uiso   1.00
C517   C     0.47756   0.81510   0.02220   0.00000  Uiso   1.00
C518   C     0.43922   0.83298   0.04289   0.00000  Uiso   1.00
C519   C     0.41458   0.84919   0.02336   0.00000  Uiso   1.00
H520   H     0.35006   0.86030   0.21495   0.00000  Uiso   1.00
H521   H     0.51646   0.82774   0.40416   0.00000  Uiso   1.00
H522   H     0.42719   0.83419   0.07453   0.00000  Uiso   1.00
H523   H     0.65793   0.86672   0.11194   0.00000  Uiso   1.00
H524   H     0.35105   0.75190   0.02213   0.00000  Uiso   1.00
H525   H     0.55251   0.72796   0.37010   0.00000  Uiso   1.00
H526   H     0.65142   0.80651   0.28516   0.00000  Uiso   1.00
H527   H     0.54147   0.66948   0.21591   0.00000  Uiso   1.00
H528   H     0.45752   0.99883   0.28440   0.00000  Uiso   1.00
H529   H     0.47286   0.82735   0.10207   0.00000  Uiso   1.00
H530   H     0.59021   0.78039   0.09326   0.00000  Uiso   1.00
H531   H     0.57172   0.75098   0.46268   0.00000  Uiso   1.00
H532   H     0.38124   0.88733   0.47655   0.00000  Uiso   1.00
H533   H     0.40871   0.88946   0.40601   0.00000  Uiso   1.00
O534   O     0.50000   0.83333   0.25000   0.00000  Uiso   1.00
O535   O     0.49027   0.79060   0.16625   0.00000  Uiso   1.00
O536   O     0.46020   0.87313   0.33749   0.00000  Uiso   1.00
O537   O     0.54421   0.84159   0.15877   0.00000  Uiso   1.00
O538   O     0.50532   0.82802   0.33749   0.00000  Uiso   1.00
O539   O     0.37341   0.91672   0.05343   0.00000  Uiso   1.00
O540   O     0.66323   0.85334   0.03452   0.00000  Uiso   1.00
O541   O     0.35316   0.85672   0.09899   0.00000  Uiso   1.00
O542   O     0.61189   0.70956   0.49715   0.00000  Uiso   1.00
O543   O     0.64531   0.77833   0.47633   0.00000  Uiso   1.00
O544   O     0.65581   0.75699   0.04050   0.00000  Uiso   1.00
O545   O     0.51182   0.74768   0.27820   0.00000  Uiso   1.00
O546   O     0.48451   0.74706   0.41234   0.00000  Uiso   1.00
O547   O     0.55698   0.74430   0.39538   0.00000  Uiso   1.00
O548   O     0.47914   0.92803   0.26767   0.00000  Uiso   1.00
O549   O     0.40785   0.79917   0.23607   0.00000  Uiso   1.00
O550   O     0.60119   0.85845   0.21805   0.00000  Uiso   1.00
O551   O     0.40323   0.85627   0.27820   0.00000  Uiso   1.00
O552   O     0.58773   0.81944   0.26767   0.00000  Uiso   1.00
O553   O     0.47133   0.73570   0.23607   0.00000  Uiso   1.00
O554   O     0.53771   0.92193   0.21805   0.00000  Uiso   1.00
S555   S     0.36642   0.86992   0.05244   0.00000  Uiso   1.00
S556   S     0.62269   0.75448   0.01137   0.00000  Uiso   1.00
Zn557  Zn    0.52577   0.80756   0.28277   0.00000  Uiso   1.00
Zn558  Zn    0.46792   0.79044   0.22257   0.00000  Uiso   1.00
Zn559  Zn    0.54500   0.86331   0.21188   0.00000  Uiso   1.00
Zn560  Zn    0.46131   0.87202   0.28277   0.00000  Uiso   1.00
C561   C     0.71914   0.82650   0.25880   0.00000  Uiso   1.00
C562   C     0.85219   0.78095   0.46004   0.00000  Uiso   1.00
C563   C     0.88071   0.77087   0.47916   0.00000  Uiso   1.00
C564   C     0.94776   0.84022   0.24121   0.00000  Uiso   1.00
C565   C     0.87653   0.78386   0.01927   0.00000  Uiso   1.00
C566   C     0.83945   0.80352   0.04182   0.00000  Uiso   1.00
C567   C     0.90756   0.77612   0.03785   0.00000  Uiso   1.00
C568   C     0.90047   0.78647   0.07861   0.00000  Uiso   1.00
C569   C     0.83329   0.81246   0.08300   0.00000  Uiso   1.00
C570   C     0.99370   0.84290   0.23765   0.00000  Uiso   1.00
C571   C     0.67378   0.82401   0.26222   0.00000  Uiso   1.00
C572   C     0.75931   0.87425   0.42099   0.00000  Uiso   1.00
C573   C     0.84769   0.98885   0.23808   0.00000  Uiso   1.00
C574   C     0.81835   0.67872   0.26217   0.00000  Uiso   1.00
C575   C     0.82265   0.72273   0.25890   0.00000  Uiso   1.00
C576   C     0.84358   0.94436   0.24133   0.00000  Uiso   1.00
C577   C     0.85472   0.81212   0.14387   0.00000  Uiso   1.00
C578   C     0.81177   0.85400   0.35639   0.00000  Uiso   1.00
C579   C     0.79711   0.85670   0.39996   0.00000  Uiso   1.00
C580   C     0.86318   0.80365   0.10104   0.00000  Uiso   1.00
C581   C     0.74303   0.87204   0.46162   0.00000  Uiso   1.00
C582   C     0.85187   0.75686   0.42124   0.00000  Uiso   1.00
C583   C     0.81859   0.83744   0.42025   0.00000  Uiso   1.00
C584   C     0.80070   0.83126   0.46051   0.00000  Uiso   1.00
C585   C     0.76327   0.85073   0.48204   0.00000  Uiso   1.00
C586   C     0.82124   0.80887   0.48032   0.00000  Uiso   1.00
C587   C     0.81089   0.81510   0.02220   0.00000  Uiso   1.00
C588   C     0.77256   0.83298   0.04289   0.00000  Uiso   1.00
C589   C     0.74791   0.84919   0.02336   0.00000  Uiso   1.00
H590   H     0.68339   0.86030   0.21495   0.00000  Uiso   1.00
H591   H     0.84980   0.82774   0.40416   0.00000  Uiso   1.00
H592   H     0.76052   0.83419   0.07453   0.00000  Uiso   1.00
H593   H     0.99126   0.86672   0.11194   0.00000  Uiso   1.00
H594   H     0.68438   0.75190   0.02213   0.00000  Uiso   1.00
H595   H     0.88585   0.72796   0.37010   0.00000  Uiso   1.00
H596   H     0.98475   0.80651   0.28516   0.00000  Uiso   1.00
H597   H     0.87481   0.66948   0.21591   0.00000  Uiso   1.00
H598   H     0.79085   0.99883   0.28440   0.00000  Uiso   1.00
H599   H     0.80619   0.82735   0.10207   0.00000  Uiso   1.00
H600   H     0.92355   0.78039   0.09326   0.00000  Uiso   1.00
H601   H     0.90505   0.75098   0.46268   0.00000  Uiso   1.00
H602   H     0.71457   0.88733   0.47655   0.00000  Uiso   1.00
H603   H     0.74204   0.88946   0.40601   0.00000  Uiso   1.00
O604   O     0.83333   0.83333   0.25000   0.00000  Uiso   1.00
O605   O     0.82360   0.79060   0.16625   0.00000  Uiso   1.00
O606   O     0.79354   0.87313   0.33749   0.00000  Uiso   1.00
O607   O     0.87755   0.84159   0.15877   0.00000  Uiso   1.00
O608   O     0.83865   0.82802   0.33749   0.00000  Uiso   1.00
O609   O     0.70674   0.91672   0.05343   0.00000  Uiso   1.00
O610   O     0.99656   0.85334   0.03452   0.00000  Uiso   1.00
O611   O     0.68649   0.85672   0.09899   0.00000  Uiso   1.00
O612   O     0.94522   0.70956   0.49715   0.00000  Uiso   1.00
O613   O     0.97864   0.77833   0.47633   0.00000  Uiso   1.00
O614   O     0.98914   0.75699   0.04050   0.00000  Uiso   1.00
O615   O     0.84515   0.74768   0.27820   0.00000  Uiso   1.00
O616   O     0.81784   0.74706   0.41234   0.00000  Uiso   1.00
O617   O     0.89031   0.74430   0.39538   0.00000  Uiso   1.00
O618   O     0.81247   0.92803   0.26767   0.00000  Uiso   1.00
O619   O     0.74119   0.79917   0.23607   0.00000  Uiso   1.00
O620   O     0.93452   0.85845   0.21805   0.00000  Uiso   1.00
O621   O     0.73656   0.85627   0.27820   0.00000  Uiso   1.00
O622   O     0.92106   0.81944   0.26767   0.00000  Uiso   1.00
O623   O     0.80467   0.73570   0.23607   0.00000  Uiso   1.00
O624   O     0.87104   0.92193   0.21805   0.00000  Uiso   1.00
S625   S     0.69975   0.86992   0.05244   0.00000  Uiso   1.00
S626   S     0.95603   0.75448   0.01137   0.00000  Uiso   1.00
Zn627  Zn    0.85910   0.80756   0.28277   0.00000  Uiso   1.00
Zn628  Zn    0.80125   0.79044   0.22257   0.00000  Uiso   1.00
Zn629  Zn    0.87833   0.86331   0.21188   0.00000  Uiso   1.00
Zn630  Zn    0.79465   0.87202   0.28277   0.00000  Uiso   1.00
C631   C     0.05247   0.15983   0.75880   0.00000  Uiso   1.00
C632   C     0.18552   0.11428   0.96004   0.00000  Uiso   1.00
C633   C     0.21404   0.10420   0.97916   0.00000  Uiso   1.00
C634   C     0.28109   0.17356   0.74121   0.00000  Uiso   1.00
C635   C     0.20986   0.11719   0.51927   0.00000  Uiso   1.00
C636   C     0.17278   0.13685   0.54182   0.00000  Uiso   1.00
C637   C     0.24089   0.10946   0.53785   0.00000  Uiso   1.00
C638   C     0.23380   0.11980   0.57861   0.00000  Uiso   1.00
C639   C     0.16662   0.14580   0.58300   0.00000  Uiso   1.00
C640   C     0.32704   0.17624   0.73765   0.00000  Uiso   1.00
C641   C     0.00711   0.15735   0.76222   0.00000  Uiso   1.00
C642   C     0.09264   0.20759   0.92099   0.00000  Uiso   1.00
C643   C     0.18102   0.32218   0.73808   0.00000  Uiso   1.00
C644   C     0.15169   0.01206   0.76217   0.00000  Uiso   1.00
C645   C     0.15599   0.05606   0.75890   0.00000  Uiso   1.00
C646   C     0.17691   0.27769   0.74133   0.00000  Uiso   1.00
C647   C     0.18805   0.14545   0.64387   0.00000  Uiso   1.00
C648   C     0.14510   0.18733   0.85639   0.00000  Uiso   1.00
C649   C     0.13044   0.19004   0.89996   0.00000  Uiso   1.00
C650   C     0.19651   0.13698   0.60104   0.00000  Uiso   1.00
C651   C     0.07636   0.20538   0.96162   0.00000  Uiso   1.00
C652   C     0.18520   0.09019   0.92124   0.00000  Uiso   1.00
C653   C     0.15193   0.17078   0.92025   0.00000  Uiso   1.00
C654   C     0.13403   0.16459   0.96051   0.00000  Uiso   1.00
C655   C     0.09661   0.18406   0.98204   0.00000  Uiso   1.00
C656   C     0.15458   0.14221   0.98032   0.00000  Uiso   1.00
C657   C     0.14422   0.14843   0.52220   0.00000  Uiso   1.00
C658   C     0.10589   0.16632   0.54289   0.00000  Uiso   1.00
C659   C     0.08124   0.18252   0.52336   0.00000  Uiso   1.00
H660   H     0.01672   0.19363   0.71495   0.00000  Uiso   1.00
H661   H     0.18313   0.16107   0.90416   0.00000  Uiso   1.00
H662   H     0.09386   0.16753   0.57453   0.00000  Uiso   1.00
H663   H     0.32460   0.20005   0.61194   0.00000  Uiso   1.00
H664   H     0.01771   0.08524   0.52213   0.00000  Uiso   1.00
H665   H     0.21918   0.06129   0.87010   0.00000  Uiso   1.00
H666   H     0.31809   0.13985   0.78516   0.00000  Uiso   1.00
H667   H     0.20814   0.00282   0.71591   0.00000  Uiso   1.00
H668   H     0.12418   0.33216   0.78440   0.00000  Uiso   1.00
H669   H     0.13952   0.16068   0.60207   0.00000  Uiso   1.00
H670   H     0.25688   0.11373   0.59326   0.00000  Uiso   1.00
H671   H     0.23839   0.08431   0.96268   0.00000  Uiso   1.00
H672   H     0.04790   0.22067   0.97655   0.00000  Uiso   1.00
H673   H     0.07538   0.22280   0.90601   0.00000  Uiso   1.00
O674   O     0.16667   0.16667   0.75000   0.00000  Uiso   1.00
O675   O     0.15693   0.12393   0.66625   0.00000  Uiso   1.00
O676   O     0.12687   0.20646   0.83749   0.00000  Uiso   1.00
O677   O     0.21088   0.17493   0.65877   0.00000  Uiso   1.00
O678   O     0.17198   0.16135   0.83749   0.00000  Uiso   1.00
O679   O     0.04007   0.25005   0.55343   0.00000  Uiso   1.00
O680   O     0.32989   0.18667   0.53452   0.00000  Uiso   1.00
O681   O     0.01982   0.19005   0.59899   0.00000  Uiso   1.00
O682   O     0.27855   0.04289   0.99715   0.00000  Uiso   1.00
O683   O     0.31198   0.11166   0.97633   0.00000  Uiso   1.00
O684   O     0.32248   0.09033   0.54050   0.00000  Uiso   1.00
O685   O     0.17849   0.08101   0.77820   0.00000  Uiso   1.00
O686   O     0.15117   0.08039   0.91234   0.00000  Uiso   1.00
O687   O     0.22364   0.07764   0.89538   0.00000  Uiso   1.00
O688   O     0.14581   0.26136   0.76767   0.00000  Uiso   1.00
O689   O     0.07452   0.13251   0.73607   0.00000  Uiso   1.00
O690   O     0.26785   0.19179   0.71805   0.00000  Uiso   1.00
O691   O     0.06990   0.18960   0.77820   0.00000  Uiso   1.00
O692   O     0.25440   0.15277   0.76767   0.00000  Uiso   1.00
O693   O     0.13800   0.06903   0.73607   0.00000  Uiso   1.00
O694   O     0.20437   0.25527   0.71805   0.00000  Uiso   1.00
S695   S     0.03308   0.20325   0.55244   0.00000  Uiso   1.00
S696   S     0.28936   0.08782   0.51137   0.00000  Uiso   1.00
Zn697  Zn    0.19244   0.14090   0.78277   0.00000  Uiso   1.00
Zn698  Zn    0.13459   0.12378   0.72257   0.00000  Uiso   1.00
Zn699  Zn    0.21166   0.19664   0.71188   0.00000  Uiso   1.00
Zn700  Zn    0.12798   0.20535   0.78277   0.00000  Uiso   1.00
C701   C     0.38581   0.15983   0.75880   0.00000  Uiso   1.00
C702   C     0.51886   0.11428   0.96004   0.00000  Uiso   1.00
C703   C     0.54737   0.10420   0.97916   0.00000  Uiso   1.00
C704   C     0.61443   0.17356   0.74121   0.00000  Uiso   1.00
C705   C     0.54319   0.11719   0.51927   0.00000  Uiso   1.00
C706   C     0.50611   0.13685   0.54182   0.00000  Uiso   1.00
C707   C     0.57423   0.10946   0.53785   0.00000  Uiso   1.00
C708   C     0.56713   0.11980   0.57861   0.00000  Uiso   1.00
C709   C     0.49995   0.14580   0.58300   0.00000  Uiso   1.00
C710   C     0.66037   0.17624   0.73765   0.00000  Uiso   1.00
C711   C     0.34044   0.15735   0.76222   0.00000  Uiso   1.00
C712   C     0.42597   0.20759   0.92099   0.00000  Uiso   1.00
C713   C     0.51435   0.32218   0.73808   0.00000  Uiso   1.00
C714   C     0.48502   0.01206   0.76217   0.00000  Uiso   1.00
C715   C     0.48932   0.05606   0.75890   0.00000  Uiso   1.00
C716   C     0.51024   0.27769   0.74133   0.00000  Uiso   1.00
C717   C     0.52138   0.14545   0.64387   0.00000  Uiso   1.00
C718   C     0.47843   0.18733   0.85639   0.00000  Uiso   1.00
C719   C     0.46377   0.19004   0.89996   0.00000  Uiso   1.00
C720   C     0.52985   0.13698   0.60104   0.00000  Uiso   1.00
C721   C     0.40969   0.20538   0.96162   0.00000  Uiso   1.00
C722   C     0.51854   0.09019   0.92124   0.00000  Uiso   1.00
C723   C     0.48526   0.17078   0.92025   0.00000  Uiso   1.00
C724   C     0.46736   0.16459   0.96051   0.00000  Uiso   1.00
C725   C     0.42994   0.18406   0.98204   0.00000  Uiso   1.00
C726   C     0.48791   0.14221   0.98032   0.00000  Uiso   1.00
C727   C     0.47756   0.14843   0.52220   0.00000  Uiso   1.00
C728   C     0.43922   0.16632   0.54289   0.00000  Uiso   1.00
C729   C     0.41458   0.18252   0.52336   0.00000  Uiso   1.00
H730   H     0.35006   0.19363   0.71495   0.00000  Uiso   1.00
H731   H     0.51646   0.16107   0.90416   0.00000  Uiso   1.00
H732   H     0.42719   0.16753   0.57453   0.00000  Uiso   1.00
H733   H     0.65793   0.20005   0.61194   0.00000  Uiso   1.00
H734   H     0.35105   0.08524   0.52213   0.00000  Uiso   1.00
H735   H     0.55251   0.06129   0.87010   0.00000  Uiso   1.00
H736   H     0.65142   0.13985   0.78516   0.00000  Uiso   1.00
H737   H     0.54147   0.00282   0.71591   0.00000  Uiso   1.00
H738   H     0.45752   0.33216   0.78440   0.00000  Uiso   1.00
H739   H     0.47286   0.16068   0.60207   0.00000  Uiso   1.00
H740   H     0.59021   0.11373   0.59326   0.00000  Uiso   1.00
H741   H     0.57172   0.08431   0.96268   0.00000  Uiso   1.00
H742   H     0.38124   0.22067   0.97655   0.00000  Uiso   1.00
H743   H     0.40871   0.22280   0.90601   0.00000  Uiso   1.00
O744   O     0.50000   0.16667   0.75000   0.00000  Uiso   1.00
O745   O     0.49027   0.12393   0.66625   0.00000  Uiso   1.00
O746   O     0.46020   0.20646   0.83749   0.00000  Uiso   1.00
O747   O     0.54421   0.17493   0.65877   0.00000  Uiso   1.00
O748   O     0.50532   0.16135   0.83749   0.00000  Uiso   1.00
O749   O     0.37341   0.25005   0.55343   0.00000  Uiso   1.00
O750   O     0.66323   0.18667   0.53452   0.00000  Uiso   1.00
O751   O     0.35316   0.19005   0.59899   0.00000  Uiso   1.00
O752   O     0.61189   0.04289   0.99715   0.00000  Uiso   1.00
O753   O     0.64531   0.11166   0.97633   0.00000  Uiso   1.00
O754   O     0.65581   0.09033   0.54050   0.00000  Uiso   1.00
O755   O     0.51182   0.08101   0.77820   0.00000  Uiso   1.00
O756   O     0.48451   0.08039   0.91234   0.00000  Uiso   1.00
O757   O     0.55698   0.07764   0.89538   0.00000  Uiso   1.00
O758   O     0.47914   0.26136   0.76767   0.00000  Uiso   1.00
O759   O     0.40785   0.13251   0.73607   0.00000  Uiso   1.00
O760   O     0.60119   0.19179   0.71805   0.00000  Uiso   1.00
O761   O     0.40323   0.18960   0.77820   0.00000  Uiso   1.00
O762   O     0.58773   0.15277   0.76767   0.00000  Uiso   1.00
O763   O     0.47133   0.06903   0.73607   0.00000  Uiso   1.00
O764   O     0.53771   0.25527   0.71805   0.00000  Uiso   1.00
S765   S     0.36642   0.20325   0.55244   0.00000  Uiso   1.00
S766   S     0.62269   0.08782   0.51137   0.00000  Uiso   1.00
Zn767  Zn    0.52577   0.14090   0.78277   0.00000  Uiso   1.00
Zn768  Zn    0.46792   0.12378   0.72257   0.00000  Uiso   1.00
Zn769  Zn    0.54500   0.19664   0.71188   0.00000  Uiso   1.00
Zn770  Zn    0.46131   0.20535   0.78277   0.00000  Uiso   1.00
C771   C     0.71914   0.15983   0.75880   0.00000  Uiso   1.00
C772   C     0.85219   0.11428   0.96004   0.00000  Uiso   1.00
C773   C     0.88071   0.10420   0.97916   0.00000  Uiso   1.00
C774   C     0.94776   0.17356   0.74121   0.00000  Uiso   1.00
C775   C     0.87653   0.11719   0.51927   0.00000  Uiso   1.00
C776   C     0.83945   0.13685   0.54182   0.00000  Uiso   1.00
C777   C     0.90756   0.10946   0.53785   0.00000  Uiso   1.00
C778   C     0.90047   0.11980   0.57861   0.00000  Uiso   1.00
C779   C     0.83329   0.14580   0.58300   0.00000  Uiso   1.00
C780   C     0.99370   0.17624   0.73765   0.00000  Uiso   1.00
C781   C     0.67378   0.15735   0.76222   0.00000  Uiso   1.00
C782   C     0.75931   0.20759   0.92099   0.00000  Uiso   1.00
C783   C     0.84769   0.32218   0.73808   0.00000  Uiso   1.00
C784   C     0.81835   0.01206   0.76217   0.00000  Uiso   1.00
C785   C     0.82265   0.05606   0.75890   0.00000  Uiso   1.00
C786   C     0.84358   0.27769   0.74133   0.00000  Uiso   1.00
C787   C     0.85472   0.14545   0.64387   0.00000  Uiso   1.00
C788   C     0.81177   0.18733   0.85639   0.00000  Uiso   1.00
C789   C     0.79711   0.19004   0.89996   0.00000  Uiso   1.00
C790   C     0.86318   0.13698   0.60104   0.00000  Uiso   1.00
C791   C     0.74303   0.20538   0.96162   0.00000  Uiso   1.00
C792   C     0.85187   0.09019   0.92124   0.00000  Uiso   1.00
C793   C     0.81859   0.17078   0.92025   0.00000  Uiso   1.00
C794   C     0.80070   0.16459   0.96051   0.00000  Uiso   1.00
C795   C     0.76327   0.18406   0.98204   0.00000  Uiso   1.00
C796   C     0.82124   0.14221   0.98032   0.00000  Uiso   1.00
C797   C     0.81089   0.14843   0.52220   0.00000  Uiso   1.00
C798   C     0.77256   0.16632   0.54289   0.00000  Uiso   1.00
C799   C     0.74791   0.18252   0.52336   0.00000  Uiso   1.00
H800   H     0.68339   0.19363   0.71495   0.00000  Uiso   1.00
H801   H     0.84980   0.16107   0.90416   0.00000  Uiso   1.00
H802   H     0.76052   0.16753   0.57453   0.00000  Uiso   1.00
H803   H     0.99126   0.20005   0.61194   0.00000  Uiso   1.00
H804   H     0.68438   0.08524   0.52213   0.00000  Uiso   1.00
H805   H     0.88585   0.06129   0.87010   0.00000  Uiso   1.00
H806   H     0.98475   0.13985   0.78516   0.00000  Uiso   1.00
H807   H     0.87481   0.00282   0.71591   0.00000  Uiso   1.00
H808   H     0.79085   0.33216   0.78440   0.00000  Uiso   1.00
H809   H     0.80619   0.16068   0.60207   0.00000  Uiso   1.00
H810   H     0.92355   0.11373   0.59326   0.00000  Uiso   1.00
H811   H     0.90505   0.08431   0.96268   0.00000  Uiso   1.00
H812   H     0.71457   0.22067   0.97655   0.00000  Uiso   1.00
H813   H     0.74204   0.22280   0.90601   0.00000  Uiso   1.00
O814   O     0.83333   0.16667   0.75000   0.00000  Uiso   1.00
O815   O     0.82360   0.12393   0.66625   0.00000  Uiso   1.00
O816   O     0.79354   0.20646   0.83749   0.00000  Uiso   1.00
O817   O     0.87755   0.17493   0.65877   0.00000  Uiso   1.00
O818   O     0.83865   0.16135   0.83749   0.00000  Uiso   1.00
O819   O     0.70674   0.25005   0.55343   0.00000  Uiso   1.00
O820   O     0.99656   0.18667   0.53452   0.00000  Uiso   1.00
O821   O     0.68649   0.19005   0.59899   0.00000  Uiso   1.00
O822   O     0.94522   0.04289   0.99715   0.00000  Uiso   1.00
O823   O     0.97864   0.11166   0.97633   0.00000  Uiso   1.00
O824   O     0.98914   0.09033   0.54050   0.00000  Uiso   1.00
O825   O     0.84515   0.08101   0.77820   0.00000  Uiso   1.00
O826   O     0.81784   0.08039   0.91234   0.00000  Uiso   1.00
O827   O     0.89031   0.07764   0.89538   0.00000  Uiso   1.00
O828   O     0.81247   0.26136   0.76767   0.00000  Uiso   1.00
O829   O     0.74119   0.13251   0.73607   0.00000  Uiso   1.00
O830   O     0.93452   0.19179   0.71805   0.00000  Uiso   1.00
O831   O     0.73656   0.18960   0.77820   0.00000  Uiso   1.00
O832   O     0.92106   0.15277   0.76767   0.00000  Uiso   1.00
O833   O     0.80467   0.06903   0.73607   0.00000  Uiso   1.00
O834   O     0.87104   0.25527   0.71805   0.00000  Uiso   1.00
S835   S     0.69975   0.20325   0.55244   0.00000  Uiso   1.00
S836   S     0.95603   0.08782   0.51137   0.00000  Uiso   1.00
Zn837  Zn    0.85910   0.14090   0.78277   0.00000  Uiso   1.00
Zn838  Zn    0.80125   0.12378   0.72257   0.00000  Uiso   1.00
Zn839  Zn    0.87833   0.19664   0.71188   0.00000  Uiso   1.00
Zn840  Zn    0.79465   0.20535   0.78277   0.00000  Uiso   1.00
C841   C     0.05247   0.49317   0.75880   0.00000  Uiso   1.00
C842   C     0.18552   0.44762   0.96004   0.00000  Uiso   1.00
C843   C     0.21404   0.43753   0.97916   0.00000  Uiso   1.00
C844   C     0.28109   0.50689   0.74121   0.00000  Uiso   1.00
C845   C     0.20986   0.45052   0.51927   0.00000  Uiso   1.00
C846   C     0.17278   0.47018   0.54182   0.00000  Uiso   1.00
C847   C     0.24089   0.44279   0.53785   0.00000  Uiso   1.00
C848   C     0.23380   0.45313   0.57861   0.00000  Uiso   1.00
C849   C     0.16662   0.47913   0.58300   0.00000  Uiso   1.00
C850   C     0.32704   0.50957   0.73765   0.00000  Uiso   1.00
C851   C     0.00711   0.49068   0.76222   0.00000  Uiso   1.00
C852   C     0.09264   0.54092   0.92099   0.00000  Uiso   1.00
C853   C     0.18102   0.65551   0.73808   0.00000  Uiso   1.00
C854   C     0.15169   0.34539   0.76217   0.00000  Uiso   1.00
C855   C     0.15599   0.38940   0.75890   0.00000  Uiso   1.00
C856   C     0.17691   0.61103   0.74133   0.00000  Uiso   1.00
C857   C     0.18805   0.47878   0.64387   0.00000  Uiso   1.00
C858   C     0.14510   0.52066   0.85639   0.00000  Uiso   1.00
C859   C     0.13044   0.52337   0.89996   0.00000  Uiso   1.00
C860   C     0.19651   0.47032   0.60104   0.00000  Uiso   1.00
C861   C     0.07636   0.53871   0.96162   0.00000  Uiso   1.00
C862   C     0.18520   0.42353   0.92124   0.00000  Uiso   1.00
C863   C     0.15193   0.50411   0.92025   0.00000  Uiso   1.00
C864   C     0.13403   0.49793   0.96051   0.00000  Uiso   1.00
C865   C     0.09661   0.51740   0.98204   0.00000  Uiso   1.00
C866   C     0.15458   0.47554   0.98032   0.00000  Uiso   1.00
C867   C     0.14422   0.48177   0.52220   0.00000  Uiso   1.00
C868   C     0.10589   0.49965   0.54289   0.00000  Uiso   1.00
C869   C     0.08124   0.51586   0.52336   0.00000  Uiso   1.00
H870   H     0.01672   0.52697   0.71495   0.00000  Uiso   1.00
H871   H     0.18313   0.49441   0.90416   0.00000  Uiso   1.00
H872   H     0.09386   0.50086   0.57453   0.00000  Uiso   1.00
H873   H     0.32460   0.53338   0.61194   0.00000  Uiso   1.00
H874   H     0.01771   0.41857   0.52213   0.00000  Uiso   1.00
H875   H     0.21918   0.39463   0.87010   0.00000  Uiso   1.00
H876   H     0.31809   0.47318   0.78516   0.00000  Uiso   1.00
H877   H     0.20814   0.33615   0.71591   0.00000  Uiso   1.00
H878   H     0.12418   0.66550   0.78440   0.00000  Uiso   1.00
H879   H     0.13952   0.49401   0.60207   0.00000  Uiso   1.00
H880   H     0.25688   0.44706   0.59326   0.00000  Uiso   1.00
H881   H     0.23839   0.41764   0.96268   0.00000  Uiso   1.00
H882   H     0.04790   0.55400   0.97655   0.00000  Uiso   1.00
H883   H     0.07538   0.55613   0.90601   0.00000  Uiso   1.00
O884   O     0.16667   0.50000   0.75000   0.00000  Uiso   1.00
O885   O     0.15693   0.45726   0.66625   0.00000  Uiso   1.00
O886   O     0.12687   0.53979   0.83749   0.00000  Uiso   1.00
O887   O     0.21088   0.50826   0.65877   0.00000  Uiso   1.00
O888   O     0.17198   0.49468   0.83749   0.00000  Uiso   1.00
O889   O     0.04007   0.58339   0.55343   0.00000  Uiso   1.00
O890   O     0.32989   0.52001   0.53452   0.00000  Uiso   1.00
O891   O     0.01982   0.52339   0.59899   0.00000  Uiso   1.00
O892   O     0.27855   0.37622   0.99715   0.00000  Uiso   1.00
O893   O     0.31198   0.44500   0.97633   0.00000  Uiso   1.00
O894   O     0.32248   0.42366   0.54050   0.00000  Uiso   1.00
O895   O     0.17849   0.41434   0.77820   0.00000  Uiso   1.00
O896   O     0.15117   0.41372   0.91234   0.00000  Uiso   1.00
O897   O     0.22364   0.41097   0.89538   0.00000  Uiso   1.00
O898   O     0.14581   0.59469   0.76767   0.00000  Uiso   1.00
O899   O     0.07452   0.46584   0.73607   0.00000  Uiso   1.00
O900   O     0.26785   0.52512   0.71805   0.00000  Uiso   1.00
O901   O     0.06990   0.52293   0.77820   0.00000  Uiso   1.00
O902   O     0.25440   0.48610   0.76767   0.00000  Uiso   1.00
O903   O     0.13800   0.40236   0.73607   0.00000  Uiso   1.00
O904   O     0.20437   0.58860   0.71805   0.00000  Uiso   1.00
S905   S     0.03308   0.53659   0.55244   0.00000  Uiso   1.00
S906   S     0.28936   0.42115   0.51137   0.00000  Uiso   1.00
Zn907  Zn    0.19244   0.47423   0.78277   0.00000  Uiso   1.00
Zn908  Zn    0.13459   0.45711   0.72257   0.00000  Uiso   1.00
Zn909  Zn    0.21166   0.52997   0.71188   0.00000  Uiso   1.00
Zn910  Zn    0.12798   0.53868   0.78277   0.00000  Uiso   1.00
C911   C     0.38581   0.49317   0.75880   0.00000  Uiso   1.00
C912   C     0.51886   0.44762   0.96004   0.00000  Uiso   1.00
C913   C     0.54737   0.43753   0.97916   0.00000  Uiso   1.00
C914   C     0.61443   0.50689   0.74121   0.00000  Uiso   1.00
C915   C     0.54319   0.45052   0.51927   0.00000  Uiso   1.00
C916   C     0.50611   0.47018   0.54182   0.00000  Uiso   1.00
C917   C     0.57423   0.44279   0.53785   0.00000  Uiso   1.00
C918   C     0.56713   0.45313   0.57861   0.00000  Uiso   1.00
C919   C     0.49995   0.47913   0.58300   0.00000  Uiso   1.00
C920   C     0.66037   0.50957   0.73765   0.00000  Uiso   1.00
C921   C     0.34044   0.49068   0.76222   0.00000  Uiso   1.00
C922   C     0.42597   0.54092   0.92099   0.00000  Uiso   1.00
C923   C     0.51435   0.65551   0.73808   0.00000  Uiso   1.00
C924   C     0.48502   0.34539   0.76217   0.00000  Uiso   1.00
C925   C     0.48932   0.38940   0.75890   0.00000  Uiso   1.00
C926   C     0.51024   0.61103   0.74133   0.00000  Uiso   1.00
C927   C     0.52138   0.47878   0.64387   0.00000  Uiso   1.00
C928   C     0.47843   0.52066   0.85639   0.00000  Uiso   1.00
C929   C     0.46377   0.52337   0.89996   0.00000  Uiso   1.00
C930   C     0.52985   0.47032   0.60104   0.00000  Uiso   1.00
C931   C     0.40969   0.53871   0.96162   0.00000  Uiso   1.00
C932   C     0.51854   0.42353   0.92124   0.00000  Uiso   1.00
C933   C     0.48526   0.50411   0.92025   0.00000  Uiso   1.00
C934   C     0.46736   0.49793   0.96051   0.00000  Uiso   1.00
C935   C     0.42994   0.51740   0.98204   0.00000  Uiso   1.00
C936   C     0.48791   0.47554   0.98032   0.00000  Uiso   1.00
C937   C     0.47756   0.48177   0.52220   0.00000  Uiso   1.00
C938   C     0.43922   0.49965   0.54289   0.00000  Uiso   1.00
C939   C     0.41458   0.51586   0.52336   0.00000  Uiso   1.00
H940   H     0.35006   0.52697   0.71495   0.00000  Uiso   1.00
H941   H     0.51646   0.49441   0.90416   0.00000  Uiso   1.00
H942   H     0.42719   0.50086   0.57453   0.00000  Uiso   1.00
H943   H     0.65793   0.53338   0.61194   0.00000  Uiso   1.00
H944   H     0.35105   0.41857   0.52213   0.00000  Uiso   1.00
H945   H     0.55251   0.39463   0.87010   0.00000  Uiso   1.00
H946   H     0.65142   0.47318   0.78516   0.00000  Uiso   1.00
H947   H     0.54147   0.33615   0.71591   0.00000  Uiso   1.00
H948   H     0.45752   0.66550   0.78440   0.00000  Uiso   1.00
H949   H     0.47286   0.49401   0.60207   0.00000  Uiso   1.00
H950   H     0.59021   0.44706   0.59326   0.00000  Uiso   1.00
H951   H     0.57172   0.41764   0.96268   0.00000  Uiso   1.00
H952   H     0.38124   0.55400   0.97655   0.00000  Uiso   1.00
H953   H     0.40871   0.55613   0.90601   0.00000  Uiso   1.00
O954   O     0.50000   0.50000   0.75000   0.00000  Uiso   1.00
O955   O     0.49027   0.45726   0.66625   0.00000  Uiso   1.00
O956   O     0.46020   0.53979   0.83749   0.00000  Uiso   1.00
O957   O     0.54421   0.50826   0.65877   0.00000  Uiso   1.00
O958   O     0.50532   0.49468   0.83749   0.00000  Uiso   1.00
O959   O     0.37341   0.58339   0.55343   0.00000  Uiso   1.00
O960   O     0.66323   0.52001   0.53452   0.00000  Uiso   1.00
O961   O     0.35316   0.52339   0.59899   0.00000  Uiso   1.00
O962   O     0.61189   0.37622   0.99715   0.00000  Uiso   1.00
O963   O     0.64531   0.44500   0.97633   0.00000  Uiso   1.00
O964   O     0.65581   0.42366   0.54050   0.00000  Uiso   1.00
O965   O     0.51182   0.41434   0.77820   0.00000  Uiso   1.00
O966   O     0.48451   0.41372   0.91234   0.00000  Uiso   1.00
O967   O     0.55698   0.41097   0.89538   0.00000  Uiso   1.00
O968   O     0.47914   0.59469   0.76767   0.00000  Uiso   1.00
O969   O     0.40785   0.46584   0.73607   0.00000  Uiso   1.00
O970   O     0.60119   0.52512   0.71805   0.00000  Uiso   1.00
O971   O     0.40323   0.52293   0.77820   0.00000  Uiso   1.00
O972   O     0.58773   0.48610   0.76767   0.00000  Uiso   1.00
O973   O     0.47133   0.40236   0.73607   0.00000  Uiso   1.00
O974   O     0.53771   0.58860   0.71805   0.00000  Uiso   1.00
S975   S     0.36642   0.53659   0.55244   0.00000  Uiso   1.00
S976   S     0.62269   0.42115   0.51137   0.00000  Uiso   1.00
Zn977  Zn    0.52577   0.47423   0.78277   0.00000  Uiso   1.00
Zn978  Zn    0.46792   0.45711   0.72257   0.00000  Uiso   1.00
Zn979  Zn    0.54500   0.52997   0.71188   0.00000  Uiso   1.00
Zn980  Zn    0.46131   0.53868   0.78277   0.00000  Uiso   1.00
C981   C     0.71914   0.49317   0.75880   0.00000  Uiso   1.00
C982   C     0.85219   0.44762   0.96004   0.00000  Uiso   1.00
C983   C     0.88071   0.43753   0.97916   0.00000  Uiso   1.00
C984   C     0.94776   0.50689   0.74121   0.00000  Uiso   1.00
C985   C     0.87653   0.45052   0.51927   0.00000  Uiso   1.00
C986   C     0.83945   0.47018   0.54182   0.00000  Uiso   1.00
C987   C     0.90756   0.44279   0.53785   0.00000  Uiso   1.00
C988   C     0.90047   0.45313   0.57861   0.00000  Uiso   1.00
C989   C     0.83329   0.47913   0.58300   0.00000  Uiso   1.00
C990   C     0.99370   0.50957   0.73765   0.00000  Uiso   1.00
C991   C     0.67378   0.49068   0.76222   0.00000  Uiso   1.00
C992   C     0.75931   0.54092   0.92099   0.00000  Uiso   1.00
C993   C     0.84769   0.65551   0.73808   0.00000  Uiso   1.00
C994   C     0.81835   0.34539   0.76217   0.00000  Uiso   1.00
C995   C     0.82265   0.38940   0.75890   0.00000  Uiso   1.00
C996   C     0.84358   0.61103   0.74133   0.00000  Uiso   1.00
C997   C     0.85472   0.47878   0.64387   0.00000  Uiso   1.00
C998   C     0.81177   0.52066   0.85639   0.00000  Uiso   1.00
C999   C     0.79711   0.52337   0.89996   0.00000  Uiso   1.00
C1000  C     0.86318   0.47032   0.60104   0.00000  Uiso   1.00
C1001  C     0.74303   0.53871   0.96162   0.00000  Uiso   1.00
C1002  C     0.85187   0.42353   0.92124   0.00000  Uiso   1.00
C1003  C     0.81859   0.50411   0.92025   0.00000  Uiso   1.00
C1004  C     0.80070   0.49793   0.96051   0.00000  Uiso   1.00
C1005  C     0.76327   0.51740   0.98204   0.00000  Uiso   1.00
C1006  C     0.82124   0.47554   0.98032   0.00000  Uiso   1.00
C1007  C     0.81089   0.48177   0.52220   0.00000  Uiso   1.00
C1008  C     0.77256   0.49965   0.54289   0.00000  Uiso   1.00
C1009  C     0.74791   0.51586   0.52336   0.00000  Uiso   1.00
H1010  H     0.68339   0.52697   0.71495   0.00000  Uiso   1.00
H1011  H     0.84980   0.49441   0.90416   0.00000  Uiso   1.00
H1012  H     0.76052   0.50086   0.57453   0.00000  Uiso   1.00
H1013  H     0.99126   0.53338   0.61194   0.00000  Uiso   1.00
H1014  H     0.68438   0.41857   0.52213   0.00000  Uiso   1.00
H1015  H     0.88585   0.39463   0.87010   0.00000  Uiso   1.00
H1016  H     0.98475   0.47318   0.78516   0.00000  Uiso   1.00
H1017  H     0.87481   0.33615   0.71591   0.00000  Uiso   1.00
H1018  H     0.79085   0.66550   0.78440   0.00000  Uiso   1.00
H1019  H     0.80619   0.49401   0.60207   0.00000  Uiso   1.00
H1020  H     0.92355   0.44706   0.59326   0.00000  Uiso   1.00
H1021  H     0.90505   0.41764   0.96268   0.00000  Uiso   1.00
H1022  H     0.71457   0.55400   0.97655   0.00000  Uiso   1.00
H1023  H     0.74204   0.55613   0.90601   0.00000  Uiso   1.00
O1024  O     0.83333   0.50000   0.75000   0.00000  Uiso   1.00
O1025  O     0.82360   0.45726   0.66625   0.00000  Uiso   1.00
O1026  O     0.79354   0.53979   0.83749   0.00000  Uiso   1.00
O1027  O     0.87755   0.50826   0.65877   0.00000  Uiso   1.00
O1028  O     0.83865   0.49468   0.83749   0.00000  Uiso   1.00
O1029  O     0.70674   0.58339   0.55343   0.00000  Uiso   1.00
O1030  O     0.99656   0.52001   0.53452   0.00000  Uiso   1.00
O1031  O     0.68649   0.52339   0.59899   0.00000  Uiso   1.00
O1032  O     0.94522   0.37622   0.99715   0.00000  Uiso   1.00
O1033  O     0.97864   0.44500   0.97633   0.00000  Uiso   1.00
O1034  O     0.98914   0.42366   0.54050   0.00000  Uiso   1.00
O1035  O     0.84515   0.41434   0.77820   0.00000  Uiso   1.00
O1036  O     0.81784   0.41372   0.91234   0.00000  Uiso   1.00
O1037  O     0.89031   0.41097   0.89538   0.00000  Uiso   1.00
O1038  O     0.81247   0.59469   0.76767   0.00000  Uiso   1.00
O1039  O     0.74119   0.46584   0.73607   0.00000  Uiso   1.00
O1040  O     0.93452   0.52512   0.71805   0.00000  Uiso   1.00
O1041  O     0.73656   0.52293   0.77820   0.00000  Uiso   1.00
O1042  O     0.92106   0.48610   0.76767   0.00000  Uiso   1.00
O1043  O     0.80467   0.40236   0.73607   0.00000  Uiso   1.00
O1044  O     0.87104   0.58860   0.71805   0.00000  Uiso   1.00
S1045  S     0.69975   0.53659   0.55244   0.00000  Uiso   1.00
S1046  S     0.95603   0.42115   0.51137   0.00000  Uiso   1.00
Zn1047 Zn    0.85910   0.47423   0.78277   0.00000  Uiso   1.00
Zn1048 Zn    0.80125   0.45711   0.72257   0.00000  Uiso   1.00
Zn1049 Zn    0.87833   0.52997   0.71188   0.00000  Uiso   1.00
Zn1050 Zn    0.79465   0.53868   0.78277   0.00000  Uiso   1.00
C1051  C     0.05247   0.82650   0.75880   0.00000  Uiso   1.00
C1052  C     0.18552   0.78095   0.96004   0.00000  Uiso   1.00
C1053  C     0.21404   0.77087   0.97916   0.00000  Uiso   1.00
C1054  C     0.28109   0.84022   0.74121   0.00000  Uiso   1.00
C1055  C     0.20986   0.78386   0.51927   0.00000  Uiso   1.00
C1056  C     0.17278   0.80352   0.54182   0.00000  Uiso   1.00
C1057  C     0.24089   0.77612   0.53785   0.00000  Uiso   1.00
C1058  C     0.23380   0.78647   0.57861   0.00000  Uiso   1.00
C1059  C     0.16662   0.81246   0.58300   0.00000  Uiso   1.00
C1060  C     0.32704   0.84290   0.73765   0.00000  Uiso   1.00
C1061  C     0.00711   0.82401   0.76222   0.00000  Uiso   1.00
C1062  C     0.09264   0.87425   0.92099   0.00000  Uiso   1.00
C1063  C     0.18102   0.98885   0.73808   0.00000  Uiso   1.00
C1064  C     0.15169   0.67872   0.76217   0.00000  Uiso   1.00
C1065  C     0.15599   0.72273   0.75890   0.00000  Uiso   1.00
C1066  C     0.17691   0.94436   0.74133   0.00000  Uiso   1.00
C1067  C     0.18805   0.81212   0.64387   0.00000  Uiso   1.00
C1068  C     0.14510   0.85400   0.85639   0.00000  Uiso   1.00
C1069  C     0.13044   0.85670   0.89996   0.00000  Uiso   1.00
C1070  C     0.19651   0.80365   0.60104   0.00000  Uiso   1.00
C1071  C     0.07636   0.87204   0.96162   0.00000  Uiso   1.00
C1072  C     0.18520   0.75686   0.92124   0.00000  Uiso   1.00
C1073  C     0.15193   0.83744   0.92025   0.00000  Uiso   1.00
C1074  C     0.13403   0.83126   0.96051   0.00000  Uiso   1.00
C1075  C     0.09661   0.85073   0.98204   0.00000  Uiso   1.00
C1076  C     0.15458   0.80887   0.98032   0.00000  Uiso   1.00
C1077  C     0.14422   0.81510   0.52220   0.00000  Uiso   1.00
C1078  C     0.10589   0.83298   0.54289   0.00000  Uiso   1.00
C1079  C     0.08124   0.84919   0.52336   0.00000  Uiso   1.00
H1080  H     0.01672   0.86030   0.71495   0.00000  Uiso   1.00
H1081  H     0.18313   0.82774   0.90416   0.00000  Uiso   1.00
H1082  H     0.09386   0.83419   0.57453   0.00000  Uiso   1.00
H1083  H     0.32460   0.86672   0.61194   0.00000  Uiso   1.00
H1084  H     0.01771   0.75190   0.52213   0.00000  Uiso   1.00
H1085  H     0.21918   0.72796   0.87010   0.00000  Uiso   1.00
H1086  H     0.31809   0.80651   0.78516   0.00000  Uiso   1.00
H1087  H     0.20814   0.66948   0.71591   0.00000  Uiso   1.00
H1088  H     0.12418   0.99883   0.78440   0.00000  Uiso   1.00
H1089  H     0.13952   0.82735   0.60207   0.00000  Uiso   1.00
H1090  H     0.25688   0.78039   0.59326   0.00000  Uiso   1.00
H1091  H     0.23839   0.75098   0.96268   0.00000  Uiso   1.00
H1092  H     0.04790   0.88733   0.97655   0.00000  Uiso   1.00
H1093  H     0.07538   0.88946   0.90601   0.00000  Uiso   1.00
O1094  O     0.16667   0.83333   0.75000   0.00000  Uiso   1.00
O1095  O     0.15693   0.79060   0.66625   0.00000  Uiso   1.00
O1096  O     0.12687   0.87313   0.83749   0.00000  Uiso   1.00
O1097  O     0.21088   0.84159   0.65877   0.00000  Uiso   1.00
O1098  O     0.17198   0.82802   0.83749   0.00000  Uiso   1.00
O1099  O     0.04007   0.91672   0.55343   0.00000  Uiso   1.00
O1100  O     0.32989   0.85334   0.53452   0.00000  Uiso   1.00
O1101  O     0.01982   0.85672   0.59899   0.00000  Uiso   1.00
O1102  O     0.27855   0.70956   0.99715   0.00000  Uiso   1.00
O1103  O     0.31198   0.77833   0.97633   0.00000  Uiso   1.00
O1104  O     0.32248   0.75699   0.54050   0.00000  Uiso   1.00
O1105  O     0.17849   0.74768   0.77820   0.00000  Uiso   1.00
O1106  O     0.15117   0.74706   0.91234   0.00000  Uiso   1.00
O1107  O     0.22364   0.74430   0.89538   0.00000  Uiso   1.00
O1108  O     0.14581   0.92803   0.76767   0.00000  Uiso   1.00
O1109  O     0.07452   0.79917   0.73607   0.00000  Uiso   1.00
O1110  O     0.26785   0.85845   0.71805   0.00000  Uiso   1.00
O1111  O     0.06990   0.85627   0.77820   0.00000  Uiso   1.00
O1112  O     0.25440   0.81944   0.76767   0.00000  Uiso   1.00
O1113  O     0.13800   0.73570   0.73607   0.00000  Uiso   1.00
O1114  O     0.20437   0.92193   0.71805   0.00000  Uiso   1.00
S1115  S     0.03308   0.86992   0.55244   0.00000  Uiso   1.00
S1116  S     0.28936   0.75448   0.51137   0.00000  Uiso   1.00
Zn1117 Zn    0.19244   0.80756   0.78277   0.00000  Uiso   1.00
Zn1118 Zn    0.13459   0.79044   0.72257   0.00000  Uiso   1.00
Zn1119 Zn    0.21166   0.86331   0.71188   0.00000  Uiso   1.00
Zn1120 Zn    0.12798   0.87202   0.78277   0.00000  Uiso   1.00
C1121  C     0.38581   0.82650   0.75880   0.00000  Uiso   1.00
C1122  C     0.51886   0.78095   0.96004   0.00000  Uiso   1.00
C1123  C     0.54737   0.77087   0.97916   0.00000  Uiso   1.00
C1124  C     0.61443   0.84022   0.74121   0.00000  Uiso   1.00
C1125  C     0.54319   0.78386   0.51927   0.00000  Uiso   1.00
C1126  C     0.50611   0.80352   0.54182   0.00000  Uiso   1.00
C1127  C     0.57423   0.77612   0.53785   0.00000  Uiso   1.00
C1128  C     0.56713   0.78647   0.57861   0.00000  Uiso   1.00
C1129  C     0.49995   0.81246   0.58300   0.00000  Uiso   1.00
C1130  C     0.66037   0.84290   0.73765   0.00000  Uiso   1.00
C1131  C     0.34044   0.82401   0.76222   0.00000  Uiso   1.00
C1132  C     0.42597   0.87425   0.92099   0.00000  Uiso   1.00
C1133  C     0.51435   0.98885   0.73808   0.00000  Uiso   1.00
C1134  C     0.48502   0.67872   0.76217   0.00000  Uiso   1.00
C1135  C     0.48932   0.72273   0.75890   0.00000  Uiso   1.00
C1136  C     0.51024   0.94436   0.74133   0.00000  Uiso   1.00
C1137  C     0.52138   0.81212   0.64387   0.00000  Uiso   1.00
C1138  C     0.47843   0.85400   0.85639   0.00000  Uiso   1.00
C1139  C     0.46377   0.85670   0.89996   0.00000  Uiso   1.00
C1140  C     0.52985   0.80365   0.60104   0.00000  Uiso   1.00
C1141  C     0.40969   0.87204   0.96162   0.00000  Uiso   1.00
C1142  C     0.51854   0.75686   0.92124   0.00000  Uiso   1.00
C1143  C     0.48526   0.83744   0.92025   0.00000  Uiso   1.00
C1144  C     0.46736   0.83126   0.96051   0.00000  Uiso   1.00
C1145  C     0.42994   0.85073   0.98204   0.00000  Uiso   1.00
C1146  C     0.48791   0.80887   0.98032   0.00000  Uiso   1.00
C1147  C     0.47756   0.81510   0.52220   0.00000  Uiso   1.00
C1148  C     0.43922   0.83298   0.54289   0.00000  Uiso   1.00
C1149  C     0.41458   0.84919   0.52336   0.00000  Uiso   1.00
H1150  H     0.35006   0.86030   0.71495   0.00000  Uiso   1.00
H1151  H     0.51646   0.82774   0.90416   0.00000  Uiso   1.00
H1152  H     0.42719   0.83419   0.57453   0.00000  Uiso   1.00
H1153  H     0.65793   0.86672   0.61194   0.00000  Uiso   1.00
H1154  H     0.35105   0.75190   0.52213   0.00000  Uiso   1.00
H1155  H     0.55251   0.72796   0.87010   0.00000  Uiso   1.00
H1156  H     0.65142   0.80651   0.78516   0.00000  Uiso   1.00
H1157  H     0.54147   0.66948   0.71591   0.00000  Uiso   1.00
H1158  H     0.45752   0.99883   0.78440   0.00000  Uiso   1.00
H1159  H     0.47286   0.82735   0.60207   0.00000  Uiso   1.00
H1160  H     0.59021   0.78039   0.59326   0.00000  Uiso   1.00
H1161  H     0.57172   0.75098   0.96268   0.00000  Uiso   1.00
H1162  H     0.38124   0.88733   0.97655   0.00000  Uiso   1.00
H1163  H     0.40871   0.88946   0.90601   0.00000  Uiso   1.00
O1164  O     0.50000   0.83333   0.75000   0.00000  Uiso   1.00
O1165  O     0.49027   0.79060   0.66625   0.00000  Uiso   1.00
O1166  O     0.46020   0.87313   0.83749   0.00000  Uiso   1.00
O1167  O     0.54421   0.84159   0.65877   0.00000  Uiso   1.00
O1168  O     0.50532   0.82802   0.83749   0.00000  Uiso   1.00
O1169  O     0.37341   0.91672   0.55343   0.00000  Uiso   1.00
O1170  O     0.66323   0.85334   0.53452   0.00000  Uiso   1.00
O1171  O     0.35316   0.85672   0.59899   0.00000  Uiso   1.00
O1172  O     0.61189   0.70956   0.99715   0.00000  Uiso   1.00
O1173  O     0.64531   0.77833   0.97633   0.00000  Uiso   1.00
O1174  O     0.65581   0.75699   0.54050   0.00000  Uiso   1.00
O1175  O     0.51182   0.74768   0.77820   0.00000  Uiso   1.00
O1176  O     0.48451   0.74706   0.91234   0.00000  Uiso   1.00
O1177  O     0.55698   0.74430   0.89538   0.00000  Uiso   1.00
O1178  O     0.47914   0.92803   0.76767   0.00000  Uiso   1.00
O1179  O     0.40785   0.79917   0.73607   0.00000  Uiso   1.00
O1180  O     0.60119   0.85845   0.71805   0.00000  Uiso   1.00
O1181  O     0.40323   0.85627   0.77820   0.00000  Uiso   1.00
O1182  O     0.58773   0.81944   0.76767   0.00000  Uiso   1.00
O1183  O     0.47133   0.73570   0.73607   0.00000  Uiso   1.00
O1184  O     0.53771   0.92193   0.71805   0.00000  Uiso   1.00
S1185  S     0.36642   0.86992   0.55244   0.00000  Uiso   1.00
S1186  S     0.62269   0.75448   0.51137   0.00000  Uiso   1.00
Zn1187 Zn    0.52577   0.80756   0.78277   0.00000  Uiso   1.00
Zn1188 Zn    0.46792   0.79044   0.72257   0.00000  Uiso   1.00
Zn1189 Zn    0.54500   0.86331   0.71188   0.00000  Uiso   1.00
Zn1190 Zn    0.46131   0.87202   0.78277   0.00000  Uiso   1.00
C1191  C     0.71914   0.82650   0.75880   0.00000  Uiso   1.00
C1192  C     0.85219   0.78095   0.96004   0.00000  Uiso   1.00
C1193  C     0.88071   0.77087   0.97916   0.00000  Uiso   1.00
C1194  C     0.94776   0.84022   0.74121   0.00000  Uiso   1.00
C1195  C     0.87653   0.78386   0.51927   0.00000  Uiso   1.00
C1196  C     0.83945   0.80352   0.54182   0.00000  Uiso   1.00
C1197  C     0.90756   0.77612   0.53785   0.00000  Uiso   1.00
C1198  C     0.90047   0.78647   0.57861   0.00000  Uiso   1.00
C1199  C     0.83329   0.81246   0.58300   0.00000  Uiso   1.00
C1200  C     0.99370   0.84290   0.73765   0.00000  Uiso   1.00
C1201  C     0.67378   0.82401   0.76222   0.00000  Uiso   1.00
C1202  C     0.75931   0.87425   0.92099   0.00000  Uiso   1.00
C1203  C     0.84769   0.98885   0.73808   0.00000  Uiso   1.00
C1204  C     0.81835   0.67872   0.76217   0.00000  Uiso   1.00
C1205  C     0.82265   0.72273   0.75890   0.00000  Uiso   1.00
C1206  C     0.84358   0.94436   0.74133   0.00000  Uiso   1.00
C1207  C     0.85472   0.81212   0.64387   0.00000  Uiso   1.00
C1208  C     0.81177   0.85400   0.85639   0.00000  Uiso   1.00
C1209  C     0.79711   0.85670   0.89996   0.00000  Uiso   1.00
C1210  C     0.86318   0.80365   0.60104   0.00000  Uiso   1.00
C1211  C     0.74303   0.87204   0.96162   0.00000  Uiso   1.00
C1212  C     0.85187   0.75686   0.92124   0.00000  Uiso   1.00
C1213  C     0.81859   0.83744   0.92025   0.00000  Uiso   1.00
C1214  C     0.80070   0.83126   0.96051   0.00000  Uiso   1.00
C1215  C     0.76327   0.85073   0.98204   0.00000  Uiso   1.00
C1216  C     0.82124   0.80887   0.98032   0.00000  Uiso   1.00
C1217  C     0.81089   0.81510   0.52220   0.00000  Uiso   1.00
C1218  C     0.77256   0.83298   0.54289   0.00000  Uiso   1.00
C1219  C     0.74791   0.84919   0.52336   0.00000  Uiso   1.00
H1220  H     0.68339   0.86030   0.71495   0.00000  Uiso   1.00
H1221  H     0.84980   0.82774   0.90416   0.00000  Uiso   1.00
H1222  H     0.76052   0.83419   0.57453   0.00000  Uiso   1.00
H1223  H     0.99126   0.86672   0.61194   0.00000  Uiso   1.00
H1224  H     0.68438   0.75190   0.52213   0.00000  Uiso   1.00
H1225  H     0.88585   0.72796   0.87010   0.00000  Uiso   1.00
H1226  H     0.98475   0.80651   0.78516   0.00000  Uiso   1.00
H1227  H     0.87481   0.66948   0.71591   0.00000  Uiso   1.00
H1228  H     0.79085   0.99883   0.78440   0.00000  Uiso   1.00
H1229  H     0.80619   0.82735   0.60207   0.00000  Uiso   1.00
H1230  H     0.92355   0.78039   0.59326   0.00000  Uiso   1.00
H1231  H     0.90505   0.75098   0.96268   0.00000  Uiso   1.00
H1232  H     0.71457   0.88733   0.97655   0.00000  Uiso   1.00
H1233  H     0.74204   0.88946   0.90601   0.00000  Uiso   1.00
O1234  O     0.83333   0.83333   0.75000   0.00000  Uiso   1.00
O1235  O     0.82360   0.79060   0.66625   0.00000  Uiso   1.00
O1236  O     0.79354   0.87313   0.83749   0.00000  Uiso   1.00
O1237  O     0.87755   0.84159   0.65877   0.00000  Uiso   1.00
O1238  O     0.83865   0.82802   0.83749   0.00000  Uiso   1.00
O1239  O     0.70674   0.91672   0.55343   0.00000  Uiso   1.00
O1240  O     0.99656   0.85334   0.53452   0.00000  Uiso   1.00
O1241  O     0.68649   0.85672   0.59899   0.00000  Uiso   1.00
O1242  O     0.94522   0.70956   0.99715   0.00000  Uiso   1.00
O1243  O     0.97864   0.77833   0.97633   0.00000  Uiso   1.00
O1244  O     0.98914   0.75699   0.54050   0.00000  Uiso   1.00
O1245  O     0.84515   0.74768   0.77820   0.00000  Uiso   1.00
O1246  O     0.81784   0.74706   0.91234   0.00000  Uiso   1.00
O1247  O     0.89031   0.74430   0.89538   0.00000  Uiso   1.00
O1248  O     0.81247   0.92803   0.76767   0.00000  Uiso   1.00
O1249  O     0.74119   0.79917   0.73607   0.00000  Uiso   1.00
O1250  O     0.93452   0.85845   0.71805   0.00000  Uiso   1.00
O1251  O     0.73656   0.85627   0.77820   0.00000  Uiso   1.00
O1252  O     0.92106   0.81944   0.76767   0.00000  Uiso   1.00
O1253  O     0.80467   0.73570   0.73607   0.00000  Uiso   1.00
O1254  O     0.87104   0.92193   0.71805   0.00000  Uiso   1.00
S1255  S     0.69975   0.86992   0.55244   0.00000  Uiso   1.00
S1256  S     0.95603   0.75448   0.51137   0.00000  Uiso   1.00
Zn1257 Zn    0.85910   0.80756   0.78277   0.00000  Uiso   1.00
Zn1258 Zn    0.80125   0.79044   0.72257   0.00000  Uiso   1.00
Zn1259 Zn    0.87833   0.86331   0.71188   0.00000  Uiso   1.00
Zn1260 Zn    0.79465   0.87202   0.78277   0.00000  Uiso   1.00
loop_
_geom_bond_atom_site_label_1
_geom_bond_atom_site_label_2
_geom_bond_distance
_geom_bond_site_symmetry_2
_ccdc_geom_bond_type
C1     O61     1.269   .     A
C1     C11     1.436   .     S
C1     O59     1.269   .     A
C2     C22     1.488   .     S
C2     C3      1.395   .     A
C2     C26     1.424   .     A
C3     H41     1.080   .     S
C3     C635    1.401   .     S
C4     O60     1.277   .     A
C4     C10     1.454   .     S
C4     O62     1.275   .     A
C5     C6      1.426   .     A
C5     C7      1.423   .     A
C5     C633    1.401   1_554 S
C6     C27     1.429   .     A
C6     C9      1.411   .     A
C7     C8      1.397   .     A
C7     S66     1.776   .     S
C8     C20     1.392   .     A
C8     H40     1.083   .     S
C9     C20     1.391   .     A
C9     H39     1.077   .     S
C10    C81     1.334   .     S
C10    H100    1.088   .     S
C11    C150    1.334   1_455 S
C11    H176    1.086   1_455 S
C12    C19     1.398   .     A
C12    H43     1.083   .     S
C12    C21     1.393   .     A
C13    C16     1.452   .     S
C13    C224    1.332   .     S
C13    H247    1.088   .     S
C14    C15     1.436   .     S
C14    C433    1.332   1_545 S
C14    H458    1.086   1_545 S
C15    O55     1.274   .     A
C15    O63     1.273   .     A
C16    O64     1.269   .     A
C16    O58     1.270   .     A
C17    C20     1.458   .     S
C17    O47     1.275   .     A
C17    O45     1.275   .     A
C18    O46     1.283   .     A
C18    C19     1.475   .     S
C18    O48     1.285   .     A
C19    C23     1.396   .     A
C21    H42     1.079   .     S
C21    C25     1.412   .     A
C22    O57     1.399   .     S
C22    O56     1.223   .     D
C23    C24     1.409   .     A
C23    H31     1.080   .     S
C24    C26     1.426   .     A
C24    C25     1.422   .     A
C25    C659    1.412   .     S
C26    C657    1.418   .     S
C27    C28     1.414   .     A
C27    C656    1.418   1_554 S
C28    H32     1.074   .     S
C28    C29     1.397   .     A
C29    S65     1.777   .     S
C29    C655    1.412   1_554 S
H30    C150    1.088   1_455 S
H33    O121    0.991   .     S
H34    O194    0.991   1_455 S
H35    O57     1.014   .     S
H36    C81     1.086   .     S
H37    C433    1.088   1_545 S
H38    C224    1.086   .     S
O44    Zn70    1.933   .     S
O44    Zn68    1.939   .     S
O44    Zn67    1.951   .     S
O44    Zn69    1.930   .     S
O45    Zn68    1.920   .     S
O46    Zn70    1.928   .     S
O47    Zn69    1.924   .     S
O48    Zn67    1.918   .     S
O49    S65     1.503   .     D
O50    S135    1.503   .     S
O51    S65     1.683   .     S
O51    H173    0.991   1_455 S
O52    S696    1.503   .     S
O53    S696    1.504   .     S
O54    S66     1.683   .     S
O54    H104    0.991   .     S
O55    Zn67    1.929   .     S
O58    Zn70    1.930   .     S
O59    Zn68    1.927   .     S
O60    Zn69    1.935   .     S
O61    Zn70    1.930   .     S
O62    Zn67    1.924   .     S
O63    Zn68    1.935   .     S
O64    Zn69    1.932   .     S
S65    O190    1.503   1_455 S
S66    O682    1.503   1_554 S
S66    O683    1.504   1_554 S
C71    O131    1.269   .     A
C71    C81     1.436   .     S
C71    O129    1.269   .     A
C72    C92     1.488   .     S
C72    C73     1.395   .     A
C72    C96     1.424   .     A
C73    H111    1.080   .     S
C73    C705    1.401   .     S
C74    O130    1.277   .     A
C74    C80     1.454   .     S
C74    O132    1.275   .     A
C75    C76     1.426   .     A
C75    C77     1.423   .     A
C75    C703    1.401   1_554 S
C76    C97     1.429   .     A
C76    C79     1.411   .     A
C77    C78     1.397   .     A
C77    S136    1.776   .     S
C78    C90     1.392   .     A
C78    H110    1.083   .     S
C79    C90     1.391   .     A
C79    H109    1.077   .     S
C80    C151    1.334   .     S
C80    H170    1.088   .     S
C82    C89     1.398   .     A
C82    H113    1.083   .     S
C82    C91     1.393   .     A
C83    C86     1.452   .     S
C83    C294    1.332   .     S
C83    H317    1.088   .     S
C84    C85     1.436   .     S
C84    C503    1.332   1_545 S
C84    H528    1.086   1_545 S
C85    O125    1.274   .     A
C85    O133    1.273   .     A
C86    O134    1.269   .     A
C86    O128    1.270   .     A
C87    C90     1.458   .     S
C87    O117    1.275   .     A
C87    O115    1.275   .     A
C88    O116    1.283   .     A
C88    C89     1.475   .     S
C88    O118    1.285   .     A
C89    C93     1.396   .     A
C91    H112    1.079   .     S
C91    C95     1.412   .     A
C92    O127    1.399   .     S
C92    O126    1.223   .     D
C93    C94     1.409   .     A
C93    H101    1.080   .     S
C94    C96     1.426   .     A
C94    C95     1.422   .     A
C95    C729    1.412   .     S
C96    C727    1.418   .     S
C97    C98     1.414   .     A
C97    C726    1.418   1_554 S
C98    H102    1.074   .     S
C98    C99     1.397   .     A
C99    S135    1.777   .     S
C99    C725    1.412   1_554 S
H103   O191    0.991   .     S
H105   O127    1.014   .     S
H106   C151    1.086   .     S
H107   C503    1.088   1_545 S
H108   C294    1.086   .     S
O114   Zn140   1.933   .     S
O114   Zn138   1.939   .     S
O114   Zn137   1.951   .     S
O114   Zn139   1.930   .     S
O115   Zn138   1.920   .     S
O116   Zn140   1.928   .     S
O117   Zn139   1.924   .     S
O118   Zn137   1.918   .     S
O119   S135    1.503   .     D
O120   S205    1.503   .     S
O121   S135    1.683   .     S
O122   S766    1.503   .     S
O123   S766    1.504   .     S
O124   S136    1.683   .     S
O124   H174    0.991   .     S
O125   Zn137   1.929   .     S
O128   Zn140   1.930   .     S
O129   Zn138   1.927   .     S
O130   Zn139   1.935   .     S
O131   Zn140   1.930   .     S
O132   Zn137   1.924   .     S
O133   Zn138   1.935   .     S
O134   Zn139   1.932   .     S
S136   O752    1.503   1_554 S
S136   O753    1.504   1_554 S
C141   O201    1.269   .     A
C141   C151    1.436   .     S
C141   O199    1.269   .     A
C142   C162    1.488   .     S
C142   C143    1.395   .     A
C142   C166    1.424   .     A
C143   H181    1.080   .     S
C143   C775    1.401   .     S
C144   O200    1.277   .     A
C144   C150    1.454   .     S
C144   O202    1.275   .     A
C145   C146    1.426   .     A
C145   C147    1.423   .     A
C145   C773    1.401   1_554 S
C146   C167    1.429   .     A
C146   C149    1.411   .     A
C147   C148    1.397   .     A
C147   S206    1.776   .     S
C148   C160    1.392   .     A
C148   H180    1.083   .     S
C149   C160    1.391   .     A
C149   H179    1.077   .     S
C150   C11     1.334   1_655 S
C150   H30     1.088   1_655 S
C152   C159    1.398   .     A
C152   H183    1.083   .     S
C152   C161    1.393   .     A
C153   C156    1.452   .     S
C153   C364    1.332   .     S
C153   H387    1.088   .     S
C154   C155    1.436   .     S
C154   C573    1.332   1_545 S
C154   H598    1.086   1_545 S
C155   O195    1.274   .     A
C155   O203    1.273   .     A
C156   O204    1.269   .     A
C156   O198    1.270   .     A
C157   C160    1.458   .     S
C157   O187    1.275   .     A
C157   O185    1.275   .     A
C158   O186    1.283   .     A
C158   C159    1.475   .     S
C158   O188    1.285   .     A
C159   C163    1.396   .     A
C161   H182    1.079   .     S
C161   C165    1.412   .     A
C162   O197    1.399   .     S
C162   O196    1.223   .     D
C163   C164    1.409   .     A
C163   H171    1.080   .     S
C164   C166    1.426   .     A
C164   C165    1.422   .     A
C165   C799    1.412   .     S
C166   C797    1.418   .     S
C167   C168    1.414   .     A
C167   C796    1.418   1_554 S
C168   H172    1.074   .     S
C168   C169    1.397   .     A
C169   S205    1.777   .     S
C169   C795    1.412   1_554 S
H173   O51     0.991   1_655 S
H175   O197    1.014   .     S
H176   C11     1.086   1_655 S
H177   C573    1.088   1_545 S
H178   C364    1.086   .     S
O184   Zn210   1.933   .     S
O184   Zn208   1.939   .     S
O184   Zn207   1.951   .     S
O184   Zn209   1.930   .     S
O185   Zn208   1.920   .     S
O186   Zn210   1.928   .     S
O187   Zn209   1.924   .     S
O188   Zn207   1.918   .     S
O189   S205    1.503   .     D
O190   S65     1.503   1_655 S
O191   S205    1.683   .     S
O192   S836    1.503   .     S
O193   S836    1.504   .     S
O194   S206    1.683   .     S
O194   H34     0.991   1_655 S
O195   Zn207   1.929   .     S
O198   Zn210   1.930   .     S
O199   Zn208   1.927   .     S
O200   Zn209   1.935   .     S
O201   Zn210   1.930   .     S
O202   Zn207   1.924   .     S
O203   Zn208   1.935   .     S
O204   Zn209   1.932   .     S
S206   O822    1.503   1_554 S
S206   O823    1.504   1_554 S
C211   O271    1.269   .     A
C211   C221    1.436   .     S
C211   O269    1.269   .     A
C212   C232    1.488   .     S
C212   C213    1.395   .     A
C212   C236    1.424   .     A
C213   H251    1.080   .     S
C213   C845    1.401   .     S
C214   O270    1.277   .     A
C214   C220    1.454   .     S
C214   O272    1.275   .     A
C215   C216    1.426   .     A
C215   C217    1.423   .     A
C215   C843    1.401   1_554 S
C216   C237    1.429   .     A
C216   C219    1.411   .     A
C217   C218    1.397   .     A
C217   S276    1.776   .     S
C218   C230    1.392   .     A
C218   H250    1.083   .     S
C219   C230    1.391   .     A
C219   H249    1.077   .     S
C220   C291    1.334   .     S
C220   H310    1.088   .     S
C221   C360    1.334   1_455 S
C221   H386    1.086   1_455 S
C222   C229    1.398   .     A
C222   H253    1.083   .     S
C222   C231    1.393   .     A
C223   C226    1.452   .     S
C223   C434    1.332   .     S
C223   H457    1.088   .     S
C224   C225    1.436   .     S
C225   O265    1.274   .     A
C225   O273    1.273   .     A
C226   O274    1.269   .     A
C226   O268    1.270   .     A
C227   C230    1.458   .     S
C227   O257    1.275   .     A
C227   O255    1.275   .     A
C228   O256    1.283   .     A
C228   C229    1.475   .     S
C228   O258    1.285   .     A
C229   C233    1.396   .     A
C231   H252    1.079   .     S
C231   C235    1.412   .     A
C232   O267    1.399   .     S
C232   O266    1.223   .     D
C233   C234    1.409   .     A
C233   H241    1.080   .     S
C234   C236    1.426   .     A
C234   C235    1.422   .     A
C235   C869    1.412   .     S
C236   C867    1.418   .     S
C237   C238    1.414   .     A
C237   C866    1.418   1_554 S
C238   H242    1.074   .     S
C238   C239    1.397   .     A
C239   S275    1.777   .     S
C239   C865    1.412   1_554 S
H240   C360    1.088   1_455 S
H243   O331    0.991   .     S
H244   O404    0.991   1_455 S
H245   O267    1.014   .     S
H246   C291    1.086   .     S
H248   C434    1.086   .     S
O254   Zn280   1.933   .     S
O254   Zn278   1.939   .     S
O254   Zn277   1.951   .     S
O254   Zn279   1.930   .     S
O255   Zn278   1.920   .     S
O256   Zn280   1.928   .     S
O257   Zn279   1.924   .     S
O258   Zn277   1.918   .     S
O259   S275    1.503   .     D
O260   S345    1.503   .     S
O261   S275    1.683   .     S
O261   H383    0.991   1_455 S
O262   S906    1.503   .     S
O263   S906    1.504   .     S
O264   S276    1.683   .     S
O264   H314    0.991   .     S
O265   Zn277   1.929   .     S
O268   Zn280   1.930   .     S
O269   Zn278   1.927   .     S
O270   Zn279   1.935   .     S
O271   Zn280   1.930   .     S
O272   Zn277   1.924   .     S
O273   Zn278   1.935   .     S
O274   Zn279   1.932   .     S
S275   O400    1.503   1_455 S
S276   O892    1.503   1_554 S
S276   O893    1.504   1_554 S
C281   O341    1.269   .     A
C281   C291    1.436   .     S
C281   O339    1.269   .     A
C282   C302    1.488   .     S
C282   C283    1.395   .     A
C282   C306    1.424   .     A
C283   H321    1.080   .     S
C283   C915    1.401   .     S
C284   O340    1.277   .     A
C284   C290    1.454   .     S
C284   O342    1.275   .     A
C285   C286    1.426   .     A
C285   C287    1.423   .     A
C285   C913    1.401   1_554 S
C286   C307    1.429   .     A
C286   C289    1.411   .     A
C287   C288    1.397   .     A
C287   S346    1.776   .     S
C288   C300    1.392   .     A
C288   H320    1.083   .     S
C289   C300    1.391   .     A
C289   H319    1.077   .     S
C290   C361    1.334   .     S
C290   H380    1.088   .     S
C292   C299    1.398   .     A
C292   H323    1.083   .     S
C292   C301    1.393   .     A
C293   C296    1.452   .     S
C293   C504    1.332   .     S
C293   H527    1.088   .     S
C294   C295    1.436   .     S
C295   O335    1.274   .     A
C295   O343    1.273   .     A
C296   O344    1.269   .     A
C296   O338    1.270   .     A
C297   C300    1.458   .     S
C297   O327    1.275   .     A
C297   O325    1.275   .     A
C298   O326    1.283   .     A
C298   C299    1.475   .     S
C298   O328    1.285   .     A
C299   C303    1.396   .     A
C301   H322    1.079   .     S
C301   C305    1.412   .     A
C302   O337    1.399   .     S
C302   O336    1.223   .     D
C303   C304    1.409   .     A
C303   H311    1.080   .     S
C304   C306    1.426   .     A
C304   C305    1.422   .     A
C305   C939    1.412   .     S
C306   C937    1.418   .     S
C307   C308    1.414   .     A
C307   C936    1.418   1_554 S
C308   H312    1.074   .     S
C308   C309    1.397   .     A
C309   S345    1.777   .     S
C309   C935    1.412   1_554 S
H313   O401    0.991   .     S
H315   O337    1.014   .     S
H316   C361    1.086   .     S
H318   C504    1.086   .     S
O324   Zn350   1.933   .     S
O324   Zn348   1.939   .     S
O324   Zn347   1.951   .     S
O324   Zn349   1.930   .     S
O325   Zn348   1.920   .     S
O326   Zn350   1.928   .     S
O327   Zn349   1.924   .     S
O328   Zn347   1.918   .     S
O329   S345    1.503   .     D
O330   S415    1.503   .     S
O331   S345    1.683   .     S
O332   S976    1.503   .     S
O333   S976    1.504   .     S
O334   S346    1.683   .     S
O334   H384    0.991   .     S
O335   Zn347   1.929   .     S
O338   Zn350   1.930   .     S
O339   Zn348   1.927   .     S
O340   Zn349   1.935   .     S
O341   Zn350   1.930   .     S
O342   Zn347   1.924   .     S
O343   Zn348   1.935   .     S
O344   Zn349   1.932   .     S
S346   O962    1.503   1_554 S
S346   O963    1.504   1_554 S
C351   O411    1.269   .     A
C351   C361    1.436   .     S
C351   O409    1.269   .     A
C352   C372    1.488   .     S
C352   C353    1.395   .     A
C352   C376    1.424   .     A
C353   H391    1.080   .     S
C353   C985    1.401   .     S
C354   O410    1.277   .     A
C354   C360    1.454   .     S
C354   O412    1.275   .     A
C355   C356    1.426   .     A
C355   C357    1.423   .     A
C355   C983    1.401   1_554 S
C356   C377    1.429   .     A
C356   C359    1.411   .     A
C357   C358    1.397   .     A
C357   S416    1.776   .     S
C358   C370    1.392   .     A
C358   H390    1.083   .     S
C359   C370    1.391   .     A
C359   H389    1.077   .     S
C360   C221    1.334   1_655 S
C360   H240    1.088   1_655 S
C362   C369    1.398   .     A
C362   H393    1.083   .     S
C362   C371    1.393   .     A
C363   C366    1.452   .     S
C363   C574    1.332   .     S
C363   H597    1.088   .     S
C364   C365    1.436   .     S
C365   O405    1.274   .     A
C365   O413    1.273   .     A
C366   O414    1.269   .     A
C366   O408    1.270   .     A
C367   C370    1.458   .     S
C367   O397    1.275   .     A
C367   O395    1.275   .     A
C368   O396    1.283   .     A
C368   C369    1.475   .     S
C368   O398    1.285   .     A
C369   C373    1.396   .     A
C371   H392    1.079   .     S
C371   C375    1.412   .     A
C372   O407    1.399   .     S
C372   O406    1.223   .     D
C373   C374    1.409   .     A
C373   H381    1.080   .     S
C374   C376    1.426   .     A
C374   C375    1.422   .     A
C375   C1009   1.412   .     S
C376   C1007   1.418   .     S
C377   C378    1.414   .     A
C377   C1006   1.418   1_554 S
C378   H382    1.074   .     S
C378   C379    1.397   .     A
C379   S415    1.777   .     S
C379   C1005   1.412   1_554 S
H383   O261    0.991   1_655 S
H385   O407    1.014   .     S
H386   C221    1.086   1_655 S
H388   C574    1.086   .     S
O394   Zn420   1.933   .     S
O394   Zn418   1.939   .     S
O394   Zn417   1.951   .     S
O394   Zn419   1.930   .     S
O395   Zn418   1.920   .     S
O396   Zn420   1.928   .     S
O397   Zn419   1.924   .     S
O398   Zn417   1.918   .     S
O399   S415    1.503   .     D
O400   S275    1.503   1_655 S
O401   S415    1.683   .     S
O402   S1046   1.503   .     S
O403   S1046   1.504   .     S
O404   S416    1.683   .     S
O404   H244    0.991   1_655 S
O405   Zn417   1.929   .     S
O408   Zn420   1.930   .     S
O409   Zn418   1.927   .     S
O410   Zn419   1.935   .     S
O411   Zn420   1.930   .     S
O412   Zn417   1.924   .     S
O413   Zn418   1.935   .     S
O414   Zn419   1.932   .     S
S416   O1032   1.503   1_554 S
S416   O1033   1.504   1_554 S
C421   O481    1.269   .     A
C421   C431    1.436   .     S
C421   O479    1.269   .     A
C422   C442    1.488   .     S
C422   C423    1.395   .     A
C422   C446    1.424   .     A
C423   H461    1.080   .     S
C423   C1055   1.401   .     S
C424   O480    1.277   .     A
C424   C430    1.454   .     S
C424   O482    1.275   .     A
C425   C426    1.426   .     A
C425   C427    1.423   .     A
C425   C1053   1.401   1_554 S
C426   C447    1.429   .     A
C426   C429    1.411   .     A
C427   C428    1.397   .     A
C427   S486    1.776   .     S
C428   C440    1.392   .     A
C428   H460    1.083   .     S
C429   C440    1.391   .     A
C429   H459    1.077   .     S
C430   C501    1.334   .     S
C430   H520    1.088   .     S
C431   C570    1.334   1_455 S
C431   H596    1.086   1_455 S
C432   C439    1.398   .     A
C432   H463    1.083   .     S
C432   C441    1.393   .     A
C433   C436    1.452   .     S
C433   C14     1.332   1_565 S
C433   H37     1.088   1_565 S
C434   C435    1.436   .     S
C435   O475    1.274   .     A
C435   O483    1.273   .     A
C436   O484    1.269   .     A
C436   O478    1.270   .     A
C437   C440    1.458   .     S
C437   O467    1.275   .     A
C437   O465    1.275   .     A
C438   O466    1.283   .     A
C438   C439    1.475   .     S
C438   O468    1.285   .     A
C439   C443    1.396   .     A
C441   H462    1.079   .     S
C441   C445    1.412   .     A
C442   O477    1.399   .     S
C442   O476    1.223   .     D
C443   C444    1.409   .     A
C443   H451    1.080   .     S
C444   C446    1.426   .     A
C444   C445    1.422   .     A
C445   C1079   1.412   .     S
C446   C1077   1.418   .     S
C447   C448    1.414   .     A
C447   C1076   1.418   1_554 S
C448   H452    1.074   .     S
C448   C449    1.397   .     A
C449   S485    1.777   .     S
C449   C1075   1.412   1_554 S
H450   C570    1.088   1_455 S
H453   O541    0.991   .     S
H454   O614    0.991   1_455 S
H455   O477    1.014   .     S
H456   C501    1.086   .     S
H458   C14     1.086   1_565 S
O464   Zn490   1.933   .     S
O464   Zn488   1.939   .     S
O464   Zn487   1.951   .     S
O464   Zn489   1.930   .     S
O465   Zn488   1.920   .     S
O466   Zn490   1.928   .     S
O467   Zn489   1.924   .     S
O468   Zn487   1.918   .     S
O469   S485    1.503   .     D
O470   S555    1.503   .     S
O471   S485    1.683   .     S
O471   H593    0.991   1_455 S
O472   S1116   1.503   .     S
O473   S1116   1.504   .     S
O474   S486    1.683   .     S
O474   H524    0.991   .     S
O475   Zn487   1.929   .     S
O478   Zn490   1.930   .     S
O479   Zn488   1.927   .     S
O480   Zn489   1.935   .     S
O481   Zn490   1.930   .     S
O482   Zn487   1.924   .     S
O483   Zn488   1.935   .     S
O484   Zn489   1.932   .     S
S485   O610    1.503   1_455 S
S486   O1102   1.503   1_554 S
S486   O1103   1.504   1_554 S
C491   O551    1.269   .     A
C491   C501    1.436   .     S
C491   O549    1.269   .     A
C492   C512    1.488   .     S
C492   C493    1.395   .     A
C492   C516    1.424   .     A
C493   H531    1.080   .     S
C493   C1125   1.401   .     S
C494   O550    1.277   .     A
C494   C500    1.454   .     S
C494   O552    1.275   .     A
C495   C496    1.426   .     A
C495   C497    1.423   .     A
C495   C1123   1.401   1_554 S
C496   C517    1.429   .     A
C496   C499    1.411   .     A
C497   C498    1.397   .     A
C497   S556    1.776   .     S
C498   C510    1.392   .     A
C498   H530    1.083   .     S
C499   C510    1.391   .     A
C499   H529    1.077   .     S
C500   C571    1.334   .     S
C500   H590    1.088   .     S
C502   C509    1.398   .     A
C502   H533    1.083   .     S
C502   C511    1.393   .     A
C503   C506    1.452   .     S
C503   C84     1.332   1_565 S
C503   H107    1.088   1_565 S
C504   C505    1.436   .     S
C505   O545    1.274   .     A
C505   O553    1.273   .     A
C506   O554    1.269   .     A
C506   O548    1.270   .     A
C507   C510    1.458   .     S
C507   O537    1.275   .     A
C507   O535    1.275   .     A
C508   O536    1.283   .     A
C508   C509    1.475   .     S
C508   O538    1.285   .     A
C509   C513    1.396   .     A
C511   H532    1.079   .     S
C511   C515    1.412   .     A
C512   O547    1.399   .     S
C512   O546    1.223   .     D
C513   C514    1.409   .     A
C513   H521    1.080   .     S
C514   C516    1.426   .     A
C514   C515    1.422   .     A
C515   C1149   1.412   .     S
C516   C1147   1.418   .     S
C517   C518    1.414   .     A
C517   C1146   1.418   1_554 S
C518   H522    1.074   .     S
C518   C519    1.397   .     A
C519   S555    1.777   .     S
C519   C1145   1.412   1_554 S
H523   O611    0.991   .     S
H525   O547    1.014   .     S
H526   C571    1.086   .     S
H528   C84     1.086   1_565 S
O534   Zn560   1.933   .     S
O534   Zn558   1.939   .     S
O534   Zn557   1.951   .     S
O534   Zn559   1.930   .     S
O535   Zn558   1.920   .     S
O536   Zn560   1.928   .     S
O537   Zn559   1.924   .     S
O538   Zn557   1.918   .     S
O539   S555    1.503   .     D
O540   S625    1.503   .     S
O541   S555    1.683   .     S
O542   S1186   1.503   .     S
O543   S1186   1.504   .     S
O544   S556    1.683   .     S
O544   H594    0.991   .     S
O545   Zn557   1.929   .     S
O548   Zn560   1.930   .     S
O549   Zn558   1.927   .     S
O550   Zn559   1.935   .     S
O551   Zn560   1.930   .     S
O552   Zn557   1.924   .     S
O553   Zn558   1.935   .     S
O554   Zn559   1.932   .     S
S556   O1172   1.503   1_554 S
S556   O1173   1.504   1_554 S
C561   O621    1.269   .     A
C561   C571    1.436   .     S
C561   O619    1.269   .     A
C562   C582    1.488   .     S
C562   C563    1.395   .     A
C562   C586    1.424   .     A
C563   H601    1.080   .     S
C563   C1195   1.401   .     S
C564   O620    1.277   .     A
C564   C570    1.454   .     S
C564   O622    1.275   .     A
C565   C566    1.426   .     A
C565   C567    1.423   .     A
C565   C1193   1.401   1_554 S
C566   C587    1.429   .     A
C566   C569    1.411   .     A
C567   C568    1.397   .     A
C567   S626    1.776   .     S
C568   C580    1.392   .     A
C568   H600    1.083   .     S
C569   C580    1.391   .     A
C569   H599    1.077   .     S
C570   C431    1.334   1_655 S
C570   H450    1.088   1_655 S
C572   C579    1.398   .     A
C572   H603    1.083   .     S
C572   C581    1.393   .     A
C573   C576    1.452   .     S
C573   C154    1.332   1_565 S
C573   H177    1.088   1_565 S
C574   C575    1.436   .     S
C575   O615    1.274   .     A
C575   O623    1.273   .     A
C576   O624    1.269   .     A
C576   O618    1.270   .     A
C577   C580    1.458   .     S
C577   O607    1.275   .     A
C577   O605    1.275   .     A
C578   O606    1.283   .     A
C578   C579    1.475   .     S
C578   O608    1.285   .     A
C579   C583    1.396   .     A
C581   H602    1.079   .     S
C581   C585    1.412   .     A
C582   O617    1.399   .     S
C582   O616    1.223   .     D
C583   C584    1.409   .     A
C583   H591    1.080   .     S
C584   C586    1.426   .     A
C584   C585    1.422   .     A
C585   C1219   1.412   .     S
C586   C1217   1.418   .     S
C587   C588    1.414   .     A
C587   C1216   1.418   1_554 S
C588   H592    1.074   .     S
C588   C589    1.397   .     A
C589   S625    1.777   .     S
C589   C1215   1.412   1_554 S
H593   O471    0.991   1_655 S
H595   O617    1.014   .     S
H596   C431    1.086   1_655 S
H598   C154    1.086   1_565 S
O604   Zn630   1.933   .     S
O604   Zn628   1.939   .     S
O604   Zn627   1.951   .     S
O604   Zn629   1.930   .     S
O605   Zn628   1.920   .     S
O606   Zn630   1.928   .     S
O607   Zn629   1.924   .     S
O608   Zn627   1.918   .     S
O609   S625    1.503   .     D
O610   S485    1.503   1_655 S
O611   S625    1.683   .     S
O612   S1256   1.503   .     S
O613   S1256   1.504   .     S
O614   S626    1.683   .     S
O614   H454    0.991   1_655 S
O615   Zn627   1.929   .     S
O618   Zn630   1.930   .     S
O619   Zn628   1.927   .     S
O620   Zn629   1.935   .     S
O621   Zn630   1.930   .     S
O622   Zn627   1.924   .     S
O623   Zn628   1.935   .     S
O624   Zn629   1.932   .     S
S626   O1242   1.503   1_554 S
S626   O1243   1.504   1_554 S
C631   O691    1.269   .     A
C631   C641    1.436   .     S
C631   O689    1.269   .     A
C632   C652    1.488   .     S
C632   C633    1.395   .     A
C632   C656    1.424   .     A
C633   H671    1.080   .     S
C633   C5      1.401   1_556 S
C634   O690    1.277   .     A
C634   C640    1.454   .     S
C634   O692    1.275   .     A
C635   C636    1.426   .     A
C635   C637    1.423   .     A
C636   C657    1.429   .     A
C636   C639    1.411   .     A
C637   C638    1.397   .     A
C637   S696    1.776   .     S
C638   C650    1.392   .     A
C638   H670    1.083   .     S
C639   C650    1.391   .     A
C639   H669    1.077   .     S
C640   C711    1.334   .     S
C640   H730    1.088   .     S
C641   C780    1.334   1_455 S
C641   H806    1.086   1_455 S
C642   C649    1.398   .     A
C642   H673    1.083   .     S
C642   C651    1.393   .     A
C643   C646    1.452   .     S
C643   C854    1.332   .     S
C643   H877    1.088   .     S
C644   C645    1.436   .     S
C644   C1063   1.332   1_545 S
C644   H1088   1.086   1_545 S
C645   O685    1.274   .     A
C645   O693    1.273   .     A
C646   O694    1.269   .     A
C646   O688    1.270   .     A
C647   C650    1.458   .     S
C647   O677    1.275   .     A
C647   O675    1.275   .     A
C648   O676    1.283   .     A
C648   C649    1.475   .     S
C648   O678    1.285   .     A
C649   C653    1.396   .     A
C651   H672    1.079   .     S
C651   C655    1.412   .     A
C652   O687    1.399   .     S
C652   O686    1.223   .     D
C653   C654    1.409   .     A
C653   H661    1.080   .     S
C654   C656    1.426   .     A
C654   C655    1.422   .     A
C655   C29     1.412   1_556 S
C656   C27     1.418   1_556 S
C657   C658    1.414   .     A
C658   H662    1.074   .     S
C658   C659    1.397   .     A
C659   S695    1.777   .     S
H660   C780    1.088   1_455 S
H663   O751    0.991   .     S
H664   O824    0.991   1_455 S
H665   O687    1.014   .     S
H666   C711    1.086   .     S
H667   C1063   1.088   1_545 S
H668   C854    1.086   .     S
O674   Zn700   1.933   .     S
O674   Zn698   1.939   .     S
O674   Zn697   1.951   .     S
O674   Zn699   1.930   .     S
O675   Zn698   1.920   .     S
O676   Zn700   1.928   .     S
O677   Zn699   1.924   .     S
O678   Zn697   1.918   .     S
O679   S695    1.503   .     D
O680   S765    1.503   .     S
O681   S695    1.683   .     S
O681   H803    0.991   1_455 S
O682   S66     1.503   1_556 S
O683   S66     1.504   1_556 S
O684   S696    1.683   .     S
O684   H734    0.991   .     S
O685   Zn697   1.929   .     S
O688   Zn700   1.930   .     S
O689   Zn698   1.927   .     S
O690   Zn699   1.935   .     S
O691   Zn700   1.930   .     S
O692   Zn697   1.924   .     S
O693   Zn698   1.935   .     S
O694   Zn699   1.932   .     S
S695   O820    1.503   1_455 S
C701   O761    1.269   .     A
C701   C711    1.436   .     S
C701   O759    1.269   .     A
C702   C722    1.488   .     S
C702   C703    1.395   .     A
C702   C726    1.424   .     A
C703   H741    1.080   .     S
C703   C75     1.401   1_556 S
C704   O760    1.277   .     A
C704   C710    1.454   .     S
C704   O762    1.275   .     A
C705   C706    1.426   .     A
C705   C707    1.423   .     A
C706   C727    1.429   .     A
C706   C709    1.411   .     A
C707   C708    1.397   .     A
C707   S766    1.776   .     S
C708   C720    1.392   .     A
C708   H740    1.083   .     S
C709   C720    1.391   .     A
C709   H739    1.077   .     S
C710   C781    1.334   .     S
C710   H800    1.088   .     S
C712   C719    1.398   .     A
C712   H743    1.083   .     S
C712   C721    1.393   .     A
C713   C716    1.452   .     S
C713   C924    1.332   .     S
C713   H947    1.088   .     S
C714   C715    1.436   .     S
C714   C1133   1.332   1_545 S
C714   H1158   1.086   1_545 S
C715   O755    1.274   .     A
C715   O763    1.273   .     A
C716   O764    1.269   .     A
C716   O758    1.270   .     A
C717   C720    1.458   .     S
C717   O747    1.275   .     A
C717   O745    1.275   .     A
C718   O746    1.283   .     A
C718   C719    1.475   .     S
C718   O748    1.285   .     A
C719   C723    1.396   .     A
C721   H742    1.079   .     S
C721   C725    1.412   .     A
C722   O757    1.399   .     S
C722   O756    1.223   .     D
C723   C724    1.409   .     A
C723   H731    1.080   .     S
C724   C726    1.426   .     A
C724   C725    1.422   .     A
C725   C99     1.412   1_556 S
C726   C97     1.418   1_556 S
C727   C728    1.414   .     A
C728   H732    1.074   .     S
C728   C729    1.397   .     A
C729   S765    1.777   .     S
H733   O821    0.991   .     S
H735   O757    1.014   .     S
H736   C781    1.086   .     S
H737   C1133   1.088   1_545 S
H738   C924    1.086   .     S
O744   Zn770   1.933   .     S
O744   Zn768   1.939   .     S
O744   Zn767   1.951   .     S
O744   Zn769   1.930   .     S
O745   Zn768   1.920   .     S
O746   Zn770   1.928   .     S
O747   Zn769   1.924   .     S
O748   Zn767   1.918   .     S
O749   S765    1.503   .     D
O750   S835    1.503   .     S
O751   S765    1.683   .     S
O752   S136    1.503   1_556 S
O753   S136    1.504   1_556 S
O754   S766    1.683   .     S
O754   H804    0.991   .     S
O755   Zn767   1.929   .     S
O758   Zn770   1.930   .     S
O759   Zn768   1.927   .     S
O760   Zn769   1.935   .     S
O761   Zn770   1.930   .     S
O762   Zn767   1.924   .     S
O763   Zn768   1.935   .     S
O764   Zn769   1.932   .     S
C771   O831    1.269   .     A
C771   C781    1.436   .     S
C771   O829    1.269   .     A
C772   C792    1.488   .     S
C772   C773    1.395   .     A
C772   C796    1.424   .     A
C773   H811    1.080   .     S
C773   C145    1.401   1_556 S
C774   O830    1.277   .     A
C774   C780    1.454   .     S
C774   O832    1.275   .     A
C775   C776    1.426   .     A
C775   C777    1.423   .     A
C776   C797    1.429   .     A
C776   C779    1.411   .     A
C777   C778    1.397   .     A
C777   S836    1.776   .     S
C778   C790    1.392   .     A
C778   H810    1.083   .     S
C779   C790    1.391   .     A
C779   H809    1.077   .     S
C780   C641    1.334   1_655 S
C780   H660    1.088   1_655 S
C782   C789    1.398   .     A
C782   H813    1.083   .     S
C782   C791    1.393   .     A
C783   C786    1.452   .     S
C783   C994    1.332   .     S
C783   H1017   1.088   .     S
C784   C785    1.436   .     S
C784   C1203   1.332   1_545 S
C784   H1228   1.086   1_545 S
C785   O825    1.274   .     A
C785   O833    1.273   .     A
C786   O834    1.269   .     A
C786   O828    1.270   .     A
C787   C790    1.458   .     S
C787   O817    1.275   .     A
C787   O815    1.275   .     A
C788   O816    1.283   .     A
C788   C789    1.475   .     S
C788   O818    1.285   .     A
C789   C793    1.396   .     A
C791   H812    1.079   .     S
C791   C795    1.412   .     A
C792   O827    1.399   .     S
C792   O826    1.223   .     D
C793   C794    1.409   .     A
C793   H801    1.080   .     S
C794   C796    1.426   .     A
C794   C795    1.422   .     A
C795   C169    1.412   1_556 S
C796   C167    1.418   1_556 S
C797   C798    1.414   .     A
C798   H802    1.074   .     S
C798   C799    1.397   .     A
C799   S835    1.777   .     S
H803   O681    0.991   1_655 S
H805   O827    1.014   .     S
H806   C641    1.086   1_655 S
H807   C1203   1.088   1_545 S
H808   C994    1.086   .     S
O814   Zn840   1.933   .     S
O814   Zn838   1.939   .     S
O814   Zn837   1.951   .     S
O814   Zn839   1.930   .     S
O815   Zn838   1.920   .     S
O816   Zn840   1.928   .     S
O817   Zn839   1.924   .     S
O818   Zn837   1.918   .     S
O819   S835    1.503   .     D
O820   S695    1.503   1_655 S
O821   S835    1.683   .     S
O822   S206    1.503   1_556 S
O823   S206    1.504   1_556 S
O824   S836    1.683   .     S
O824   H664    0.991   1_655 S
O825   Zn837   1.929   .     S
O828   Zn840   1.930   .     S
O829   Zn838   1.927   .     S
O830   Zn839   1.935   .     S
O831   Zn840   1.930   .     S
O832   Zn837   1.924   .     S
O833   Zn838   1.935   .     S
O834   Zn839   1.932   .     S
C841   O901    1.269   .     A
C841   C851    1.436   .     S
C841   O899    1.269   .     A
C842   C862    1.488   .     S
C842   C843    1.395   .     A
C842   C866    1.424   .     A
C843   H881    1.080   .     S
C843   C215    1.401   1_556 S
C844   O900    1.277   .     A
C844   C850    1.454   .     S
C844   O902    1.275   .     A
C845   C846    1.426   .     A
C845   C847    1.423   .     A
C846   C867    1.429   .     A
C846   C849    1.411   .     A
C847   C848    1.397   .     A
C847   S906    1.776   .     S
C848   C860    1.392   .     A
C848   H880    1.083   .     S
C849   C860    1.391   .     A
C849   H879    1.077   .     S
C850   C921    1.334   .     S
C850   H940    1.088   .     S
C851   C990    1.334   1_455 S
C851   H1016   1.086   1_455 S
C852   C859    1.398   .     A
C852   H883    1.083   .     S
C852   C861    1.393   .     A
C853   C856    1.452   .     S
C853   C1064   1.332   .     S
C853   H1087   1.088   .     S
C854   C855    1.436   .     S
C855   O895    1.274   .     A
C855   O903    1.273   .     A
C856   O904    1.269   .     A
C856   O898    1.270   .     A
C857   C860    1.458   .     S
C857   O887    1.275   .     A
C857   O885    1.275   .     A
C858   O886    1.283   .     A
C858   C859    1.475   .     S
C858   O888    1.285   .     A
C859   C863    1.396   .     A
C861   H882    1.079   .     S
C861   C865    1.412   .     A
C862   O897    1.399   .     S
C862   O896    1.223   .     D
C863   C864    1.409   .     A
C863   H871    1.080   .     S
C864   C866    1.426   .     A
C864   C865    1.422   .     A
C865   C239    1.412   1_556 S
C866   C237    1.418   1_556 S
C867   C868    1.414   .     A
C868   H872    1.074   .     S
C868   C869    1.397   .     A
C869   S905    1.777   .     S
H870   C990    1.088   1_455 S
H873   O961    0.991   .     S
H874   O1034   0.991   1_455 S
H875   O897    1.014   .     S
H876   C921    1.086   .     S
H878   C1064   1.086   .     S
O884   Zn910   1.933   .     S
O884   Zn908   1.939   .     S
O884   Zn907   1.951   .     S
O884   Zn909   1.930   .     S
O885   Zn908   1.920   .     S
O886   Zn910   1.928   .     S
O887   Zn909   1.924   .     S
O888   Zn907   1.918   .     S
O889   S905    1.503   .     D
O890   S975    1.503   .     S
O891   S905    1.683   .     S
O891   H1013   0.991   1_455 S
O892   S276    1.503   1_556 S
O893   S276    1.504   1_556 S
O894   S906    1.683   .     S
O894   H944    0.991   .     S
O895   Zn907   1.929   .     S
O898   Zn910   1.930   .     S
O899   Zn908   1.927   .     S
O900   Zn909   1.935   .     S
O901   Zn910   1.930   .     S
O902   Zn907   1.924   .     S
O903   Zn908   1.935   .     S
O904   Zn909   1.932   .     S
S905   O1030   1.503   1_455 S
C911   O971    1.269   .     A
C911   C921    1.436   .     S
C911   O969    1.269   .     A
C912   C932    1.488   .     S
C912   C913    1.395   .     A
C912   C936    1.424   .     A
C913   H951    1.080   .     S
C913   C285    1.401   1_556 S
C914   O970    1.277   .     A
C914   C920    1.454   .     S
C914   O972    1.275   .     A
C915   C916    1.426   .     A
C915   C917    1.423   .     A
C916   C937    1.429   .     A
C916   C919    1.411   .     A
C917   C918    1.397   .     A
C917   S976    1.776   .     S
C918   C930    1.392   .     A
C918   H950    1.083   .     S
C919   C930    1.391   .     A
C919   H949    1.077   .     S
C920   C991    1.334   .     S
C920   H1010   1.088   .     S
C922   C929    1.398   .     A
C922   H953    1.083   .     S
C922   C931    1.393   .     A
C923   C926    1.452   .     S
C923   C1134   1.332   .     S
C923   H1157   1.088   .     S
C924   C925    1.436   .     S
C925   O965    1.274   .     A
C925   O973    1.273   .     A
C926   O974    1.269   .     A
C926   O968    1.270   .     A
C927   C930    1.458   .     S
C927   O957    1.275   .     A
C927   O955    1.275   .     A
C928   O956    1.283   .     A
C928   C929    1.475   .     S
C928   O958    1.285   .     A
C929   C933    1.396   .     A
C931   H952    1.079   .     S
C931   C935    1.412   .     A
C932   O967    1.399   .     S
C932   O966    1.223   .     D
C933   C934    1.409   .     A
C933   H941    1.080   .     S
C934   C936    1.426   .     A
C934   C935    1.422   .     A
C935   C309    1.412   1_556 S
C936   C307    1.418   1_556 S
C937   C938    1.414   .     A
C938   H942    1.074   .     S
C938   C939    1.397   .     A
C939   S975    1.777   .     S
H943   O1031   0.991   .     S
H945   O967    1.014   .     S
H946   C991    1.086   .     S
H948   C1134   1.086   .     S
O954   Zn980   1.933   .     S
O954   Zn978   1.939   .     S
O954   Zn977   1.951   .     S
O954   Zn979   1.930   .     S
O955   Zn978   1.920   .     S
O956   Zn980   1.928   .     S
O957   Zn979   1.924   .     S
O958   Zn977   1.918   .     S
O959   S975    1.503   .     D
O960   S1045   1.503   .     S
O961   S975    1.683   .     S
O962   S346    1.503   1_556 S
O963   S346    1.504   1_556 S
O964   S976    1.683   .     S
O964   H1014   0.991   .     S
O965   Zn977   1.929   .     S
O968   Zn980   1.930   .     S
O969   Zn978   1.927   .     S
O970   Zn979   1.935   .     S
O971   Zn980   1.930   .     S
O972   Zn977   1.924   .     S
O973   Zn978   1.935   .     S
O974   Zn979   1.932   .     S
C981   O1041   1.269   .     A
C981   C991    1.436   .     S
C981   O1039   1.269   .     A
C982   C1002   1.488   .     S
C982   C983    1.395   .     A
C982   C1006   1.424   .     A
C983   H1021   1.080   .     S
C983   C355    1.401   1_556 S
C984   O1040   1.277   .     A
C984   C990    1.454   .     S
C984   O1042   1.275   .     A
C985   C986    1.426   .     A
C985   C987    1.423   .     A
C986   C1007   1.429   .     A
C986   C989    1.411   .     A
C987   C988    1.397   .     A
C987   S1046   1.776   .     S
C988   C1000   1.392   .     A
C988   H1020   1.083   .     S
C989   C1000   1.391   .     A
C989   H1019   1.077   .     S
C990   C851    1.334   1_655 S
C990   H870    1.088   1_655 S
C992   C999    1.398   .     A
C992   H1023   1.083   .     S
C992   C1001   1.393   .     A
C993   C996    1.452   .     S
C993   C1204   1.332   .     S
C993   H1227   1.088   .     S
C994   C995    1.436   .     S
C995   O1035   1.274   .     A
C995   O1043   1.273   .     A
C996   O1044   1.269   .     A
C996   O1038   1.270   .     A
C997   C1000   1.458   .     S
C997   O1027   1.275   .     A
C997   O1025   1.275   .     A
C998   O1026   1.283   .     A
C998   C999    1.475   .     S
C998   O1028   1.285   .     A
C999   C1003   1.396   .     A
C1001  H1022   1.079   .     S
C1001  C1005   1.412   .     A
C1002  O1037   1.399   .     S
C1002  O1036   1.223   .     D
C1003  C1004   1.409   .     A
C1003  H1011   1.080   .     S
C1004  C1006   1.426   .     A
C1004  C1005   1.422   .     A
C1005  C379    1.412   1_556 S
C1006  C377    1.418   1_556 S
C1007  C1008   1.414   .     A
C1008  H1012   1.074   .     S
C1008  C1009   1.397   .     A
C1009  S1045   1.777   .     S
H1013  O891    0.991   1_655 S
H1015  O1037   1.014   .     S
H1016  C851    1.086   1_655 S
H1018  C1204   1.086   .     S
O1024  Zn1050  1.933   .     S
O1024  Zn1048  1.939   .     S
O1024  Zn1047  1.951   .     S
O1024  Zn1049  1.930   .     S
O1025  Zn1048  1.920   .     S
O1026  Zn1050  1.928   .     S
O1027  Zn1049  1.924   .     S
O1028  Zn1047  1.918   .     S
O1029  S1045   1.503   .     D
O1030  S905    1.503   1_655 S
O1031  S1045   1.683   .     S
O1032  S416    1.503   1_556 S
O1033  S416    1.504   1_556 S
O1034  S1046   1.683   .     S
O1034  H874    0.991   1_655 S
O1035  Zn1047  1.929   .     S
O1038  Zn1050  1.930   .     S
O1039  Zn1048  1.927   .     S
O1040  Zn1049  1.935   .     S
O1041  Zn1050  1.930   .     S
O1042  Zn1047  1.924   .     S
O1043  Zn1048  1.935   .     S
O1044  Zn1049  1.932   .     S
C1051  O1111   1.269   .     A
C1051  C1061   1.436   .     S
C1051  O1109   1.269   .     A
C1052  C1072   1.488   .     S
C1052  C1053   1.395   .     A
C1052  C1076   1.424   .     A
C1053  H1091   1.080   .     S
C1053  C425    1.401   1_556 S
C1054  O1110   1.277   .     A
C1054  C1060   1.454   .     S
C1054  O1112   1.275   .     A
C1055  C1056   1.426   .     A
C1055  C1057   1.423   .     A
C1056  C1077   1.429   .     A
C1056  C1059   1.411   .     A
C1057  C1058   1.397   .     A
C1057  S1116   1.776   .     S
C1058  C1070   1.392   .     A
C1058  H1090   1.083   .     S
C1059  C1070   1.391   .     A
C1059  H1089   1.077   .     S
C1060  C1131   1.334   .     S
C1060  H1150   1.088   .     S
C1061  C1200   1.334   1_455 S
C1061  H1226   1.086   1_455 S
C1062  C1069   1.398   .     A
C1062  H1093   1.083   .     S
C1062  C1071   1.393   .     A
C1063  C1066   1.452   .     S
C1063  C644    1.332   1_565 S
C1063  H667    1.088   1_565 S
C1064  C1065   1.436   .     S
C1065  O1105   1.274   .     A
C1065  O1113   1.273   .     A
C1066  O1114   1.269   .     A
C1066  O1108   1.270   .     A
C1067  C1070   1.458   .     S
C1067  O1097   1.275   .     A
C1067  O1095   1.275   .     A
C1068  O1096   1.283   .     A
C1068  C1069   1.475   .     S
C1068  O1098   1.285   .     A
C1069  C1073   1.396   .     A
C1071  H1092   1.079   .     S
C1071  C1075   1.412   .     A
C1072  O1107   1.399   .     S
C1072  O1106   1.223   .     D
C1073  C1074   1.409   .     A
C1073  H1081   1.080   .     S
C1074  C1076   1.426   .     A
C1074  C1075   1.422   .     A
C1075  C449    1.412   1_556 S
C1076  C447    1.418   1_556 S
C1077  C1078   1.414   .     A
C1078  H1082   1.074   .     S
C1078  C1079   1.397   .     A
C1079  S1115   1.777   .     S
H1080  C1200   1.088   1_455 S
H1083  O1171   0.991   .     S
H1084  O1244   0.991   1_455 S
H1085  O1107   1.014   .     S
H1086  C1131   1.086   .     S
H1088  C644    1.086   1_565 S
O1094  Zn1120  1.933   .     S
O1094  Zn1118  1.939   .     S
O1094  Zn1117  1.951   .     S
O1094  Zn1119  1.930   .     S
O1095  Zn1118  1.920   .     S
O1096  Zn1120  1.928   .     S
O1097  Zn1119  1.924   .     S
O1098  Zn1117  1.918   .     S
O1099  S1115   1.503   .     D
O1100  S1185   1.503   .     S
O1101  S1115   1.683   .     S
O1101  H1223   0.991   1_455 S
O1102  S486    1.503   1_556 S
O1103  S486    1.504   1_556 S
O1104  S1116   1.683   .     S
O1104  H1154   0.991   .     S
O1105  Zn1117  1.929   .     S
O1108  Zn1120  1.930   .     S
O1109  Zn1118  1.927   .     S
O1110  Zn1119  1.935   .     S
O1111  Zn1120  1.930   .     S
O1112  Zn1117  1.924   .     S
O1113  Zn1118  1.935   .     S
O1114  Zn1119  1.932   .     S
S1115  O1240   1.503   1_455 S
C1121  O1181   1.269   .     A
C1121  C1131   1.436   .     S
C1121  O1179   1.269   .     A
C1122  C1142   1.488   .     S
C1122  C1123   1.395   .     A
C1122  C1146   1.424   .     A
C1123  H1161   1.080   .     S
C1123  C495    1.401   1_556 S
C1124  O1180   1.277   .     A
C1124  C1130   1.454   .     S
C1124  O1182   1.275   .     A
C1125  C1126   1.426   .     A
C1125  C1127   1.423   .     A
C1126  C1147   1.429   .     A
C1126  C1129   1.411   .     A
C1127  C1128   1.397   .     A
C1127  S1186   1.776   .     S
C1128  C1140   1.392   .     A
C1128  H1160   1.083   .     S
C1129  C1140   1.391   .     A
C1129  H1159   1.077   .     S
C1130  C1201   1.334   .     S
C1130  H1220   1.088   .     S
C1132  C1139   1.398   .     A
C1132  H1163   1.083   .     S
C1132  C1141   1.393   .     A
C1133  C1136   1.452   .     S
C1133  C714    1.332   1_565 S
C1133  H737    1.088   1_565 S
C1134  C1135   1.436   .     S
C1135  O1175   1.274   .     A
C1135  O1183   1.273   .     A
C1136  O1184   1.269   .     A
C1136  O1178   1.270   .     A
C1137  C1140   1.458   .     S
C1137  O1167   1.275   .     A
C1137  O1165   1.275   .     A
C1138  O1166   1.283   .     A
C1138  C1139   1.475   .     S
C1138  O1168   1.285   .     A
C1139  C1143   1.396   .     A
C1141  H1162   1.079   .     S
C1141  C1145   1.412   .     A
C1142  O1177   1.399   .     S
C1142  O1176   1.223   .     D
C1143  C1144   1.409   .     A
C1143  H1151   1.080   .     S
C1144  C1146   1.426   .     A
C1144  C1145   1.422   .     A
C1145  C519    1.412   1_556 S
C1146  C517    1.418   1_556 S
C1147  C1148   1.414   .     A
C1148  H1152   1.074   .     S
C1148  C1149   1.397   .     A
C1149  S1185   1.777   .     S
H1153  O1241   0.991   .     S
H1155  O1177   1.014   .     S
H1156  C1201   1.086   .     S
H1158  C714    1.086   1_565 S
O1164  Zn1190  1.933   .     S
O1164  Zn1188  1.939   .     S
O1164  Zn1187  1.951   .     S
O1164  Zn1189  1.930   .     S
O1165  Zn1188  1.920   .     S
O1166  Zn1190  1.928   .     S
O1167  Zn1189  1.924   .     S
O1168  Zn1187  1.918   .     S
O1169  S1185   1.503   .     D
O1170  S1255   1.503   .     S
O1171  S1185   1.683   .     S
O1172  S556    1.503   1_556 S
O1173  S556    1.504   1_556 S
O1174  S1186   1.683   .     S
O1174  H1224   0.991   .     S
O1175  Zn1187  1.929   .     S
O1178  Zn1190  1.930   .     S
O1179  Zn1188  1.927   .     S
O1180  Zn1189  1.935   .     S
O1181  Zn1190  1.930   .     S
O1182  Zn1187  1.924   .     S
O1183  Zn1188  1.935   .     S
O1184  Zn1189  1.932   .     S
C1191  O1251   1.269   .     A
C1191  C1201   1.436   .     S
C1191  O1249   1.269   .     A
C1192  C1212   1.488   .     S
C1192  C1193   1.395   .     A
C1192  C1216   1.424   .     A
C1193  H1231   1.080   .     S
C1193  C565    1.401   1_556 S
C1194  O1250   1.277   .     A
C1194  C1200   1.454   .     S
C1194  O1252   1.275   .     A
C1195  C1196   1.426   .     A
C1195  C1197   1.423   .     A
C1196  C1217   1.429   .     A
C1196  C1199   1.411   .     A
C1197  C1198   1.397   .     A
C1197  S1256   1.776   .     S
C1198  C1210   1.392   .     A
C1198  H1230   1.083   .     S
C1199  C1210   1.391   .     A
C1199  H1229   1.077   .     S
C1200  C1061   1.334   1_655 S
C1200  H1080   1.088   1_655 S
C1202  C1209   1.398   .     A
C1202  H1233   1.083   .     S
C1202  C1211   1.393   .     A
C1203  C1206   1.452   .     S
C1203  C784    1.332   1_565 S
C1203  H807    1.088   1_565 S
C1204  C1205   1.436   .     S
C1205  O1245   1.274   .     A
C1205  O1253   1.273   .     A
C1206  O1254   1.269   .     A
C1206  O1248   1.270   .     A
C1207  C1210   1.458   .     S
C1207  O1237   1.275   .     A
C1207  O1235   1.275   .     A
C1208  O1236   1.283   .     A
C1208  C1209   1.475   .     S
C1208  O1238   1.285   .     A
C1209  C1213   1.396   .     A
C1211  H1232   1.079   .     S
C1211  C1215   1.412   .     A
C1212  O1247   1.399   .     S
C1212  O1246   1.223   .     D
C1213  C1214   1.409   .     A
C1213  H1221   1.080   .     S
C1214  C1216   1.426   .     A
C1214  C1215   1.422   .     A
C1215  C589    1.412   1_556 S
C1216  C587    1.418   1_556 S
C1217  C1218   1.414   .     A
C1218  H1222   1.074   .     S
C1218  C1219   1.397   .     A
C1219  S1255   1.777   .     S
H1223  O1101   0.991   1_655 S
H1225  O1247   1.014   .     S
H1226  C1061   1.086   1_655 S
H1228  C784    1.086   1_565 S
O1234  Zn1260  1.933   .     S
O1234  Zn1258  1.939   .     S
O1234  Zn1257  1.951   .     S
O1234  Zn1259  1.930   .     S
O1235  Zn1258  1.920   .     S
O1236  Zn1260  1.928   .     S
O1237  Zn1259  1.924   .     S
O1238  Zn1257  1.918   .     S
O1239  S1255   1.503   .     D
O1240  S1115   1.503   1_655 S
O1241  S1255   1.683   .     S
O1242  S626    1.503   1_556 S
O1243  S626    1.504   1_556 S
O1244  S1256   1.683   .     S
O1244  H1084   0.991   1_655 S
O1245  Zn1257  1.929   .     S
O1248  Zn1260  1.930   .     S
O1249  Zn1258  1.927   .     S
O1250  Zn1259  1.935   .     S
O1251  Zn1260  1.930   .     S
O1252  Zn1257  1.924   .     S
O1253  Zn1258  1.935   .     S
O1254  Zn1259  1.932   .     S
