data_str_m1_o10_o18_pcu_sym.56
_audit_creation_date              2020-01-03
_audit_creation_method            'Materials Studio'
_symmetry_space_group_name_H-M    'P1'
_symmetry_Int_Tables_number       1
_symmetry_cell_setting            triclinic
loop_
_symmetry_equiv_pos_as_xyz
  x,y,z
_cell_length_a                    32.6306
_cell_length_b                    32.5107
_cell_length_c                    35.7857
_cell_angle_alpha                 98.0170
_cell_angle_beta                  72.9783
_cell_angle_gamma                 98.4621
loop_
_atom_site_label
_atom_site_type_symbol
_atom_site_fract_x
_atom_site_fract_y
_atom_site_fract_z
_atom_site_U_iso_or_equiv
_atom_site_adp_type
_atom_site_occupancy
C1     C     0.05269   0.16020   0.25850   0.00000  Uiso   1.00
C2     C     0.21054   0.14310   0.45892   0.00000  Uiso   1.00
C3     C     0.23157   0.12375   0.47893   0.00000  Uiso   1.00
C4     C     0.28101   0.17351   0.24128   0.00000  Uiso   1.00
C5     C     0.22094   0.12946   0.01982   0.00000  Uiso   1.00
C6     C     0.18961   0.15656   0.04109   0.00000  Uiso   1.00
C7     C     0.24124   0.10826   0.03981   0.00000  Uiso   1.00
C8     C     0.23032   0.11303   0.08062   0.00000  Uiso   1.00
C9     C     0.17679   0.15800   0.08237   0.00000  Uiso   1.00
C10    C     0.32688   0.17574   0.23780   0.00000  Uiso   1.00
C11    C     0.00735   0.15758   0.26259   0.00000  Uiso   1.00
C12    C     0.11355   0.23025   0.41908   0.00000  Uiso   1.00
C13    C     0.18088   0.32217   0.23809   0.00000  Uiso   1.00
C14    C     0.15168   0.01212   0.26219   0.00000  Uiso   1.00
C15    C     0.15598   0.05615   0.25891   0.00000  Uiso   1.00
C16    C     0.17686   0.27767   0.24135   0.00000  Uiso   1.00
C17    C     0.18835   0.14528   0.14414   0.00000  Uiso   1.00
C18    C     0.14557   0.18785   0.35612   0.00000  Uiso   1.00
C19    C     0.13877   0.19855   0.39864   0.00000  Uiso   1.00
C20    C     0.19779   0.13749   0.10175   0.00000  Uiso   1.00
C21    C     0.10929   0.24132   0.45893   0.00000  Uiso   1.00
C22    C     0.15926   0.17784   0.41859   0.00000  Uiso   1.00
C23    C     0.15686   0.18956   0.45851   0.00000  Uiso   1.00
C24    C     0.13071   0.22130   0.47874   0.00000  Uiso   1.00
C25    C     0.17929   0.17038   0.47889   0.00000  Uiso   1.00
C26    C     0.17137   0.18000   0.02033   0.00000  Uiso   1.00
C27    C     0.14702   0.21374   0.03893   0.00000  Uiso   1.00
C28    C     0.12690   0.23351   0.01832   0.00000  Uiso   1.00
F29    F     0.31337   0.13696   0.29246   0.00000  Uiso   1.00
F30    F     0.26187   0.09847   0.45804   0.00000  Uiso   1.00
F31    F     0.14558   0.23114   0.07592   0.00000  Uiso   1.00
H32    H     0.10852   0.25908   0.03350   0.00000  Uiso   1.00
H33    H     0.24700   0.09748   0.09573   0.00000  Uiso   1.00
H34    H     0.22094   0.13726   0.42738   0.00000  Uiso   1.00
H35    H     0.26582   0.08822   0.02396   0.00000  Uiso   1.00
H36    H     0.01651   0.19238   0.21465   0.00000  Uiso   1.00
H37    H     0.20784   0.00277   0.21591   0.00000  Uiso   1.00
H38    H     0.12437   0.33229   0.28448   0.00000  Uiso   1.00
H39    H     0.14997   0.17395   0.10038   0.00000  Uiso   1.00
H40    H     0.08957   0.26590   0.47420   0.00000  Uiso   1.00
H41    H     0.09735   0.24669   0.40426   0.00000  Uiso   1.00
H42    H     0.17638   0.15218   0.40234   0.00000  Uiso   1.00
O43    O     0.16667   0.16667   0.25000   0.00000  Uiso   1.00
O44    O     0.15693   0.12393   0.16625   0.00000  Uiso   1.00
O45    O     0.12687   0.20646   0.33749   0.00000  Uiso   1.00
O46    O     0.21088   0.17493   0.15877   0.00000  Uiso   1.00
O47    O     0.17198   0.16135   0.33749   0.00000  Uiso   1.00
O48    O     0.17849   0.08101   0.27821   0.00000  Uiso   1.00
O49    O     0.14581   0.26136   0.26767   0.00000  Uiso   1.00
O50    O     0.07452   0.13251   0.23607   0.00000  Uiso   1.00
O51    O     0.26785   0.19179   0.21806   0.00000  Uiso   1.00
O52    O     0.06990   0.18960   0.27820   0.00000  Uiso   1.00
O53    O     0.25440   0.15277   0.26768   0.00000  Uiso   1.00
O54    O     0.13800   0.06903   0.23607   0.00000  Uiso   1.00
O55    O     0.20437   0.25527   0.21806   0.00000  Uiso   1.00
Zn56   Zn    0.19244   0.14090   0.28278   0.00000  Uiso   1.00
Zn57   Zn    0.13459   0.12378   0.22258   0.00000  Uiso   1.00
Zn58   Zn    0.21166   0.19664   0.21188   0.00000  Uiso   1.00
Zn59   Zn    0.12798   0.20535   0.28277   0.00000  Uiso   1.00
C60    C     0.38602   0.16020   0.25850   0.00000  Uiso   1.00
C61    C     0.54388   0.14310   0.45892   0.00000  Uiso   1.00
C62    C     0.56490   0.12375   0.47893   0.00000  Uiso   1.00
C63    C     0.61435   0.17351   0.24128   0.00000  Uiso   1.00
C64    C     0.55428   0.12946   0.01982   0.00000  Uiso   1.00
C65    C     0.52295   0.15656   0.04109   0.00000  Uiso   1.00
C66    C     0.57457   0.10826   0.03981   0.00000  Uiso   1.00
C67    C     0.56365   0.11303   0.08062   0.00000  Uiso   1.00
C68    C     0.51012   0.15800   0.08237   0.00000  Uiso   1.00
C69    C     0.66021   0.17574   0.23780   0.00000  Uiso   1.00
C70    C     0.34068   0.15758   0.26259   0.00000  Uiso   1.00
C71    C     0.44689   0.23025   0.41908   0.00000  Uiso   1.00
C72    C     0.51421   0.32217   0.23809   0.00000  Uiso   1.00
C73    C     0.48502   0.01212   0.26219   0.00000  Uiso   1.00
C74    C     0.48931   0.05615   0.25891   0.00000  Uiso   1.00
C75    C     0.51020   0.27767   0.24135   0.00000  Uiso   1.00
C76    C     0.52169   0.14528   0.14414   0.00000  Uiso   1.00
C77    C     0.47891   0.18785   0.35612   0.00000  Uiso   1.00
C78    C     0.47210   0.19855   0.39864   0.00000  Uiso   1.00
C79    C     0.53112   0.13749   0.10175   0.00000  Uiso   1.00
C80    C     0.44262   0.24132   0.45893   0.00000  Uiso   1.00
C81    C     0.49260   0.17784   0.41859   0.00000  Uiso   1.00
C82    C     0.49020   0.18956   0.45851   0.00000  Uiso   1.00
C83    C     0.46404   0.22130   0.47874   0.00000  Uiso   1.00
C84    C     0.51262   0.17038   0.47889   0.00000  Uiso   1.00
C85    C     0.50470   0.18000   0.02033   0.00000  Uiso   1.00
C86    C     0.48035   0.21374   0.03893   0.00000  Uiso   1.00
C87    C     0.46024   0.23351   0.01832   0.00000  Uiso   1.00
F88    F     0.64671   0.13696   0.29246   0.00000  Uiso   1.00
F89    F     0.59521   0.09847   0.45804   0.00000  Uiso   1.00
F90    F     0.47892   0.23114   0.07592   0.00000  Uiso   1.00
H91    H     0.44185   0.25908   0.03350   0.00000  Uiso   1.00
H92    H     0.58034   0.09748   0.09573   0.00000  Uiso   1.00
H93    H     0.55427   0.13726   0.42738   0.00000  Uiso   1.00
H94    H     0.59915   0.08822   0.02396   0.00000  Uiso   1.00
H95    H     0.34985   0.19238   0.21465   0.00000  Uiso   1.00
H96    H     0.54117   0.00277   0.21591   0.00000  Uiso   1.00
H97    H     0.45771   0.33229   0.28448   0.00000  Uiso   1.00
H98    H     0.48330   0.17395   0.10038   0.00000  Uiso   1.00
H99    H     0.42290   0.26590   0.47420   0.00000  Uiso   1.00
H100   H     0.43069   0.24669   0.40426   0.00000  Uiso   1.00
H101   H     0.50971   0.15218   0.40234   0.00000  Uiso   1.00
O102   O     0.50000   0.16667   0.25000   0.00000  Uiso   1.00
O103   O     0.49027   0.12393   0.16625   0.00000  Uiso   1.00
O104   O     0.46020   0.20646   0.33749   0.00000  Uiso   1.00
O105   O     0.54421   0.17493   0.15877   0.00000  Uiso   1.00
O106   O     0.50532   0.16135   0.33749   0.00000  Uiso   1.00
O107   O     0.51182   0.08101   0.27821   0.00000  Uiso   1.00
O108   O     0.47914   0.26136   0.26767   0.00000  Uiso   1.00
O109   O     0.40785   0.13251   0.23607   0.00000  Uiso   1.00
O110   O     0.60119   0.19179   0.21806   0.00000  Uiso   1.00
O111   O     0.40323   0.18960   0.27820   0.00000  Uiso   1.00
O112   O     0.58773   0.15277   0.26768   0.00000  Uiso   1.00
O113   O     0.47133   0.06903   0.23607   0.00000  Uiso   1.00
O114   O     0.53771   0.25527   0.21806   0.00000  Uiso   1.00
Zn115  Zn    0.52577   0.14090   0.28278   0.00000  Uiso   1.00
Zn116  Zn    0.46792   0.12378   0.22258   0.00000  Uiso   1.00
Zn117  Zn    0.54500   0.19664   0.21188   0.00000  Uiso   1.00
Zn118  Zn    0.46131   0.20535   0.28277   0.00000  Uiso   1.00
C119   C     0.71936   0.16020   0.25850   0.00000  Uiso   1.00
C120   C     0.87721   0.14310   0.45892   0.00000  Uiso   1.00
C121   C     0.89824   0.12375   0.47893   0.00000  Uiso   1.00
C122   C     0.94768   0.17351   0.24128   0.00000  Uiso   1.00
C123   C     0.88761   0.12946   0.01982   0.00000  Uiso   1.00
C124   C     0.85628   0.15656   0.04109   0.00000  Uiso   1.00
C125   C     0.90790   0.10826   0.03981   0.00000  Uiso   1.00
C126   C     0.89699   0.11303   0.08062   0.00000  Uiso   1.00
C127   C     0.84346   0.15800   0.08237   0.00000  Uiso   1.00
C128   C     0.99354   0.17574   0.23780   0.00000  Uiso   1.00
C129   C     0.67402   0.15758   0.26259   0.00000  Uiso   1.00
C130   C     0.78022   0.23025   0.41908   0.00000  Uiso   1.00
C131   C     0.84754   0.32217   0.23809   0.00000  Uiso   1.00
C132   C     0.81835   0.01212   0.26219   0.00000  Uiso   1.00
C133   C     0.82265   0.05615   0.25891   0.00000  Uiso   1.00
C134   C     0.84353   0.27767   0.24135   0.00000  Uiso   1.00
C135   C     0.85502   0.14528   0.14414   0.00000  Uiso   1.00
C136   C     0.81224   0.18785   0.35612   0.00000  Uiso   1.00
C137   C     0.80544   0.19855   0.39864   0.00000  Uiso   1.00
C138   C     0.86445   0.13749   0.10175   0.00000  Uiso   1.00
C139   C     0.77596   0.24132   0.45893   0.00000  Uiso   1.00
C140   C     0.82593   0.17784   0.41859   0.00000  Uiso   1.00
C141   C     0.82353   0.18956   0.45851   0.00000  Uiso   1.00
C142   C     0.79737   0.22130   0.47874   0.00000  Uiso   1.00
C143   C     0.84595   0.17038   0.47889   0.00000  Uiso   1.00
C144   C     0.83804   0.18000   0.02033   0.00000  Uiso   1.00
C145   C     0.81369   0.21374   0.03893   0.00000  Uiso   1.00
C146   C     0.79357   0.23351   0.01832   0.00000  Uiso   1.00
F147   F     0.98004   0.13696   0.29246   0.00000  Uiso   1.00
F148   F     0.92854   0.09847   0.45804   0.00000  Uiso   1.00
F149   F     0.81225   0.23114   0.07592   0.00000  Uiso   1.00
H150   H     0.77518   0.25908   0.03350   0.00000  Uiso   1.00
H151   H     0.91367   0.09748   0.09573   0.00000  Uiso   1.00
H152   H     0.88761   0.13726   0.42738   0.00000  Uiso   1.00
H153   H     0.93248   0.08822   0.02396   0.00000  Uiso   1.00
H154   H     0.68318   0.19238   0.21465   0.00000  Uiso   1.00
H155   H     0.87450   0.00277   0.21591   0.00000  Uiso   1.00
H156   H     0.79104   0.33229   0.28448   0.00000  Uiso   1.00
H157   H     0.81664   0.17395   0.10038   0.00000  Uiso   1.00
H158   H     0.75623   0.26590   0.47420   0.00000  Uiso   1.00
H159   H     0.76402   0.24669   0.40426   0.00000  Uiso   1.00
H160   H     0.84305   0.15218   0.40234   0.00000  Uiso   1.00
O161   O     0.83333   0.16667   0.25000   0.00000  Uiso   1.00
O162   O     0.82360   0.12393   0.16625   0.00000  Uiso   1.00
O163   O     0.79354   0.20646   0.33749   0.00000  Uiso   1.00
O164   O     0.87755   0.17493   0.15877   0.00000  Uiso   1.00
O165   O     0.83865   0.16135   0.33749   0.00000  Uiso   1.00
O166   O     0.84515   0.08101   0.27821   0.00000  Uiso   1.00
O167   O     0.81247   0.26136   0.26767   0.00000  Uiso   1.00
O168   O     0.74119   0.13251   0.23607   0.00000  Uiso   1.00
O169   O     0.93452   0.19179   0.21806   0.00000  Uiso   1.00
O170   O     0.73656   0.18960   0.27820   0.00000  Uiso   1.00
O171   O     0.92106   0.15277   0.26768   0.00000  Uiso   1.00
O172   O     0.80467   0.06903   0.23607   0.00000  Uiso   1.00
O173   O     0.87104   0.25527   0.21806   0.00000  Uiso   1.00
Zn174  Zn    0.85910   0.14090   0.28278   0.00000  Uiso   1.00
Zn175  Zn    0.80125   0.12378   0.22258   0.00000  Uiso   1.00
Zn176  Zn    0.87833   0.19664   0.21188   0.00000  Uiso   1.00
Zn177  Zn    0.79465   0.20535   0.28277   0.00000  Uiso   1.00
C178   C     0.05269   0.49353   0.25850   0.00000  Uiso   1.00
C179   C     0.21054   0.47643   0.45892   0.00000  Uiso   1.00
C180   C     0.23157   0.45708   0.47893   0.00000  Uiso   1.00
C181   C     0.28101   0.50684   0.24128   0.00000  Uiso   1.00
C182   C     0.22094   0.46280   0.01982   0.00000  Uiso   1.00
C183   C     0.18961   0.48989   0.04109   0.00000  Uiso   1.00
C184   C     0.24124   0.44159   0.03981   0.00000  Uiso   1.00
C185   C     0.23032   0.44636   0.08062   0.00000  Uiso   1.00
C186   C     0.17679   0.49133   0.08237   0.00000  Uiso   1.00
C187   C     0.32688   0.50908   0.23780   0.00000  Uiso   1.00
C188   C     0.00735   0.49092   0.26259   0.00000  Uiso   1.00
C189   C     0.11355   0.56359   0.41908   0.00000  Uiso   1.00
C190   C     0.18088   0.65550   0.23809   0.00000  Uiso   1.00
C191   C     0.15168   0.34545   0.26219   0.00000  Uiso   1.00
C192   C     0.15598   0.38948   0.25891   0.00000  Uiso   1.00
C193   C     0.17686   0.61100   0.24135   0.00000  Uiso   1.00
C194   C     0.18835   0.47861   0.14414   0.00000  Uiso   1.00
C195   C     0.14557   0.52118   0.35612   0.00000  Uiso   1.00
C196   C     0.13877   0.53188   0.39864   0.00000  Uiso   1.00
C197   C     0.19779   0.47083   0.10175   0.00000  Uiso   1.00
C198   C     0.10929   0.57465   0.45893   0.00000  Uiso   1.00
C199   C     0.15926   0.51117   0.41859   0.00000  Uiso   1.00
C200   C     0.15686   0.52290   0.45851   0.00000  Uiso   1.00
C201   C     0.13071   0.55463   0.47874   0.00000  Uiso   1.00
C202   C     0.17929   0.50372   0.47889   0.00000  Uiso   1.00
C203   C     0.17137   0.51333   0.02033   0.00000  Uiso   1.00
C204   C     0.14702   0.54707   0.03893   0.00000  Uiso   1.00
C205   C     0.12690   0.56684   0.01832   0.00000  Uiso   1.00
F206   F     0.31337   0.47029   0.29246   0.00000  Uiso   1.00
F207   F     0.26187   0.43181   0.45804   0.00000  Uiso   1.00
F208   F     0.14558   0.56447   0.07592   0.00000  Uiso   1.00
H209   H     0.10852   0.59241   0.03350   0.00000  Uiso   1.00
H210   H     0.24700   0.43082   0.09573   0.00000  Uiso   1.00
H211   H     0.22094   0.47059   0.42738   0.00000  Uiso   1.00
H212   H     0.26582   0.42156   0.02396   0.00000  Uiso   1.00
H213   H     0.01651   0.52571   0.21465   0.00000  Uiso   1.00
H214   H     0.20784   0.33611   0.21591   0.00000  Uiso   1.00
H215   H     0.12437   0.66563   0.28448   0.00000  Uiso   1.00
H216   H     0.14997   0.50728   0.10038   0.00000  Uiso   1.00
H217   H     0.08957   0.59923   0.47420   0.00000  Uiso   1.00
H218   H     0.09735   0.58002   0.40426   0.00000  Uiso   1.00
H219   H     0.17638   0.48551   0.40234   0.00000  Uiso   1.00
O220   O     0.16667   0.50000   0.25000   0.00000  Uiso   1.00
O221   O     0.15693   0.45726   0.16625   0.00000  Uiso   1.00
O222   O     0.12687   0.53979   0.33749   0.00000  Uiso   1.00
O223   O     0.21088   0.50826   0.15877   0.00000  Uiso   1.00
O224   O     0.17198   0.49468   0.33749   0.00000  Uiso   1.00
O225   O     0.17849   0.41434   0.27821   0.00000  Uiso   1.00
O226   O     0.14581   0.59469   0.26767   0.00000  Uiso   1.00
O227   O     0.07452   0.46584   0.23607   0.00000  Uiso   1.00
O228   O     0.26785   0.52512   0.21806   0.00000  Uiso   1.00
O229   O     0.06990   0.52293   0.27820   0.00000  Uiso   1.00
O230   O     0.25440   0.48610   0.26768   0.00000  Uiso   1.00
O231   O     0.13800   0.40236   0.23607   0.00000  Uiso   1.00
O232   O     0.20437   0.58860   0.21806   0.00000  Uiso   1.00
Zn233  Zn    0.19244   0.47423   0.28278   0.00000  Uiso   1.00
Zn234  Zn    0.13459   0.45711   0.22258   0.00000  Uiso   1.00
Zn235  Zn    0.21166   0.52997   0.21188   0.00000  Uiso   1.00
Zn236  Zn    0.12798   0.53868   0.28277   0.00000  Uiso   1.00
C237   C     0.38602   0.49353   0.25850   0.00000  Uiso   1.00
C238   C     0.54388   0.47643   0.45892   0.00000  Uiso   1.00
C239   C     0.56490   0.45708   0.47893   0.00000  Uiso   1.00
C240   C     0.61435   0.50684   0.24128   0.00000  Uiso   1.00
C241   C     0.55428   0.46280   0.01982   0.00000  Uiso   1.00
C242   C     0.52295   0.48989   0.04109   0.00000  Uiso   1.00
C243   C     0.57457   0.44159   0.03981   0.00000  Uiso   1.00
C244   C     0.56365   0.44636   0.08062   0.00000  Uiso   1.00
C245   C     0.51012   0.49133   0.08237   0.00000  Uiso   1.00
C246   C     0.66021   0.50908   0.23780   0.00000  Uiso   1.00
C247   C     0.34068   0.49092   0.26259   0.00000  Uiso   1.00
C248   C     0.44689   0.56359   0.41908   0.00000  Uiso   1.00
C249   C     0.51421   0.65550   0.23809   0.00000  Uiso   1.00
C250   C     0.48502   0.34545   0.26219   0.00000  Uiso   1.00
C251   C     0.48931   0.38948   0.25891   0.00000  Uiso   1.00
C252   C     0.51020   0.61100   0.24135   0.00000  Uiso   1.00
C253   C     0.52169   0.47861   0.14414   0.00000  Uiso   1.00
C254   C     0.47891   0.52118   0.35612   0.00000  Uiso   1.00
C255   C     0.47210   0.53188   0.39864   0.00000  Uiso   1.00
C256   C     0.53112   0.47083   0.10175   0.00000  Uiso   1.00
C257   C     0.44262   0.57465   0.45893   0.00000  Uiso   1.00
C258   C     0.49260   0.51117   0.41859   0.00000  Uiso   1.00
C259   C     0.49020   0.52290   0.45851   0.00000  Uiso   1.00
C260   C     0.46404   0.55463   0.47874   0.00000  Uiso   1.00
C261   C     0.51262   0.50372   0.47889   0.00000  Uiso   1.00
C262   C     0.50470   0.51333   0.02033   0.00000  Uiso   1.00
C263   C     0.48035   0.54707   0.03893   0.00000  Uiso   1.00
C264   C     0.46024   0.56684   0.01832   0.00000  Uiso   1.00
F265   F     0.64671   0.47029   0.29246   0.00000  Uiso   1.00
F266   F     0.59521   0.43181   0.45804   0.00000  Uiso   1.00
F267   F     0.47892   0.56447   0.07592   0.00000  Uiso   1.00
H268   H     0.44185   0.59241   0.03350   0.00000  Uiso   1.00
H269   H     0.58034   0.43082   0.09573   0.00000  Uiso   1.00
H270   H     0.55427   0.47059   0.42738   0.00000  Uiso   1.00
H271   H     0.59915   0.42156   0.02396   0.00000  Uiso   1.00
H272   H     0.34985   0.52571   0.21465   0.00000  Uiso   1.00
H273   H     0.54117   0.33611   0.21591   0.00000  Uiso   1.00
H274   H     0.45771   0.66563   0.28448   0.00000  Uiso   1.00
H275   H     0.48330   0.50728   0.10038   0.00000  Uiso   1.00
H276   H     0.42290   0.59923   0.47420   0.00000  Uiso   1.00
H277   H     0.43069   0.58002   0.40426   0.00000  Uiso   1.00
H278   H     0.50971   0.48551   0.40234   0.00000  Uiso   1.00
O279   O     0.50000   0.50000   0.25000   0.00000  Uiso   1.00
O280   O     0.49027   0.45726   0.16625   0.00000  Uiso   1.00
O281   O     0.46020   0.53979   0.33749   0.00000  Uiso   1.00
O282   O     0.54421   0.50826   0.15877   0.00000  Uiso   1.00
O283   O     0.50532   0.49468   0.33749   0.00000  Uiso   1.00
O284   O     0.51182   0.41434   0.27821   0.00000  Uiso   1.00
O285   O     0.47914   0.59469   0.26767   0.00000  Uiso   1.00
O286   O     0.40785   0.46584   0.23607   0.00000  Uiso   1.00
O287   O     0.60119   0.52512   0.21806   0.00000  Uiso   1.00
O288   O     0.40323   0.52293   0.27820   0.00000  Uiso   1.00
O289   O     0.58773   0.48610   0.26768   0.00000  Uiso   1.00
O290   O     0.47133   0.40236   0.23607   0.00000  Uiso   1.00
O291   O     0.53771   0.58860   0.21806   0.00000  Uiso   1.00
Zn292  Zn    0.52577   0.47423   0.28278   0.00000  Uiso   1.00
Zn293  Zn    0.46792   0.45711   0.22258   0.00000  Uiso   1.00
Zn294  Zn    0.54500   0.52997   0.21188   0.00000  Uiso   1.00
Zn295  Zn    0.46131   0.53868   0.28277   0.00000  Uiso   1.00
C296   C     0.71936   0.49353   0.25850   0.00000  Uiso   1.00
C297   C     0.87721   0.47643   0.45892   0.00000  Uiso   1.00
C298   C     0.89824   0.45708   0.47893   0.00000  Uiso   1.00
C299   C     0.94768   0.50684   0.24128   0.00000  Uiso   1.00
C300   C     0.88761   0.46280   0.01982   0.00000  Uiso   1.00
C301   C     0.85628   0.48989   0.04109   0.00000  Uiso   1.00
C302   C     0.90790   0.44159   0.03981   0.00000  Uiso   1.00
C303   C     0.89699   0.44636   0.08062   0.00000  Uiso   1.00
C304   C     0.84346   0.49133   0.08237   0.00000  Uiso   1.00
C305   C     0.99354   0.50908   0.23780   0.00000  Uiso   1.00
C306   C     0.67402   0.49092   0.26259   0.00000  Uiso   1.00
C307   C     0.78022   0.56359   0.41908   0.00000  Uiso   1.00
C308   C     0.84754   0.65550   0.23809   0.00000  Uiso   1.00
C309   C     0.81835   0.34545   0.26219   0.00000  Uiso   1.00
C310   C     0.82265   0.38948   0.25891   0.00000  Uiso   1.00
C311   C     0.84353   0.61100   0.24135   0.00000  Uiso   1.00
C312   C     0.85502   0.47861   0.14414   0.00000  Uiso   1.00
C313   C     0.81224   0.52118   0.35612   0.00000  Uiso   1.00
C314   C     0.80544   0.53188   0.39864   0.00000  Uiso   1.00
C315   C     0.86445   0.47083   0.10175   0.00000  Uiso   1.00
C316   C     0.77596   0.57465   0.45893   0.00000  Uiso   1.00
C317   C     0.82593   0.51117   0.41859   0.00000  Uiso   1.00
C318   C     0.82353   0.52290   0.45851   0.00000  Uiso   1.00
C319   C     0.79737   0.55463   0.47874   0.00000  Uiso   1.00
C320   C     0.84595   0.50372   0.47889   0.00000  Uiso   1.00
C321   C     0.83804   0.51333   0.02033   0.00000  Uiso   1.00
C322   C     0.81369   0.54707   0.03893   0.00000  Uiso   1.00
C323   C     0.79357   0.56684   0.01832   0.00000  Uiso   1.00
F324   F     0.98004   0.47029   0.29246   0.00000  Uiso   1.00
F325   F     0.92854   0.43181   0.45804   0.00000  Uiso   1.00
F326   F     0.81225   0.56447   0.07592   0.00000  Uiso   1.00
H327   H     0.77518   0.59241   0.03350   0.00000  Uiso   1.00
H328   H     0.91367   0.43082   0.09573   0.00000  Uiso   1.00
H329   H     0.88761   0.47059   0.42738   0.00000  Uiso   1.00
H330   H     0.93248   0.42156   0.02396   0.00000  Uiso   1.00
H331   H     0.68318   0.52571   0.21465   0.00000  Uiso   1.00
H332   H     0.87450   0.33611   0.21591   0.00000  Uiso   1.00
H333   H     0.79104   0.66563   0.28448   0.00000  Uiso   1.00
H334   H     0.81664   0.50728   0.10038   0.00000  Uiso   1.00
H335   H     0.75623   0.59923   0.47420   0.00000  Uiso   1.00
H336   H     0.76402   0.58002   0.40426   0.00000  Uiso   1.00
H337   H     0.84305   0.48551   0.40234   0.00000  Uiso   1.00
O338   O     0.83333   0.50000   0.25000   0.00000  Uiso   1.00
O339   O     0.82360   0.45726   0.16625   0.00000  Uiso   1.00
O340   O     0.79354   0.53979   0.33749   0.00000  Uiso   1.00
O341   O     0.87755   0.50826   0.15877   0.00000  Uiso   1.00
O342   O     0.83865   0.49468   0.33749   0.00000  Uiso   1.00
O343   O     0.84515   0.41434   0.27821   0.00000  Uiso   1.00
O344   O     0.81247   0.59469   0.26767   0.00000  Uiso   1.00
O345   O     0.74119   0.46584   0.23607   0.00000  Uiso   1.00
O346   O     0.93452   0.52512   0.21806   0.00000  Uiso   1.00
O347   O     0.73656   0.52293   0.27820   0.00000  Uiso   1.00
O348   O     0.92106   0.48610   0.26768   0.00000  Uiso   1.00
O349   O     0.80467   0.40236   0.23607   0.00000  Uiso   1.00
O350   O     0.87104   0.58860   0.21806   0.00000  Uiso   1.00
Zn351  Zn    0.85910   0.47423   0.28278   0.00000  Uiso   1.00
Zn352  Zn    0.80125   0.45711   0.22258   0.00000  Uiso   1.00
Zn353  Zn    0.87833   0.52997   0.21188   0.00000  Uiso   1.00
Zn354  Zn    0.79465   0.53868   0.28277   0.00000  Uiso   1.00
C355   C     0.05269   0.82686   0.25850   0.00000  Uiso   1.00
C356   C     0.21054   0.80976   0.45892   0.00000  Uiso   1.00
C357   C     0.23157   0.79041   0.47893   0.00000  Uiso   1.00
C358   C     0.28101   0.84017   0.24128   0.00000  Uiso   1.00
C359   C     0.22094   0.79613   0.01982   0.00000  Uiso   1.00
C360   C     0.18961   0.82323   0.04109   0.00000  Uiso   1.00
C361   C     0.24124   0.77492   0.03981   0.00000  Uiso   1.00
C362   C     0.23032   0.77969   0.08062   0.00000  Uiso   1.00
C363   C     0.17679   0.82467   0.08237   0.00000  Uiso   1.00
C364   C     0.32688   0.84241   0.23780   0.00000  Uiso   1.00
C365   C     0.00735   0.82425   0.26259   0.00000  Uiso   1.00
C366   C     0.11355   0.89692   0.41908   0.00000  Uiso   1.00
C367   C     0.18088   0.98884   0.23809   0.00000  Uiso   1.00
C368   C     0.15168   0.67879   0.26219   0.00000  Uiso   1.00
C369   C     0.15598   0.72282   0.25891   0.00000  Uiso   1.00
C370   C     0.17686   0.94433   0.24135   0.00000  Uiso   1.00
C371   C     0.18835   0.81194   0.14414   0.00000  Uiso   1.00
C372   C     0.14557   0.85451   0.35612   0.00000  Uiso   1.00
C373   C     0.13877   0.86522   0.39864   0.00000  Uiso   1.00
C374   C     0.19779   0.80416   0.10175   0.00000  Uiso   1.00
C375   C     0.10929   0.90799   0.45893   0.00000  Uiso   1.00
C376   C     0.15926   0.84450   0.41859   0.00000  Uiso   1.00
C377   C     0.15686   0.85623   0.45851   0.00000  Uiso   1.00
C378   C     0.13071   0.88797   0.47874   0.00000  Uiso   1.00
C379   C     0.17929   0.83705   0.47889   0.00000  Uiso   1.00
C380   C     0.17137   0.84666   0.02033   0.00000  Uiso   1.00
C381   C     0.14702   0.88040   0.03893   0.00000  Uiso   1.00
C382   C     0.12690   0.90018   0.01832   0.00000  Uiso   1.00
F383   F     0.31337   0.80362   0.29246   0.00000  Uiso   1.00
F384   F     0.26187   0.76514   0.45804   0.00000  Uiso   1.00
F385   F     0.14558   0.89780   0.07592   0.00000  Uiso   1.00
H386   H     0.10852   0.92575   0.03350   0.00000  Uiso   1.00
H387   H     0.24700   0.76415   0.09573   0.00000  Uiso   1.00
H388   H     0.22094   0.80393   0.42738   0.00000  Uiso   1.00
H389   H     0.26582   0.75489   0.02396   0.00000  Uiso   1.00
H390   H     0.01651   0.85905   0.21465   0.00000  Uiso   1.00
H391   H     0.20784   0.66944   0.21591   0.00000  Uiso   1.00
H392   H     0.12437   0.99896   0.28448   0.00000  Uiso   1.00
H393   H     0.14997   0.84062   0.10038   0.00000  Uiso   1.00
H394   H     0.08957   0.93256   0.47420   0.00000  Uiso   1.00
H395   H     0.09735   0.91336   0.40426   0.00000  Uiso   1.00
H396   H     0.17638   0.81884   0.40234   0.00000  Uiso   1.00
O397   O     0.16667   0.83333   0.25000   0.00000  Uiso   1.00
O398   O     0.15693   0.79060   0.16625   0.00000  Uiso   1.00
O399   O     0.12687   0.87313   0.33749   0.00000  Uiso   1.00
O400   O     0.21088   0.84159   0.15877   0.00000  Uiso   1.00
O401   O     0.17198   0.82802   0.33749   0.00000  Uiso   1.00
O402   O     0.17849   0.74768   0.27821   0.00000  Uiso   1.00
O403   O     0.14581   0.92803   0.26767   0.00000  Uiso   1.00
O404   O     0.07452   0.79917   0.23607   0.00000  Uiso   1.00
O405   O     0.26785   0.85845   0.21806   0.00000  Uiso   1.00
O406   O     0.06990   0.85627   0.27820   0.00000  Uiso   1.00
O407   O     0.25440   0.81944   0.26768   0.00000  Uiso   1.00
O408   O     0.13800   0.73570   0.23607   0.00000  Uiso   1.00
O409   O     0.20437   0.92193   0.21806   0.00000  Uiso   1.00
Zn410  Zn    0.19244   0.80756   0.28278   0.00000  Uiso   1.00
Zn411  Zn    0.13459   0.79044   0.22258   0.00000  Uiso   1.00
Zn412  Zn    0.21166   0.86331   0.21188   0.00000  Uiso   1.00
Zn413  Zn    0.12798   0.87202   0.28277   0.00000  Uiso   1.00
C414   C     0.38602   0.82686   0.25850   0.00000  Uiso   1.00
C415   C     0.54388   0.80976   0.45892   0.00000  Uiso   1.00
C416   C     0.56490   0.79041   0.47893   0.00000  Uiso   1.00
C417   C     0.61435   0.84017   0.24128   0.00000  Uiso   1.00
C418   C     0.55428   0.79613   0.01982   0.00000  Uiso   1.00
C419   C     0.52295   0.82323   0.04109   0.00000  Uiso   1.00
C420   C     0.57457   0.77492   0.03981   0.00000  Uiso   1.00
C421   C     0.56365   0.77969   0.08062   0.00000  Uiso   1.00
C422   C     0.51012   0.82467   0.08237   0.00000  Uiso   1.00
C423   C     0.66021   0.84241   0.23780   0.00000  Uiso   1.00
C424   C     0.34068   0.82425   0.26259   0.00000  Uiso   1.00
C425   C     0.44689   0.89692   0.41908   0.00000  Uiso   1.00
C426   C     0.51421   0.98884   0.23809   0.00000  Uiso   1.00
C427   C     0.48502   0.67879   0.26219   0.00000  Uiso   1.00
C428   C     0.48931   0.72282   0.25891   0.00000  Uiso   1.00
C429   C     0.51020   0.94433   0.24135   0.00000  Uiso   1.00
C430   C     0.52169   0.81194   0.14414   0.00000  Uiso   1.00
C431   C     0.47891   0.85451   0.35612   0.00000  Uiso   1.00
C432   C     0.47210   0.86522   0.39864   0.00000  Uiso   1.00
C433   C     0.53112   0.80416   0.10175   0.00000  Uiso   1.00
C434   C     0.44262   0.90799   0.45893   0.00000  Uiso   1.00
C435   C     0.49260   0.84450   0.41859   0.00000  Uiso   1.00
C436   C     0.49020   0.85623   0.45851   0.00000  Uiso   1.00
C437   C     0.46404   0.88797   0.47874   0.00000  Uiso   1.00
C438   C     0.51262   0.83705   0.47889   0.00000  Uiso   1.00
C439   C     0.50470   0.84666   0.02033   0.00000  Uiso   1.00
C440   C     0.48035   0.88040   0.03893   0.00000  Uiso   1.00
C441   C     0.46024   0.90018   0.01832   0.00000  Uiso   1.00
F442   F     0.64671   0.80362   0.29246   0.00000  Uiso   1.00
F443   F     0.59521   0.76514   0.45804   0.00000  Uiso   1.00
F444   F     0.47892   0.89780   0.07592   0.00000  Uiso   1.00
H445   H     0.44185   0.92575   0.03350   0.00000  Uiso   1.00
H446   H     0.58034   0.76415   0.09573   0.00000  Uiso   1.00
H447   H     0.55427   0.80393   0.42738   0.00000  Uiso   1.00
H448   H     0.59915   0.75489   0.02396   0.00000  Uiso   1.00
H449   H     0.34985   0.85905   0.21465   0.00000  Uiso   1.00
H450   H     0.54117   0.66944   0.21591   0.00000  Uiso   1.00
H451   H     0.45771   0.99896   0.28448   0.00000  Uiso   1.00
H452   H     0.48330   0.84062   0.10038   0.00000  Uiso   1.00
H453   H     0.42290   0.93256   0.47420   0.00000  Uiso   1.00
H454   H     0.43069   0.91336   0.40426   0.00000  Uiso   1.00
H455   H     0.50971   0.81884   0.40234   0.00000  Uiso   1.00
O456   O     0.50000   0.83333   0.25000   0.00000  Uiso   1.00
O457   O     0.49027   0.79060   0.16625   0.00000  Uiso   1.00
O458   O     0.46020   0.87313   0.33749   0.00000  Uiso   1.00
O459   O     0.54421   0.84159   0.15877   0.00000  Uiso   1.00
O460   O     0.50532   0.82802   0.33749   0.00000  Uiso   1.00
O461   O     0.51182   0.74768   0.27821   0.00000  Uiso   1.00
O462   O     0.47914   0.92803   0.26767   0.00000  Uiso   1.00
O463   O     0.40785   0.79917   0.23607   0.00000  Uiso   1.00
O464   O     0.60119   0.85845   0.21806   0.00000  Uiso   1.00
O465   O     0.40323   0.85627   0.27820   0.00000  Uiso   1.00
O466   O     0.58773   0.81944   0.26768   0.00000  Uiso   1.00
O467   O     0.47133   0.73570   0.23607   0.00000  Uiso   1.00
O468   O     0.53771   0.92193   0.21806   0.00000  Uiso   1.00
Zn469  Zn    0.52577   0.80756   0.28278   0.00000  Uiso   1.00
Zn470  Zn    0.46792   0.79044   0.22258   0.00000  Uiso   1.00
Zn471  Zn    0.54500   0.86331   0.21188   0.00000  Uiso   1.00
Zn472  Zn    0.46131   0.87202   0.28277   0.00000  Uiso   1.00
C473   C     0.71936   0.82686   0.25850   0.00000  Uiso   1.00
C474   C     0.87721   0.80976   0.45892   0.00000  Uiso   1.00
C475   C     0.89824   0.79041   0.47893   0.00000  Uiso   1.00
C476   C     0.94768   0.84017   0.24128   0.00000  Uiso   1.00
C477   C     0.88761   0.79613   0.01982   0.00000  Uiso   1.00
C478   C     0.85628   0.82323   0.04109   0.00000  Uiso   1.00
C479   C     0.90790   0.77492   0.03981   0.00000  Uiso   1.00
C480   C     0.89699   0.77969   0.08062   0.00000  Uiso   1.00
C481   C     0.84346   0.82467   0.08237   0.00000  Uiso   1.00
C482   C     0.99354   0.84241   0.23780   0.00000  Uiso   1.00
C483   C     0.67402   0.82425   0.26259   0.00000  Uiso   1.00
C484   C     0.78022   0.89692   0.41908   0.00000  Uiso   1.00
C485   C     0.84754   0.98884   0.23809   0.00000  Uiso   1.00
C486   C     0.81835   0.67879   0.26219   0.00000  Uiso   1.00
C487   C     0.82265   0.72282   0.25891   0.00000  Uiso   1.00
C488   C     0.84353   0.94433   0.24135   0.00000  Uiso   1.00
C489   C     0.85502   0.81194   0.14414   0.00000  Uiso   1.00
C490   C     0.81224   0.85451   0.35612   0.00000  Uiso   1.00
C491   C     0.80544   0.86522   0.39864   0.00000  Uiso   1.00
C492   C     0.86445   0.80416   0.10175   0.00000  Uiso   1.00
C493   C     0.77596   0.90799   0.45893   0.00000  Uiso   1.00
C494   C     0.82593   0.84450   0.41859   0.00000  Uiso   1.00
C495   C     0.82353   0.85623   0.45851   0.00000  Uiso   1.00
C496   C     0.79737   0.88797   0.47874   0.00000  Uiso   1.00
C497   C     0.84595   0.83705   0.47889   0.00000  Uiso   1.00
C498   C     0.83804   0.84666   0.02033   0.00000  Uiso   1.00
C499   C     0.81369   0.88040   0.03893   0.00000  Uiso   1.00
C500   C     0.79357   0.90018   0.01832   0.00000  Uiso   1.00
F501   F     0.98004   0.80362   0.29246   0.00000  Uiso   1.00
F502   F     0.92854   0.76514   0.45804   0.00000  Uiso   1.00
F503   F     0.81225   0.89780   0.07592   0.00000  Uiso   1.00
H504   H     0.77518   0.92575   0.03350   0.00000  Uiso   1.00
H505   H     0.91367   0.76415   0.09573   0.00000  Uiso   1.00
H506   H     0.88761   0.80393   0.42738   0.00000  Uiso   1.00
H507   H     0.93248   0.75489   0.02396   0.00000  Uiso   1.00
H508   H     0.68318   0.85905   0.21465   0.00000  Uiso   1.00
H509   H     0.87450   0.66944   0.21591   0.00000  Uiso   1.00
H510   H     0.79104   0.99896   0.28448   0.00000  Uiso   1.00
H511   H     0.81664   0.84062   0.10038   0.00000  Uiso   1.00
H512   H     0.75623   0.93256   0.47420   0.00000  Uiso   1.00
H513   H     0.76402   0.91336   0.40426   0.00000  Uiso   1.00
H514   H     0.84305   0.81884   0.40234   0.00000  Uiso   1.00
O515   O     0.83333   0.83333   0.25000   0.00000  Uiso   1.00
O516   O     0.82360   0.79060   0.16625   0.00000  Uiso   1.00
O517   O     0.79354   0.87313   0.33749   0.00000  Uiso   1.00
O518   O     0.87755   0.84159   0.15877   0.00000  Uiso   1.00
O519   O     0.83865   0.82802   0.33749   0.00000  Uiso   1.00
O520   O     0.84515   0.74768   0.27821   0.00000  Uiso   1.00
O521   O     0.81247   0.92803   0.26767   0.00000  Uiso   1.00
O522   O     0.74119   0.79917   0.23607   0.00000  Uiso   1.00
O523   O     0.93452   0.85845   0.21806   0.00000  Uiso   1.00
O524   O     0.73656   0.85627   0.27820   0.00000  Uiso   1.00
O525   O     0.92106   0.81944   0.26768   0.00000  Uiso   1.00
O526   O     0.80467   0.73570   0.23607   0.00000  Uiso   1.00
O527   O     0.87104   0.92193   0.21806   0.00000  Uiso   1.00
Zn528  Zn    0.85910   0.80756   0.28278   0.00000  Uiso   1.00
Zn529  Zn    0.80125   0.79044   0.22258   0.00000  Uiso   1.00
Zn530  Zn    0.87833   0.86331   0.21188   0.00000  Uiso   1.00
Zn531  Zn    0.79465   0.87202   0.28277   0.00000  Uiso   1.00
C532   C     0.05269   0.16020   0.75850   0.00000  Uiso   1.00
C533   C     0.21054   0.14310   0.95892   0.00000  Uiso   1.00
C534   C     0.23157   0.12375   0.97893   0.00000  Uiso   1.00
C535   C     0.28101   0.17351   0.74128   0.00000  Uiso   1.00
C536   C     0.22094   0.12946   0.51982   0.00000  Uiso   1.00
C537   C     0.18961   0.15656   0.54109   0.00000  Uiso   1.00
C538   C     0.24124   0.10826   0.53981   0.00000  Uiso   1.00
C539   C     0.23032   0.11303   0.58062   0.00000  Uiso   1.00
C540   C     0.17679   0.15800   0.58237   0.00000  Uiso   1.00
C541   C     0.32688   0.17574   0.73780   0.00000  Uiso   1.00
C542   C     0.00735   0.15758   0.76259   0.00000  Uiso   1.00
C543   C     0.11355   0.23025   0.91908   0.00000  Uiso   1.00
C544   C     0.18088   0.32217   0.73809   0.00000  Uiso   1.00
C545   C     0.15168   0.01212   0.76219   0.00000  Uiso   1.00
C546   C     0.15598   0.05615   0.75891   0.00000  Uiso   1.00
C547   C     0.17686   0.27767   0.74135   0.00000  Uiso   1.00
C548   C     0.18835   0.14528   0.64414   0.00000  Uiso   1.00
C549   C     0.14557   0.18785   0.85612   0.00000  Uiso   1.00
C550   C     0.13877   0.19855   0.89864   0.00000  Uiso   1.00
C551   C     0.19779   0.13749   0.60175   0.00000  Uiso   1.00
C552   C     0.10929   0.24132   0.95893   0.00000  Uiso   1.00
C553   C     0.15926   0.17784   0.91859   0.00000  Uiso   1.00
C554   C     0.15686   0.18956   0.95851   0.00000  Uiso   1.00
C555   C     0.13071   0.22130   0.97874   0.00000  Uiso   1.00
C556   C     0.17929   0.17038   0.97889   0.00000  Uiso   1.00
C557   C     0.17137   0.18000   0.52033   0.00000  Uiso   1.00
C558   C     0.14702   0.21374   0.53893   0.00000  Uiso   1.00
C559   C     0.12690   0.23351   0.51832   0.00000  Uiso   1.00
F560   F     0.31337   0.13696   0.79246   0.00000  Uiso   1.00
F561   F     0.26187   0.09847   0.95804   0.00000  Uiso   1.00
F562   F     0.14558   0.23114   0.57592   0.00000  Uiso   1.00
H563   H     0.10852   0.25908   0.53350   0.00000  Uiso   1.00
H564   H     0.24700   0.09748   0.59573   0.00000  Uiso   1.00
H565   H     0.22094   0.13726   0.92738   0.00000  Uiso   1.00
H566   H     0.26582   0.08822   0.52396   0.00000  Uiso   1.00
H567   H     0.01651   0.19238   0.71465   0.00000  Uiso   1.00
H568   H     0.20784   0.00277   0.71591   0.00000  Uiso   1.00
H569   H     0.12437   0.33229   0.78448   0.00000  Uiso   1.00
H570   H     0.14997   0.17395   0.60038   0.00000  Uiso   1.00
H571   H     0.08957   0.26590   0.97420   0.00000  Uiso   1.00
H572   H     0.09735   0.24669   0.90426   0.00000  Uiso   1.00
H573   H     0.17638   0.15218   0.90234   0.00000  Uiso   1.00
O574   O     0.16667   0.16667   0.75000   0.00000  Uiso   1.00
O575   O     0.15693   0.12393   0.66625   0.00000  Uiso   1.00
O576   O     0.12687   0.20646   0.83749   0.00000  Uiso   1.00
O577   O     0.21088   0.17493   0.65877   0.00000  Uiso   1.00
O578   O     0.17198   0.16135   0.83749   0.00000  Uiso   1.00
O579   O     0.17849   0.08101   0.77821   0.00000  Uiso   1.00
O580   O     0.14581   0.26136   0.76767   0.00000  Uiso   1.00
O581   O     0.07452   0.13251   0.73607   0.00000  Uiso   1.00
O582   O     0.26785   0.19179   0.71806   0.00000  Uiso   1.00
O583   O     0.06990   0.18960   0.77820   0.00000  Uiso   1.00
O584   O     0.25440   0.15277   0.76768   0.00000  Uiso   1.00
O585   O     0.13800   0.06903   0.73607   0.00000  Uiso   1.00
O586   O     0.20437   0.25527   0.71806   0.00000  Uiso   1.00
Zn587  Zn    0.19244   0.14090   0.78278   0.00000  Uiso   1.00
Zn588  Zn    0.13459   0.12378   0.72258   0.00000  Uiso   1.00
Zn589  Zn    0.21166   0.19664   0.71188   0.00000  Uiso   1.00
Zn590  Zn    0.12798   0.20535   0.78277   0.00000  Uiso   1.00
C591   C     0.38602   0.16020   0.75850   0.00000  Uiso   1.00
C592   C     0.54388   0.14310   0.95892   0.00000  Uiso   1.00
C593   C     0.56490   0.12375   0.97893   0.00000  Uiso   1.00
C594   C     0.61435   0.17351   0.74128   0.00000  Uiso   1.00
C595   C     0.55428   0.12946   0.51982   0.00000  Uiso   1.00
C596   C     0.52295   0.15656   0.54109   0.00000  Uiso   1.00
C597   C     0.57457   0.10826   0.53981   0.00000  Uiso   1.00
C598   C     0.56365   0.11303   0.58062   0.00000  Uiso   1.00
C599   C     0.51012   0.15800   0.58237   0.00000  Uiso   1.00
C600   C     0.66021   0.17574   0.73780   0.00000  Uiso   1.00
C601   C     0.34068   0.15758   0.76259   0.00000  Uiso   1.00
C602   C     0.44689   0.23025   0.91908   0.00000  Uiso   1.00
C603   C     0.51421   0.32217   0.73809   0.00000  Uiso   1.00
C604   C     0.48502   0.01212   0.76219   0.00000  Uiso   1.00
C605   C     0.48931   0.05615   0.75891   0.00000  Uiso   1.00
C606   C     0.51020   0.27767   0.74135   0.00000  Uiso   1.00
C607   C     0.52169   0.14528   0.64414   0.00000  Uiso   1.00
C608   C     0.47891   0.18785   0.85612   0.00000  Uiso   1.00
C609   C     0.47210   0.19855   0.89864   0.00000  Uiso   1.00
C610   C     0.53112   0.13749   0.60175   0.00000  Uiso   1.00
C611   C     0.44262   0.24132   0.95893   0.00000  Uiso   1.00
C612   C     0.49260   0.17784   0.91859   0.00000  Uiso   1.00
C613   C     0.49020   0.18956   0.95851   0.00000  Uiso   1.00
C614   C     0.46404   0.22130   0.97874   0.00000  Uiso   1.00
C615   C     0.51262   0.17038   0.97889   0.00000  Uiso   1.00
C616   C     0.50470   0.18000   0.52033   0.00000  Uiso   1.00
C617   C     0.48035   0.21374   0.53893   0.00000  Uiso   1.00
C618   C     0.46024   0.23351   0.51832   0.00000  Uiso   1.00
F619   F     0.64671   0.13696   0.79246   0.00000  Uiso   1.00
F620   F     0.59521   0.09847   0.95804   0.00000  Uiso   1.00
F621   F     0.47892   0.23114   0.57592   0.00000  Uiso   1.00
H622   H     0.44185   0.25908   0.53350   0.00000  Uiso   1.00
H623   H     0.58034   0.09748   0.59573   0.00000  Uiso   1.00
H624   H     0.55427   0.13726   0.92738   0.00000  Uiso   1.00
H625   H     0.59915   0.08822   0.52396   0.00000  Uiso   1.00
H626   H     0.34985   0.19238   0.71465   0.00000  Uiso   1.00
H627   H     0.54117   0.00277   0.71591   0.00000  Uiso   1.00
H628   H     0.45771   0.33229   0.78448   0.00000  Uiso   1.00
H629   H     0.48330   0.17395   0.60038   0.00000  Uiso   1.00
H630   H     0.42290   0.26590   0.97420   0.00000  Uiso   1.00
H631   H     0.43069   0.24669   0.90426   0.00000  Uiso   1.00
H632   H     0.50971   0.15218   0.90234   0.00000  Uiso   1.00
O633   O     0.50000   0.16667   0.75000   0.00000  Uiso   1.00
O634   O     0.49027   0.12393   0.66625   0.00000  Uiso   1.00
O635   O     0.46020   0.20646   0.83749   0.00000  Uiso   1.00
O636   O     0.54421   0.17493   0.65877   0.00000  Uiso   1.00
O637   O     0.50532   0.16135   0.83749   0.00000  Uiso   1.00
O638   O     0.51182   0.08101   0.77821   0.00000  Uiso   1.00
O639   O     0.47914   0.26136   0.76767   0.00000  Uiso   1.00
O640   O     0.40785   0.13251   0.73607   0.00000  Uiso   1.00
O641   O     0.60119   0.19179   0.71806   0.00000  Uiso   1.00
O642   O     0.40323   0.18960   0.77820   0.00000  Uiso   1.00
O643   O     0.58773   0.15277   0.76768   0.00000  Uiso   1.00
O644   O     0.47133   0.06903   0.73607   0.00000  Uiso   1.00
O645   O     0.53771   0.25527   0.71806   0.00000  Uiso   1.00
Zn646  Zn    0.52577   0.14090   0.78278   0.00000  Uiso   1.00
Zn647  Zn    0.46792   0.12378   0.72258   0.00000  Uiso   1.00
Zn648  Zn    0.54500   0.19664   0.71188   0.00000  Uiso   1.00
Zn649  Zn    0.46131   0.20535   0.78277   0.00000  Uiso   1.00
C650   C     0.71936   0.16020   0.75850   0.00000  Uiso   1.00
C651   C     0.87721   0.14310   0.95892   0.00000  Uiso   1.00
C652   C     0.89824   0.12375   0.97893   0.00000  Uiso   1.00
C653   C     0.94768   0.17351   0.74128   0.00000  Uiso   1.00
C654   C     0.88761   0.12946   0.51982   0.00000  Uiso   1.00
C655   C     0.85628   0.15656   0.54109   0.00000  Uiso   1.00
C656   C     0.90790   0.10826   0.53981   0.00000  Uiso   1.00
C657   C     0.89699   0.11303   0.58062   0.00000  Uiso   1.00
C658   C     0.84346   0.15800   0.58237   0.00000  Uiso   1.00
C659   C     0.99354   0.17574   0.73780   0.00000  Uiso   1.00
C660   C     0.67402   0.15758   0.76259   0.00000  Uiso   1.00
C661   C     0.78022   0.23025   0.91908   0.00000  Uiso   1.00
C662   C     0.84754   0.32217   0.73809   0.00000  Uiso   1.00
C663   C     0.81835   0.01212   0.76219   0.00000  Uiso   1.00
C664   C     0.82265   0.05615   0.75891   0.00000  Uiso   1.00
C665   C     0.84353   0.27767   0.74135   0.00000  Uiso   1.00
C666   C     0.85502   0.14528   0.64414   0.00000  Uiso   1.00
C667   C     0.81224   0.18785   0.85612   0.00000  Uiso   1.00
C668   C     0.80544   0.19855   0.89864   0.00000  Uiso   1.00
C669   C     0.86445   0.13749   0.60175   0.00000  Uiso   1.00
C670   C     0.77596   0.24132   0.95893   0.00000  Uiso   1.00
C671   C     0.82593   0.17784   0.91859   0.00000  Uiso   1.00
C672   C     0.82353   0.18956   0.95851   0.00000  Uiso   1.00
C673   C     0.79737   0.22130   0.97874   0.00000  Uiso   1.00
C674   C     0.84595   0.17038   0.97889   0.00000  Uiso   1.00
C675   C     0.83804   0.18000   0.52033   0.00000  Uiso   1.00
C676   C     0.81369   0.21374   0.53893   0.00000  Uiso   1.00
C677   C     0.79357   0.23351   0.51832   0.00000  Uiso   1.00
F678   F     0.98004   0.13696   0.79246   0.00000  Uiso   1.00
F679   F     0.92854   0.09847   0.95804   0.00000  Uiso   1.00
F680   F     0.81225   0.23114   0.57592   0.00000  Uiso   1.00
H681   H     0.77518   0.25908   0.53350   0.00000  Uiso   1.00
H682   H     0.91367   0.09748   0.59573   0.00000  Uiso   1.00
H683   H     0.88761   0.13726   0.92738   0.00000  Uiso   1.00
H684   H     0.93248   0.08822   0.52396   0.00000  Uiso   1.00
H685   H     0.68318   0.19238   0.71465   0.00000  Uiso   1.00
H686   H     0.87450   0.00277   0.71591   0.00000  Uiso   1.00
H687   H     0.79104   0.33229   0.78448   0.00000  Uiso   1.00
H688   H     0.81664   0.17395   0.60038   0.00000  Uiso   1.00
H689   H     0.75623   0.26590   0.97420   0.00000  Uiso   1.00
H690   H     0.76402   0.24669   0.90426   0.00000  Uiso   1.00
H691   H     0.84305   0.15218   0.90234   0.00000  Uiso   1.00
O692   O     0.83333   0.16667   0.75000   0.00000  Uiso   1.00
O693   O     0.82360   0.12393   0.66625   0.00000  Uiso   1.00
O694   O     0.79354   0.20646   0.83749   0.00000  Uiso   1.00
O695   O     0.87755   0.17493   0.65877   0.00000  Uiso   1.00
O696   O     0.83865   0.16135   0.83749   0.00000  Uiso   1.00
O697   O     0.84515   0.08101   0.77821   0.00000  Uiso   1.00
O698   O     0.81247   0.26136   0.76767   0.00000  Uiso   1.00
O699   O     0.74119   0.13251   0.73607   0.00000  Uiso   1.00
O700   O     0.93452   0.19179   0.71806   0.00000  Uiso   1.00
O701   O     0.73656   0.18960   0.77820   0.00000  Uiso   1.00
O702   O     0.92106   0.15277   0.76768   0.00000  Uiso   1.00
O703   O     0.80467   0.06903   0.73607   0.00000  Uiso   1.00
O704   O     0.87104   0.25527   0.71806   0.00000  Uiso   1.00
Zn705  Zn    0.85910   0.14090   0.78278   0.00000  Uiso   1.00
Zn706  Zn    0.80125   0.12378   0.72258   0.00000  Uiso   1.00
Zn707  Zn    0.87833   0.19664   0.71188   0.00000  Uiso   1.00
Zn708  Zn    0.79465   0.20535   0.78277   0.00000  Uiso   1.00
C709   C     0.05269   0.49353   0.75850   0.00000  Uiso   1.00
C710   C     0.21054   0.47643   0.95892   0.00000  Uiso   1.00
C711   C     0.23157   0.45708   0.97893   0.00000  Uiso   1.00
C712   C     0.28101   0.50684   0.74128   0.00000  Uiso   1.00
C713   C     0.22094   0.46280   0.51982   0.00000  Uiso   1.00
C714   C     0.18961   0.48989   0.54109   0.00000  Uiso   1.00
C715   C     0.24124   0.44159   0.53981   0.00000  Uiso   1.00
C716   C     0.23032   0.44636   0.58062   0.00000  Uiso   1.00
C717   C     0.17679   0.49133   0.58237   0.00000  Uiso   1.00
C718   C     0.32688   0.50908   0.73780   0.00000  Uiso   1.00
C719   C     0.00735   0.49092   0.76259   0.00000  Uiso   1.00
C720   C     0.11355   0.56359   0.91908   0.00000  Uiso   1.00
C721   C     0.18088   0.65550   0.73809   0.00000  Uiso   1.00
C722   C     0.15168   0.34545   0.76219   0.00000  Uiso   1.00
C723   C     0.15598   0.38948   0.75891   0.00000  Uiso   1.00
C724   C     0.17686   0.61100   0.74135   0.00000  Uiso   1.00
C725   C     0.18835   0.47861   0.64414   0.00000  Uiso   1.00
C726   C     0.14557   0.52118   0.85612   0.00000  Uiso   1.00
C727   C     0.13877   0.53188   0.89864   0.00000  Uiso   1.00
C728   C     0.19779   0.47083   0.60175   0.00000  Uiso   1.00
C729   C     0.10929   0.57465   0.95893   0.00000  Uiso   1.00
C730   C     0.15926   0.51117   0.91859   0.00000  Uiso   1.00
C731   C     0.15686   0.52290   0.95851   0.00000  Uiso   1.00
C732   C     0.13071   0.55463   0.97874   0.00000  Uiso   1.00
C733   C     0.17929   0.50372   0.97889   0.00000  Uiso   1.00
C734   C     0.17137   0.51333   0.52033   0.00000  Uiso   1.00
C735   C     0.14702   0.54707   0.53893   0.00000  Uiso   1.00
C736   C     0.12690   0.56684   0.51832   0.00000  Uiso   1.00
F737   F     0.31337   0.47029   0.79246   0.00000  Uiso   1.00
F738   F     0.26187   0.43181   0.95804   0.00000  Uiso   1.00
F739   F     0.14558   0.56447   0.57592   0.00000  Uiso   1.00
H740   H     0.10852   0.59241   0.53350   0.00000  Uiso   1.00
H741   H     0.24700   0.43082   0.59573   0.00000  Uiso   1.00
H742   H     0.22094   0.47059   0.92738   0.00000  Uiso   1.00
H743   H     0.26582   0.42156   0.52396   0.00000  Uiso   1.00
H744   H     0.01651   0.52571   0.71465   0.00000  Uiso   1.00
H745   H     0.20784   0.33611   0.71591   0.00000  Uiso   1.00
H746   H     0.12437   0.66563   0.78448   0.00000  Uiso   1.00
H747   H     0.14997   0.50728   0.60038   0.00000  Uiso   1.00
H748   H     0.08957   0.59923   0.97420   0.00000  Uiso   1.00
H749   H     0.09735   0.58002   0.90426   0.00000  Uiso   1.00
H750   H     0.17638   0.48551   0.90234   0.00000  Uiso   1.00
O751   O     0.16667   0.50000   0.75000   0.00000  Uiso   1.00
O752   O     0.15693   0.45726   0.66625   0.00000  Uiso   1.00
O753   O     0.12687   0.53979   0.83749   0.00000  Uiso   1.00
O754   O     0.21088   0.50826   0.65877   0.00000  Uiso   1.00
O755   O     0.17198   0.49468   0.83749   0.00000  Uiso   1.00
O756   O     0.17849   0.41434   0.77821   0.00000  Uiso   1.00
O757   O     0.14581   0.59469   0.76767   0.00000  Uiso   1.00
O758   O     0.07452   0.46584   0.73607   0.00000  Uiso   1.00
O759   O     0.26785   0.52512   0.71806   0.00000  Uiso   1.00
O760   O     0.06990   0.52293   0.77820   0.00000  Uiso   1.00
O761   O     0.25440   0.48610   0.76768   0.00000  Uiso   1.00
O762   O     0.13800   0.40236   0.73607   0.00000  Uiso   1.00
O763   O     0.20437   0.58860   0.71806   0.00000  Uiso   1.00
Zn764  Zn    0.19244   0.47423   0.78278   0.00000  Uiso   1.00
Zn765  Zn    0.13459   0.45711   0.72258   0.00000  Uiso   1.00
Zn766  Zn    0.21166   0.52997   0.71188   0.00000  Uiso   1.00
Zn767  Zn    0.12798   0.53868   0.78277   0.00000  Uiso   1.00
C768   C     0.38602   0.49353   0.75850   0.00000  Uiso   1.00
C769   C     0.54388   0.47643   0.95892   0.00000  Uiso   1.00
C770   C     0.56490   0.45708   0.97893   0.00000  Uiso   1.00
C771   C     0.61435   0.50684   0.74128   0.00000  Uiso   1.00
C772   C     0.55428   0.46280   0.51982   0.00000  Uiso   1.00
C773   C     0.52295   0.48989   0.54109   0.00000  Uiso   1.00
C774   C     0.57457   0.44159   0.53981   0.00000  Uiso   1.00
C775   C     0.56365   0.44636   0.58062   0.00000  Uiso   1.00
C776   C     0.51012   0.49133   0.58237   0.00000  Uiso   1.00
C777   C     0.66021   0.50908   0.73780   0.00000  Uiso   1.00
C778   C     0.34068   0.49092   0.76259   0.00000  Uiso   1.00
C779   C     0.44689   0.56359   0.91908   0.00000  Uiso   1.00
C780   C     0.51421   0.65550   0.73809   0.00000  Uiso   1.00
C781   C     0.48502   0.34545   0.76219   0.00000  Uiso   1.00
C782   C     0.48931   0.38948   0.75891   0.00000  Uiso   1.00
C783   C     0.51020   0.61100   0.74135   0.00000  Uiso   1.00
C784   C     0.52169   0.47861   0.64414   0.00000  Uiso   1.00
C785   C     0.47891   0.52118   0.85612   0.00000  Uiso   1.00
C786   C     0.47210   0.53188   0.89864   0.00000  Uiso   1.00
C787   C     0.53112   0.47083   0.60175   0.00000  Uiso   1.00
C788   C     0.44262   0.57465   0.95893   0.00000  Uiso   1.00
C789   C     0.49260   0.51117   0.91859   0.00000  Uiso   1.00
C790   C     0.49020   0.52290   0.95851   0.00000  Uiso   1.00
C791   C     0.46404   0.55463   0.97874   0.00000  Uiso   1.00
C792   C     0.51262   0.50372   0.97889   0.00000  Uiso   1.00
C793   C     0.50470   0.51333   0.52033   0.00000  Uiso   1.00
C794   C     0.48035   0.54707   0.53893   0.00000  Uiso   1.00
C795   C     0.46024   0.56684   0.51832   0.00000  Uiso   1.00
F796   F     0.64671   0.47029   0.79246   0.00000  Uiso   1.00
F797   F     0.59521   0.43181   0.95804   0.00000  Uiso   1.00
F798   F     0.47892   0.56447   0.57592   0.00000  Uiso   1.00
H799   H     0.44185   0.59241   0.53350   0.00000  Uiso   1.00
H800   H     0.58034   0.43082   0.59573   0.00000  Uiso   1.00
H801   H     0.55427   0.47059   0.92738   0.00000  Uiso   1.00
H802   H     0.59915   0.42156   0.52396   0.00000  Uiso   1.00
H803   H     0.34985   0.52571   0.71465   0.00000  Uiso   1.00
H804   H     0.54117   0.33611   0.71591   0.00000  Uiso   1.00
H805   H     0.45771   0.66563   0.78448   0.00000  Uiso   1.00
H806   H     0.48330   0.50728   0.60038   0.00000  Uiso   1.00
H807   H     0.42290   0.59923   0.97420   0.00000  Uiso   1.00
H808   H     0.43069   0.58002   0.90426   0.00000  Uiso   1.00
H809   H     0.50971   0.48551   0.90234   0.00000  Uiso   1.00
O810   O     0.50000   0.50000   0.75000   0.00000  Uiso   1.00
O811   O     0.49027   0.45726   0.66625   0.00000  Uiso   1.00
O812   O     0.46020   0.53979   0.83749   0.00000  Uiso   1.00
O813   O     0.54421   0.50826   0.65877   0.00000  Uiso   1.00
O814   O     0.50532   0.49468   0.83749   0.00000  Uiso   1.00
O815   O     0.51182   0.41434   0.77821   0.00000  Uiso   1.00
O816   O     0.47914   0.59469   0.76767   0.00000  Uiso   1.00
O817   O     0.40785   0.46584   0.73607   0.00000  Uiso   1.00
O818   O     0.60119   0.52512   0.71806   0.00000  Uiso   1.00
O819   O     0.40323   0.52293   0.77820   0.00000  Uiso   1.00
O820   O     0.58773   0.48610   0.76768   0.00000  Uiso   1.00
O821   O     0.47133   0.40236   0.73607   0.00000  Uiso   1.00
O822   O     0.53771   0.58860   0.71806   0.00000  Uiso   1.00
Zn823  Zn    0.52577   0.47423   0.78278   0.00000  Uiso   1.00
Zn824  Zn    0.46792   0.45711   0.72258   0.00000  Uiso   1.00
Zn825  Zn    0.54500   0.52997   0.71188   0.00000  Uiso   1.00
Zn826  Zn    0.46131   0.53868   0.78277   0.00000  Uiso   1.00
C827   C     0.71936   0.49353   0.75850   0.00000  Uiso   1.00
C828   C     0.87721   0.47643   0.95892   0.00000  Uiso   1.00
C829   C     0.89824   0.45708   0.97893   0.00000  Uiso   1.00
C830   C     0.94768   0.50684   0.74128   0.00000  Uiso   1.00
C831   C     0.88761   0.46280   0.51982   0.00000  Uiso   1.00
C832   C     0.85628   0.48989   0.54109   0.00000  Uiso   1.00
C833   C     0.90790   0.44159   0.53981   0.00000  Uiso   1.00
C834   C     0.89699   0.44636   0.58062   0.00000  Uiso   1.00
C835   C     0.84346   0.49133   0.58237   0.00000  Uiso   1.00
C836   C     0.99354   0.50908   0.73780   0.00000  Uiso   1.00
C837   C     0.67402   0.49092   0.76259   0.00000  Uiso   1.00
C838   C     0.78022   0.56359   0.91908   0.00000  Uiso   1.00
C839   C     0.84754   0.65550   0.73809   0.00000  Uiso   1.00
C840   C     0.81835   0.34545   0.76219   0.00000  Uiso   1.00
C841   C     0.82265   0.38948   0.75891   0.00000  Uiso   1.00
C842   C     0.84353   0.61100   0.74135   0.00000  Uiso   1.00
C843   C     0.85502   0.47861   0.64414   0.00000  Uiso   1.00
C844   C     0.81224   0.52118   0.85612   0.00000  Uiso   1.00
C845   C     0.80544   0.53188   0.89864   0.00000  Uiso   1.00
C846   C     0.86445   0.47083   0.60175   0.00000  Uiso   1.00
C847   C     0.77596   0.57465   0.95893   0.00000  Uiso   1.00
C848   C     0.82593   0.51117   0.91859   0.00000  Uiso   1.00
C849   C     0.82353   0.52290   0.95851   0.00000  Uiso   1.00
C850   C     0.79737   0.55463   0.97874   0.00000  Uiso   1.00
C851   C     0.84595   0.50372   0.97889   0.00000  Uiso   1.00
C852   C     0.83804   0.51333   0.52033   0.00000  Uiso   1.00
C853   C     0.81369   0.54707   0.53893   0.00000  Uiso   1.00
C854   C     0.79357   0.56684   0.51832   0.00000  Uiso   1.00
F855   F     0.98004   0.47029   0.79246   0.00000  Uiso   1.00
F856   F     0.92854   0.43181   0.95804   0.00000  Uiso   1.00
F857   F     0.81225   0.56447   0.57592   0.00000  Uiso   1.00
H858   H     0.77518   0.59241   0.53350   0.00000  Uiso   1.00
H859   H     0.91367   0.43082   0.59573   0.00000  Uiso   1.00
H860   H     0.88761   0.47059   0.92738   0.00000  Uiso   1.00
H861   H     0.93248   0.42156   0.52396   0.00000  Uiso   1.00
H862   H     0.68318   0.52571   0.71465   0.00000  Uiso   1.00
H863   H     0.87450   0.33611   0.71591   0.00000  Uiso   1.00
H864   H     0.79104   0.66563   0.78448   0.00000  Uiso   1.00
H865   H     0.81664   0.50728   0.60038   0.00000  Uiso   1.00
H866   H     0.75623   0.59923   0.97420   0.00000  Uiso   1.00
H867   H     0.76402   0.58002   0.90426   0.00000  Uiso   1.00
H868   H     0.84305   0.48551   0.90234   0.00000  Uiso   1.00
O869   O     0.83333   0.50000   0.75000   0.00000  Uiso   1.00
O870   O     0.82360   0.45726   0.66625   0.00000  Uiso   1.00
O871   O     0.79354   0.53979   0.83749   0.00000  Uiso   1.00
O872   O     0.87755   0.50826   0.65877   0.00000  Uiso   1.00
O873   O     0.83865   0.49468   0.83749   0.00000  Uiso   1.00
O874   O     0.84515   0.41434   0.77821   0.00000  Uiso   1.00
O875   O     0.81247   0.59469   0.76767   0.00000  Uiso   1.00
O876   O     0.74119   0.46584   0.73607   0.00000  Uiso   1.00
O877   O     0.93452   0.52512   0.71806   0.00000  Uiso   1.00
O878   O     0.73656   0.52293   0.77820   0.00000  Uiso   1.00
O879   O     0.92106   0.48610   0.76768   0.00000  Uiso   1.00
O880   O     0.80467   0.40236   0.73607   0.00000  Uiso   1.00
O881   O     0.87104   0.58860   0.71806   0.00000  Uiso   1.00
Zn882  Zn    0.85910   0.47423   0.78278   0.00000  Uiso   1.00
Zn883  Zn    0.80125   0.45711   0.72258   0.00000  Uiso   1.00
Zn884  Zn    0.87833   0.52997   0.71188   0.00000  Uiso   1.00
Zn885  Zn    0.79465   0.53868   0.78277   0.00000  Uiso   1.00
C886   C     0.05269   0.82686   0.75850   0.00000  Uiso   1.00
C887   C     0.21054   0.80976   0.95892   0.00000  Uiso   1.00
C888   C     0.23157   0.79041   0.97893   0.00000  Uiso   1.00
C889   C     0.28101   0.84017   0.74128   0.00000  Uiso   1.00
C890   C     0.22094   0.79613   0.51982   0.00000  Uiso   1.00
C891   C     0.18961   0.82323   0.54109   0.00000  Uiso   1.00
C892   C     0.24124   0.77492   0.53981   0.00000  Uiso   1.00
C893   C     0.23032   0.77969   0.58062   0.00000  Uiso   1.00
C894   C     0.17679   0.82467   0.58237   0.00000  Uiso   1.00
C895   C     0.32688   0.84241   0.73780   0.00000  Uiso   1.00
C896   C     0.00735   0.82425   0.76259   0.00000  Uiso   1.00
C897   C     0.11355   0.89692   0.91908   0.00000  Uiso   1.00
C898   C     0.18088   0.98884   0.73809   0.00000  Uiso   1.00
C899   C     0.15168   0.67879   0.76219   0.00000  Uiso   1.00
C900   C     0.15598   0.72282   0.75891   0.00000  Uiso   1.00
C901   C     0.17686   0.94433   0.74135   0.00000  Uiso   1.00
C902   C     0.18835   0.81194   0.64414   0.00000  Uiso   1.00
C903   C     0.14557   0.85451   0.85612   0.00000  Uiso   1.00
C904   C     0.13877   0.86522   0.89864   0.00000  Uiso   1.00
C905   C     0.19779   0.80416   0.60175   0.00000  Uiso   1.00
C906   C     0.10929   0.90799   0.95893   0.00000  Uiso   1.00
C907   C     0.15926   0.84450   0.91859   0.00000  Uiso   1.00
C908   C     0.15686   0.85623   0.95851   0.00000  Uiso   1.00
C909   C     0.13071   0.88797   0.97874   0.00000  Uiso   1.00
C910   C     0.17929   0.83705   0.97889   0.00000  Uiso   1.00
C911   C     0.17137   0.84666   0.52033   0.00000  Uiso   1.00
C912   C     0.14702   0.88040   0.53893   0.00000  Uiso   1.00
C913   C     0.12690   0.90018   0.51832   0.00000  Uiso   1.00
F914   F     0.31337   0.80362   0.79246   0.00000  Uiso   1.00
F915   F     0.26187   0.76514   0.95804   0.00000  Uiso   1.00
F916   F     0.14558   0.89780   0.57592   0.00000  Uiso   1.00
H917   H     0.10852   0.92575   0.53350   0.00000  Uiso   1.00
H918   H     0.24700   0.76415   0.59573   0.00000  Uiso   1.00
H919   H     0.22094   0.80393   0.92738   0.00000  Uiso   1.00
H920   H     0.26582   0.75489   0.52396   0.00000  Uiso   1.00
H921   H     0.01651   0.85905   0.71465   0.00000  Uiso   1.00
H922   H     0.20784   0.66944   0.71591   0.00000  Uiso   1.00
H923   H     0.12437   0.99896   0.78448   0.00000  Uiso   1.00
H924   H     0.14997   0.84062   0.60038   0.00000  Uiso   1.00
H925   H     0.08957   0.93256   0.97420   0.00000  Uiso   1.00
H926   H     0.09735   0.91336   0.90426   0.00000  Uiso   1.00
H927   H     0.17638   0.81884   0.90234   0.00000  Uiso   1.00
O928   O     0.16667   0.83333   0.75000   0.00000  Uiso   1.00
O929   O     0.15693   0.79060   0.66625   0.00000  Uiso   1.00
O930   O     0.12687   0.87313   0.83749   0.00000  Uiso   1.00
O931   O     0.21088   0.84159   0.65877   0.00000  Uiso   1.00
O932   O     0.17198   0.82802   0.83749   0.00000  Uiso   1.00
O933   O     0.17849   0.74768   0.77821   0.00000  Uiso   1.00
O934   O     0.14581   0.92803   0.76767   0.00000  Uiso   1.00
O935   O     0.07452   0.79917   0.73607   0.00000  Uiso   1.00
O936   O     0.26785   0.85845   0.71806   0.00000  Uiso   1.00
O937   O     0.06990   0.85627   0.77820   0.00000  Uiso   1.00
O938   O     0.25440   0.81944   0.76768   0.00000  Uiso   1.00
O939   O     0.13800   0.73570   0.73607   0.00000  Uiso   1.00
O940   O     0.20437   0.92193   0.71806   0.00000  Uiso   1.00
Zn941  Zn    0.19244   0.80756   0.78278   0.00000  Uiso   1.00
Zn942  Zn    0.13459   0.79044   0.72258   0.00000  Uiso   1.00
Zn943  Zn    0.21166   0.86331   0.71188   0.00000  Uiso   1.00
Zn944  Zn    0.12798   0.87202   0.78277   0.00000  Uiso   1.00
C945   C     0.38602   0.82686   0.75850   0.00000  Uiso   1.00
C946   C     0.54388   0.80976   0.95892   0.00000  Uiso   1.00
C947   C     0.56490   0.79041   0.97893   0.00000  Uiso   1.00
C948   C     0.61435   0.84017   0.74128   0.00000  Uiso   1.00
C949   C     0.55428   0.79613   0.51982   0.00000  Uiso   1.00
C950   C     0.52295   0.82323   0.54109   0.00000  Uiso   1.00
C951   C     0.57457   0.77492   0.53981   0.00000  Uiso   1.00
C952   C     0.56365   0.77969   0.58062   0.00000  Uiso   1.00
C953   C     0.51012   0.82467   0.58237   0.00000  Uiso   1.00
C954   C     0.66021   0.84241   0.73780   0.00000  Uiso   1.00
C955   C     0.34068   0.82425   0.76259   0.00000  Uiso   1.00
C956   C     0.44689   0.89692   0.91908   0.00000  Uiso   1.00
C957   C     0.51421   0.98884   0.73809   0.00000  Uiso   1.00
C958   C     0.48502   0.67879   0.76219   0.00000  Uiso   1.00
C959   C     0.48931   0.72282   0.75891   0.00000  Uiso   1.00
C960   C     0.51020   0.94433   0.74135   0.00000  Uiso   1.00
C961   C     0.52169   0.81194   0.64414   0.00000  Uiso   1.00
C962   C     0.47891   0.85451   0.85612   0.00000  Uiso   1.00
C963   C     0.47210   0.86522   0.89864   0.00000  Uiso   1.00
C964   C     0.53112   0.80416   0.60175   0.00000  Uiso   1.00
C965   C     0.44262   0.90799   0.95893   0.00000  Uiso   1.00
C966   C     0.49260   0.84450   0.91859   0.00000  Uiso   1.00
C967   C     0.49020   0.85623   0.95851   0.00000  Uiso   1.00
C968   C     0.46404   0.88797   0.97874   0.00000  Uiso   1.00
C969   C     0.51262   0.83705   0.97889   0.00000  Uiso   1.00
C970   C     0.50470   0.84666   0.52033   0.00000  Uiso   1.00
C971   C     0.48035   0.88040   0.53893   0.00000  Uiso   1.00
C972   C     0.46024   0.90018   0.51832   0.00000  Uiso   1.00
F973   F     0.64671   0.80362   0.79246   0.00000  Uiso   1.00
F974   F     0.59521   0.76514   0.95804   0.00000  Uiso   1.00
F975   F     0.47892   0.89780   0.57592   0.00000  Uiso   1.00
H976   H     0.44185   0.92575   0.53350   0.00000  Uiso   1.00
H977   H     0.58034   0.76415   0.59573   0.00000  Uiso   1.00
H978   H     0.55427   0.80393   0.92738   0.00000  Uiso   1.00
H979   H     0.59915   0.75489   0.52396   0.00000  Uiso   1.00
H980   H     0.34985   0.85905   0.71465   0.00000  Uiso   1.00
H981   H     0.54117   0.66944   0.71591   0.00000  Uiso   1.00
H982   H     0.45771   0.99896   0.78448   0.00000  Uiso   1.00
H983   H     0.48330   0.84062   0.60038   0.00000  Uiso   1.00
H984   H     0.42290   0.93256   0.97420   0.00000  Uiso   1.00
H985   H     0.43069   0.91336   0.90426   0.00000  Uiso   1.00
H986   H     0.50971   0.81884   0.90234   0.00000  Uiso   1.00
O987   O     0.50000   0.83333   0.75000   0.00000  Uiso   1.00
O988   O     0.49027   0.79060   0.66625   0.00000  Uiso   1.00
O989   O     0.46020   0.87313   0.83749   0.00000  Uiso   1.00
O990   O     0.54421   0.84159   0.65877   0.00000  Uiso   1.00
O991   O     0.50532   0.82802   0.83749   0.00000  Uiso   1.00
O992   O     0.51182   0.74768   0.77821   0.00000  Uiso   1.00
O993   O     0.47914   0.92803   0.76767   0.00000  Uiso   1.00
O994   O     0.40785   0.79917   0.73607   0.00000  Uiso   1.00
O995   O     0.60119   0.85845   0.71806   0.00000  Uiso   1.00
O996   O     0.40323   0.85627   0.77820   0.00000  Uiso   1.00
O997   O     0.58773   0.81944   0.76768   0.00000  Uiso   1.00
O998   O     0.47133   0.73570   0.73607   0.00000  Uiso   1.00
O999   O     0.53771   0.92193   0.71806   0.00000  Uiso   1.00
Zn1000 Zn    0.52577   0.80756   0.78278   0.00000  Uiso   1.00
Zn1001 Zn    0.46792   0.79044   0.72258   0.00000  Uiso   1.00
Zn1002 Zn    0.54500   0.86331   0.71188   0.00000  Uiso   1.00
Zn1003 Zn    0.46131   0.87202   0.78277   0.00000  Uiso   1.00
C1004  C     0.71936   0.82686   0.75850   0.00000  Uiso   1.00
C1005  C     0.87721   0.80976   0.95892   0.00000  Uiso   1.00
C1006  C     0.89824   0.79041   0.97893   0.00000  Uiso   1.00
C1007  C     0.94768   0.84017   0.74128   0.00000  Uiso   1.00
C1008  C     0.88761   0.79613   0.51982   0.00000  Uiso   1.00
C1009  C     0.85628   0.82323   0.54109   0.00000  Uiso   1.00
C1010  C     0.90790   0.77492   0.53981   0.00000  Uiso   1.00
C1011  C     0.89699   0.77969   0.58062   0.00000  Uiso   1.00
C1012  C     0.84346   0.82467   0.58237   0.00000  Uiso   1.00
C1013  C     0.99354   0.84241   0.73780   0.00000  Uiso   1.00
C1014  C     0.67402   0.82425   0.76259   0.00000  Uiso   1.00
C1015  C     0.78022   0.89692   0.91908   0.00000  Uiso   1.00
C1016  C     0.84754   0.98884   0.73809   0.00000  Uiso   1.00
C1017  C     0.81835   0.67879   0.76219   0.00000  Uiso   1.00
C1018  C     0.82265   0.72282   0.75891   0.00000  Uiso   1.00
C1019  C     0.84353   0.94433   0.74135   0.00000  Uiso   1.00
C1020  C     0.85502   0.81194   0.64414   0.00000  Uiso   1.00
C1021  C     0.81224   0.85451   0.85612   0.00000  Uiso   1.00
C1022  C     0.80544   0.86522   0.89864   0.00000  Uiso   1.00
C1023  C     0.86445   0.80416   0.60175   0.00000  Uiso   1.00
C1024  C     0.77596   0.90799   0.95893   0.00000  Uiso   1.00
C1025  C     0.82593   0.84450   0.91859   0.00000  Uiso   1.00
C1026  C     0.82353   0.85623   0.95851   0.00000  Uiso   1.00
C1027  C     0.79737   0.88797   0.97874   0.00000  Uiso   1.00
C1028  C     0.84595   0.83705   0.97889   0.00000  Uiso   1.00
C1029  C     0.83804   0.84666   0.52033   0.00000  Uiso   1.00
C1030  C     0.81369   0.88040   0.53893   0.00000  Uiso   1.00
C1031  C     0.79357   0.90018   0.51832   0.00000  Uiso   1.00
F1032  F     0.98004   0.80362   0.79246   0.00000  Uiso   1.00
F1033  F     0.92854   0.76514   0.95804   0.00000  Uiso   1.00
F1034  F     0.81225   0.89780   0.57592   0.00000  Uiso   1.00
H1035  H     0.77518   0.92575   0.53350   0.00000  Uiso   1.00
H1036  H     0.91367   0.76415   0.59573   0.00000  Uiso   1.00
H1037  H     0.88761   0.80393   0.92738   0.00000  Uiso   1.00
H1038  H     0.93248   0.75489   0.52396   0.00000  Uiso   1.00
H1039  H     0.68318   0.85905   0.71465   0.00000  Uiso   1.00
H1040  H     0.87450   0.66944   0.71591   0.00000  Uiso   1.00
H1041  H     0.79104   0.99896   0.78448   0.00000  Uiso   1.00
H1042  H     0.81664   0.84062   0.60038   0.00000  Uiso   1.00
H1043  H     0.75623   0.93256   0.97420   0.00000  Uiso   1.00
H1044  H     0.76402   0.91336   0.90426   0.00000  Uiso   1.00
H1045  H     0.84305   0.81884   0.90234   0.00000  Uiso   1.00
O1046  O     0.83333   0.83333   0.75000   0.00000  Uiso   1.00
O1047  O     0.82360   0.79060   0.66625   0.00000  Uiso   1.00
O1048  O     0.79354   0.87313   0.83749   0.00000  Uiso   1.00
O1049  O     0.87755   0.84159   0.65877   0.00000  Uiso   1.00
O1050  O     0.83865   0.82802   0.83749   0.00000  Uiso   1.00
O1051  O     0.84515   0.74768   0.77821   0.00000  Uiso   1.00
O1052  O     0.81247   0.92803   0.76767   0.00000  Uiso   1.00
O1053  O     0.74119   0.79917   0.73607   0.00000  Uiso   1.00
O1054  O     0.93452   0.85845   0.71806   0.00000  Uiso   1.00
O1055  O     0.73656   0.85627   0.77820   0.00000  Uiso   1.00
O1056  O     0.92106   0.81944   0.76768   0.00000  Uiso   1.00
O1057  O     0.80467   0.73570   0.73607   0.00000  Uiso   1.00
O1058  O     0.87104   0.92193   0.71806   0.00000  Uiso   1.00
Zn1059 Zn    0.85910   0.80756   0.78278   0.00000  Uiso   1.00
Zn1060 Zn    0.80125   0.79044   0.72258   0.00000  Uiso   1.00
Zn1061 Zn    0.87833   0.86331   0.71188   0.00000  Uiso   1.00
Zn1062 Zn    0.79465   0.87202   0.78277   0.00000  Uiso   1.00
loop_
_geom_bond_atom_site_label_1
_geom_bond_atom_site_label_2
_geom_bond_distance
_geom_bond_site_symmetry_2
_ccdc_geom_bond_type
C1     O50     1.271   .     A
C1     O52     1.270   .     A
C1     C11     1.434   .     S
C2     H34     1.077   .     S
C2     C3      1.386   .     A
C2     C25     1.415   .     A
C3     F30     1.359   .     S
C3     C536    1.393   .     S
C4     O53     1.275   .     A
C4     O51     1.285   .     A
C4     C10     1.457   .     S
C5     C6      1.422   .     A
C5     C7      1.405   .     A
C5     C534    1.393   1_554 S
C6     C9      1.409   .     A
C6     C26     1.427   .     A
C7     C8      1.390   .     A
C7     H35     1.083   .     S
C8     C20     1.394   .     A
C8     H33     1.083   .     S
C9     C20     1.392   .     A
C9     H39     1.077   .     S
C10    C70     1.340   .     S
C10    H95     1.088   .     S
C11    C128    1.340   1_455 S
C11    F147    1.361   1_455 S
C12    H41     1.083   .     S
C12    C21     1.392   .     A
C12    C19     1.400   .     A
C13    C16     1.451   .     S
C13    C191    1.332   .     S
C13    H214    1.088   .     S
C14    C15     1.436   .     S
C14    C367    1.332   1_545 S
C14    H392    1.086   1_545 S
C15    O48     1.279   .     A
C15    O54     1.279   .     A
C16    O55     1.271   .     A
C16    O49     1.272   .     A
C17    O44     1.276   .     A
C17    O46     1.273   .     A
C17    C20     1.450   .     S
C18    O45     1.282   .     A
C18    O47     1.285   .     A
C18    C19     1.471   .     S
C19    C22     1.399   .     A
C21    H40     1.084   .     S
C21    C24     1.403   .     A
C22    H42     1.076   .     S
C22    C23     1.409   .     A
C23    C24     1.416   .     A
C23    C25     1.425   .     A
C24    C559    1.391   .     S
C25    C557    1.426   .     S
C26    C27     1.422   .     A
C26    C556    1.426   1_554 S
C27    F31     1.355   .     S
C27    C28     1.389   .     A
C28    H32     1.084   .     S
C28    C555    1.391   1_554 S
F29    C70     1.361   .     S
H36    C128    1.088   1_455 S
H37    C367    1.088   1_545 S
H38    C191    1.086   .     S
O43    Zn59    1.934   .     S
O43    Zn56    1.960   .     S
O43    Zn57    1.948   .     S
O43    Zn58    1.935   .     S
O44    Zn57    1.933   .     S
O45    Zn59    1.943   .     S
O46    Zn58    1.939   .     S
O47    Zn56    1.930   .     S
O48    Zn56    1.928   .     S
O49    Zn59    1.930   .     S
O50    Zn57    1.930   .     S
O51    Zn58    1.941   .     S
O52    Zn59    1.937   .     S
O53    Zn56    1.928   .     S
O54    Zn57    1.935   .     S
O55    Zn58    1.930   .     S
C60    O109    1.271   .     A
C60    O111    1.270   .     A
C60    C70     1.434   .     S
C61    H93     1.077   .     S
C61    C62     1.386   .     A
C61    C84     1.415   .     A
C62    F89     1.359   .     S
C62    C595    1.393   .     S
C63    O112    1.275   .     A
C63    O110    1.285   .     A
C63    C69     1.457   .     S
C64    C65     1.422   .     A
C64    C66     1.405   .     A
C64    C593    1.393   1_554 S
C65    C68     1.409   .     A
C65    C85     1.427   .     A
C66    C67     1.390   .     A
C66    H94     1.083   .     S
C67    C79     1.394   .     A
C67    H92     1.083   .     S
C68    C79     1.392   .     A
C68    H98     1.077   .     S
C69    C129    1.340   .     S
C69    H154    1.088   .     S
C71    H100    1.083   .     S
C71    C80     1.392   .     A
C71    C78     1.400   .     A
C72    C75     1.451   .     S
C72    C250    1.332   .     S
C72    H273    1.088   .     S
C73    C74     1.436   .     S
C73    C426    1.332   1_545 S
C73    H451    1.086   1_545 S
C74    O107    1.279   .     A
C74    O113    1.279   .     A
C75    O114    1.271   .     A
C75    O108    1.272   .     A
C76    O103    1.276   .     A
C76    O105    1.273   .     A
C76    C79     1.450   .     S
C77    O104    1.282   .     A
C77    O106    1.285   .     A
C77    C78     1.471   .     S
C78    C81     1.399   .     A
C80    H99     1.084   .     S
C80    C83     1.403   .     A
C81    H101    1.076   .     S
C81    C82     1.409   .     A
C82    C83     1.416   .     A
C82    C84     1.425   .     A
C83    C618    1.391   .     S
C84    C616    1.426   .     S
C85    C86     1.422   .     A
C85    C615    1.426   1_554 S
C86    F90     1.355   .     S
C86    C87     1.389   .     A
C87    H91     1.084   .     S
C87    C614    1.391   1_554 S
F88    C129    1.361   .     S
H96    C426    1.088   1_545 S
H97    C250    1.086   .     S
O102   Zn118   1.934   .     S
O102   Zn115   1.960   .     S
O102   Zn116   1.948   .     S
O102   Zn117   1.935   .     S
O103   Zn116   1.933   .     S
O104   Zn118   1.943   .     S
O105   Zn117   1.939   .     S
O106   Zn115   1.930   .     S
O107   Zn115   1.928   .     S
O108   Zn118   1.930   .     S
O109   Zn116   1.930   .     S
O110   Zn117   1.941   .     S
O111   Zn118   1.937   .     S
O112   Zn115   1.928   .     S
O113   Zn116   1.935   .     S
O114   Zn117   1.930   .     S
C119   O168    1.271   .     A
C119   O170    1.270   .     A
C119   C129    1.434   .     S
C120   H152    1.077   .     S
C120   C121    1.386   .     A
C120   C143    1.415   .     A
C121   F148    1.359   .     S
C121   C654    1.393   .     S
C122   O171    1.275   .     A
C122   O169    1.285   .     A
C122   C128    1.457   .     S
C123   C124    1.422   .     A
C123   C125    1.405   .     A
C123   C652    1.393   1_554 S
C124   C127    1.409   .     A
C124   C144    1.427   .     A
C125   C126    1.390   .     A
C125   H153    1.083   .     S
C126   C138    1.394   .     A
C126   H151    1.083   .     S
C127   C138    1.392   .     A
C127   H157    1.077   .     S
C128   C11     1.340   1_655 S
C128   H36     1.088   1_655 S
C130   H159    1.083   .     S
C130   C139    1.392   .     A
C130   C137    1.400   .     A
C131   C134    1.451   .     S
C131   C309    1.332   .     S
C131   H332    1.088   .     S
C132   C133    1.436   .     S
C132   C485    1.332   1_545 S
C132   H510    1.086   1_545 S
C133   O166    1.279   .     A
C133   O172    1.279   .     A
C134   O173    1.271   .     A
C134   O167    1.272   .     A
C135   O162    1.276   .     A
C135   O164    1.273   .     A
C135   C138    1.450   .     S
C136   O163    1.282   .     A
C136   O165    1.285   .     A
C136   C137    1.471   .     S
C137   C140    1.399   .     A
C139   H158    1.084   .     S
C139   C142    1.403   .     A
C140   H160    1.076   .     S
C140   C141    1.409   .     A
C141   C142    1.416   .     A
C141   C143    1.425   .     A
C142   C677    1.391   .     S
C143   C675    1.426   .     S
C144   C145    1.422   .     A
C144   C674    1.426   1_554 S
C145   F149    1.355   .     S
C145   C146    1.389   .     A
C146   H150    1.084   .     S
C146   C673    1.391   1_554 S
F147   C11     1.361   1_655 S
H155   C485    1.088   1_545 S
H156   C309    1.086   .     S
O161   Zn177   1.934   .     S
O161   Zn174   1.960   .     S
O161   Zn175   1.948   .     S
O161   Zn176   1.935   .     S
O162   Zn175   1.933   .     S
O163   Zn177   1.943   .     S
O164   Zn176   1.939   .     S
O165   Zn174   1.930   .     S
O166   Zn174   1.928   .     S
O167   Zn177   1.930   .     S
O168   Zn175   1.930   .     S
O169   Zn176   1.941   .     S
O170   Zn177   1.937   .     S
O171   Zn174   1.928   .     S
O172   Zn175   1.935   .     S
O173   Zn176   1.930   .     S
C178   O227    1.271   .     A
C178   O229    1.270   .     A
C178   C188    1.434   .     S
C179   H211    1.077   .     S
C179   C180    1.386   .     A
C179   C202    1.415   .     A
C180   F207    1.359   .     S
C180   C713    1.393   .     S
C181   O230    1.275   .     A
C181   O228    1.285   .     A
C181   C187    1.457   .     S
C182   C183    1.422   .     A
C182   C184    1.405   .     A
C182   C711    1.393   1_554 S
C183   C186    1.409   .     A
C183   C203    1.427   .     A
C184   C185    1.390   .     A
C184   H212    1.083   .     S
C185   C197    1.394   .     A
C185   H210    1.083   .     S
C186   C197    1.392   .     A
C186   H216    1.077   .     S
C187   C247    1.340   .     S
C187   H272    1.088   .     S
C188   C305    1.340   1_455 S
C188   F324    1.361   1_455 S
C189   H218    1.083   .     S
C189   C198    1.392   .     A
C189   C196    1.400   .     A
C190   C193    1.451   .     S
C190   C368    1.332   .     S
C190   H391    1.088   .     S
C191   C192    1.436   .     S
C192   O225    1.279   .     A
C192   O231    1.279   .     A
C193   O232    1.271   .     A
C193   O226    1.272   .     A
C194   O221    1.276   .     A
C194   O223    1.273   .     A
C194   C197    1.450   .     S
C195   O222    1.282   .     A
C195   O224    1.285   .     A
C195   C196    1.471   .     S
C196   C199    1.399   .     A
C198   H217    1.084   .     S
C198   C201    1.403   .     A
C199   H219    1.076   .     S
C199   C200    1.409   .     A
C200   C201    1.416   .     A
C200   C202    1.425   .     A
C201   C736    1.391   .     S
C202   C734    1.426   .     S
C203   C204    1.422   .     A
C203   C733    1.426   1_554 S
C204   F208    1.355   .     S
C204   C205    1.389   .     A
C205   H209    1.084   .     S
C205   C732    1.391   1_554 S
F206   C247    1.361   .     S
H213   C305    1.088   1_455 S
H215   C368    1.086   .     S
O220   Zn236   1.934   .     S
O220   Zn233   1.960   .     S
O220   Zn234   1.948   .     S
O220   Zn235   1.935   .     S
O221   Zn234   1.933   .     S
O222   Zn236   1.943   .     S
O223   Zn235   1.939   .     S
O224   Zn233   1.930   .     S
O225   Zn233   1.928   .     S
O226   Zn236   1.930   .     S
O227   Zn234   1.930   .     S
O228   Zn235   1.941   .     S
O229   Zn236   1.937   .     S
O230   Zn233   1.928   .     S
O231   Zn234   1.935   .     S
O232   Zn235   1.930   .     S
C237   O286    1.271   .     A
C237   O288    1.270   .     A
C237   C247    1.434   .     S
C238   H270    1.077   .     S
C238   C239    1.386   .     A
C238   C261    1.415   .     A
C239   F266    1.359   .     S
C239   C772    1.393   .     S
C240   O289    1.275   .     A
C240   O287    1.285   .     A
C240   C246    1.457   .     S
C241   C242    1.422   .     A
C241   C243    1.405   .     A
C241   C770    1.393   1_554 S
C242   C245    1.409   .     A
C242   C262    1.427   .     A
C243   C244    1.390   .     A
C243   H271    1.083   .     S
C244   C256    1.394   .     A
C244   H269    1.083   .     S
C245   C256    1.392   .     A
C245   H275    1.077   .     S
C246   C306    1.340   .     S
C246   H331    1.088   .     S
C248   H277    1.083   .     S
C248   C257    1.392   .     A
C248   C255    1.400   .     A
C249   C252    1.451   .     S
C249   C427    1.332   .     S
C249   H450    1.088   .     S
C250   C251    1.436   .     S
C251   O284    1.279   .     A
C251   O290    1.279   .     A
C252   O291    1.271   .     A
C252   O285    1.272   .     A
C253   O280    1.276   .     A
C253   O282    1.273   .     A
C253   C256    1.450   .     S
C254   O281    1.282   .     A
C254   O283    1.285   .     A
C254   C255    1.471   .     S
C255   C258    1.399   .     A
C257   H276    1.084   .     S
C257   C260    1.403   .     A
C258   H278    1.076   .     S
C258   C259    1.409   .     A
C259   C260    1.416   .     A
C259   C261    1.425   .     A
C260   C795    1.391   .     S
C261   C793    1.426   .     S
C262   C263    1.422   .     A
C262   C792    1.426   1_554 S
C263   F267    1.355   .     S
C263   C264    1.389   .     A
C264   H268    1.084   .     S
C264   C791    1.391   1_554 S
F265   C306    1.361   .     S
H274   C427    1.086   .     S
O279   Zn295   1.934   .     S
O279   Zn292   1.960   .     S
O279   Zn293   1.948   .     S
O279   Zn294   1.935   .     S
O280   Zn293   1.933   .     S
O281   Zn295   1.943   .     S
O282   Zn294   1.939   .     S
O283   Zn292   1.930   .     S
O284   Zn292   1.928   .     S
O285   Zn295   1.930   .     S
O286   Zn293   1.930   .     S
O287   Zn294   1.941   .     S
O288   Zn295   1.937   .     S
O289   Zn292   1.928   .     S
O290   Zn293   1.935   .     S
O291   Zn294   1.930   .     S
C296   O345    1.271   .     A
C296   O347    1.270   .     A
C296   C306    1.434   .     S
C297   H329    1.077   .     S
C297   C298    1.386   .     A
C297   C320    1.415   .     A
C298   F325    1.359   .     S
C298   C831    1.393   .     S
C299   O348    1.275   .     A
C299   O346    1.285   .     A
C299   C305    1.457   .     S
C300   C301    1.422   .     A
C300   C302    1.405   .     A
C300   C829    1.393   1_554 S
C301   C304    1.409   .     A
C301   C321    1.427   .     A
C302   C303    1.390   .     A
C302   H330    1.083   .     S
C303   C315    1.394   .     A
C303   H328    1.083   .     S
C304   C315    1.392   .     A
C304   H334    1.077   .     S
C305   C188    1.340   1_655 S
C305   H213    1.088   1_655 S
C307   H336    1.083   .     S
C307   C316    1.392   .     A
C307   C314    1.400   .     A
C308   C311    1.451   .     S
C308   C486    1.332   .     S
C308   H509    1.088   .     S
C309   C310    1.436   .     S
C310   O343    1.279   .     A
C310   O349    1.279   .     A
C311   O350    1.271   .     A
C311   O344    1.272   .     A
C312   O339    1.276   .     A
C312   O341    1.273   .     A
C312   C315    1.450   .     S
C313   O340    1.282   .     A
C313   O342    1.285   .     A
C313   C314    1.471   .     S
C314   C317    1.399   .     A
C316   H335    1.084   .     S
C316   C319    1.403   .     A
C317   H337    1.076   .     S
C317   C318    1.409   .     A
C318   C319    1.416   .     A
C318   C320    1.425   .     A
C319   C854    1.391   .     S
C320   C852    1.426   .     S
C321   C322    1.422   .     A
C321   C851    1.426   1_554 S
C322   F326    1.355   .     S
C322   C323    1.389   .     A
C323   H327    1.084   .     S
C323   C850    1.391   1_554 S
F324   C188    1.361   1_655 S
H333   C486    1.086   .     S
O338   Zn354   1.934   .     S
O338   Zn351   1.960   .     S
O338   Zn352   1.948   .     S
O338   Zn353   1.935   .     S
O339   Zn352   1.933   .     S
O340   Zn354   1.943   .     S
O341   Zn353   1.939   .     S
O342   Zn351   1.930   .     S
O343   Zn351   1.928   .     S
O344   Zn354   1.930   .     S
O345   Zn352   1.930   .     S
O346   Zn353   1.941   .     S
O347   Zn354   1.937   .     S
O348   Zn351   1.928   .     S
O349   Zn352   1.935   .     S
O350   Zn353   1.930   .     S
C355   O404    1.271   .     A
C355   O406    1.270   .     A
C355   C365    1.434   .     S
C356   H388    1.077   .     S
C356   C357    1.386   .     A
C356   C379    1.415   .     A
C357   F384    1.359   .     S
C357   C890    1.393   .     S
C358   O407    1.275   .     A
C358   O405    1.285   .     A
C358   C364    1.457   .     S
C359   C360    1.422   .     A
C359   C361    1.405   .     A
C359   C888    1.393   1_554 S
C360   C363    1.409   .     A
C360   C380    1.427   .     A
C361   C362    1.390   .     A
C361   H389    1.083   .     S
C362   C374    1.394   .     A
C362   H387    1.083   .     S
C363   C374    1.392   .     A
C363   H393    1.077   .     S
C364   C424    1.340   .     S
C364   H449    1.088   .     S
C365   C482    1.340   1_455 S
C365   F501    1.361   1_455 S
C366   H395    1.083   .     S
C366   C375    1.392   .     A
C366   C373    1.400   .     A
C367   C370    1.451   .     S
C367   C14     1.332   1_565 S
C367   H37     1.088   1_565 S
C368   C369    1.436   .     S
C369   O402    1.279   .     A
C369   O408    1.279   .     A
C370   O409    1.271   .     A
C370   O403    1.272   .     A
C371   O398    1.276   .     A
C371   O400    1.273   .     A
C371   C374    1.450   .     S
C372   O399    1.282   .     A
C372   O401    1.285   .     A
C372   C373    1.471   .     S
C373   C376    1.399   .     A
C375   H394    1.084   .     S
C375   C378    1.403   .     A
C376   H396    1.076   .     S
C376   C377    1.409   .     A
C377   C378    1.416   .     A
C377   C379    1.425   .     A
C378   C913    1.391   .     S
C379   C911    1.426   .     S
C380   C381    1.422   .     A
C380   C910    1.426   1_554 S
C381   F385    1.355   .     S
C381   C382    1.389   .     A
C382   H386    1.084   .     S
C382   C909    1.391   1_554 S
F383   C424    1.361   .     S
H390   C482    1.088   1_455 S
H392   C14     1.086   1_565 S
O397   Zn413   1.934   .     S
O397   Zn410   1.960   .     S
O397   Zn411   1.948   .     S
O397   Zn412   1.935   .     S
O398   Zn411   1.933   .     S
O399   Zn413   1.943   .     S
O400   Zn412   1.939   .     S
O401   Zn410   1.930   .     S
O402   Zn410   1.928   .     S
O403   Zn413   1.930   .     S
O404   Zn411   1.930   .     S
O405   Zn412   1.941   .     S
O406   Zn413   1.937   .     S
O407   Zn410   1.928   .     S
O408   Zn411   1.935   .     S
O409   Zn412   1.930   .     S
C414   O463    1.271   .     A
C414   O465    1.270   .     A
C414   C424    1.434   .     S
C415   H447    1.077   .     S
C415   C416    1.386   .     A
C415   C438    1.415   .     A
C416   F443    1.359   .     S
C416   C949    1.393   .     S
C417   O466    1.275   .     A
C417   O464    1.285   .     A
C417   C423    1.457   .     S
C418   C419    1.422   .     A
C418   C420    1.405   .     A
C418   C947    1.393   1_554 S
C419   C422    1.409   .     A
C419   C439    1.427   .     A
C420   C421    1.390   .     A
C420   H448    1.083   .     S
C421   C433    1.394   .     A
C421   H446    1.083   .     S
C422   C433    1.392   .     A
C422   H452    1.077   .     S
C423   C483    1.340   .     S
C423   H508    1.088   .     S
C425   H454    1.083   .     S
C425   C434    1.392   .     A
C425   C432    1.400   .     A
C426   C429    1.451   .     S
C426   C73     1.332   1_565 S
C426   H96     1.088   1_565 S
C427   C428    1.436   .     S
C428   O461    1.279   .     A
C428   O467    1.279   .     A
C429   O468    1.271   .     A
C429   O462    1.272   .     A
C430   O457    1.276   .     A
C430   O459    1.273   .     A
C430   C433    1.450   .     S
C431   O458    1.282   .     A
C431   O460    1.285   .     A
C431   C432    1.471   .     S
C432   C435    1.399   .     A
C434   H453    1.084   .     S
C434   C437    1.403   .     A
C435   H455    1.076   .     S
C435   C436    1.409   .     A
C436   C437    1.416   .     A
C436   C438    1.425   .     A
C437   C972    1.391   .     S
C438   C970    1.426   .     S
C439   C440    1.422   .     A
C439   C969    1.426   1_554 S
C440   F444    1.355   .     S
C440   C441    1.389   .     A
C441   H445    1.084   .     S
C441   C968    1.391   1_554 S
F442   C483    1.361   .     S
H451   C73     1.086   1_565 S
O456   Zn472   1.934   .     S
O456   Zn469   1.960   .     S
O456   Zn470   1.948   .     S
O456   Zn471   1.935   .     S
O457   Zn470   1.933   .     S
O458   Zn472   1.943   .     S
O459   Zn471   1.939   .     S
O460   Zn469   1.930   .     S
O461   Zn469   1.928   .     S
O462   Zn472   1.930   .     S
O463   Zn470   1.930   .     S
O464   Zn471   1.941   .     S
O465   Zn472   1.937   .     S
O466   Zn469   1.928   .     S
O467   Zn470   1.935   .     S
O468   Zn471   1.930   .     S
C473   O522    1.271   .     A
C473   O524    1.270   .     A
C473   C483    1.434   .     S
C474   H506    1.077   .     S
C474   C475    1.386   .     A
C474   C497    1.415   .     A
C475   F502    1.359   .     S
C475   C1008   1.393   .     S
C476   O525    1.275   .     A
C476   O523    1.285   .     A
C476   C482    1.457   .     S
C477   C478    1.422   .     A
C477   C479    1.405   .     A
C477   C1006   1.393   1_554 S
C478   C481    1.409   .     A
C478   C498    1.427   .     A
C479   C480    1.390   .     A
C479   H507    1.083   .     S
C480   C492    1.394   .     A
C480   H505    1.083   .     S
C481   C492    1.392   .     A
C481   H511    1.077   .     S
C482   C365    1.340   1_655 S
C482   H390    1.088   1_655 S
C484   H513    1.083   .     S
C484   C493    1.392   .     A
C484   C491    1.400   .     A
C485   C488    1.451   .     S
C485   C132    1.332   1_565 S
C485   H155    1.088   1_565 S
C486   C487    1.436   .     S
C487   O520    1.279   .     A
C487   O526    1.279   .     A
C488   O527    1.271   .     A
C488   O521    1.272   .     A
C489   O516    1.276   .     A
C489   O518    1.273   .     A
C489   C492    1.450   .     S
C490   O517    1.282   .     A
C490   O519    1.285   .     A
C490   C491    1.471   .     S
C491   C494    1.399   .     A
C493   H512    1.084   .     S
C493   C496    1.403   .     A
C494   H514    1.076   .     S
C494   C495    1.409   .     A
C495   C496    1.416   .     A
C495   C497    1.425   .     A
C496   C1031   1.391   .     S
C497   C1029   1.426   .     S
C498   C499    1.422   .     A
C498   C1028   1.426   1_554 S
C499   F503    1.355   .     S
C499   C500    1.389   .     A
C500   H504    1.084   .     S
C500   C1027   1.391   1_554 S
F501   C365    1.361   1_655 S
H510   C132    1.086   1_565 S
O515   Zn531   1.934   .     S
O515   Zn528   1.960   .     S
O515   Zn529   1.948   .     S
O515   Zn530   1.935   .     S
O516   Zn529   1.933   .     S
O517   Zn531   1.943   .     S
O518   Zn530   1.939   .     S
O519   Zn528   1.930   .     S
O520   Zn528   1.928   .     S
O521   Zn531   1.930   .     S
O522   Zn529   1.930   .     S
O523   Zn530   1.941   .     S
O524   Zn531   1.937   .     S
O525   Zn528   1.928   .     S
O526   Zn529   1.935   .     S
O527   Zn530   1.930   .     S
C532   O581    1.271   .     A
C532   O583    1.270   .     A
C532   C542    1.434   .     S
C533   H565    1.077   .     S
C533   C534    1.386   .     A
C533   C556    1.415   .     A
C534   F561    1.359   .     S
C534   C5      1.393   1_556 S
C535   O584    1.275   .     A
C535   O582    1.285   .     A
C535   C541    1.457   .     S
C536   C537    1.422   .     A
C536   C538    1.405   .     A
C537   C540    1.409   .     A
C537   C557    1.427   .     A
C538   C539    1.390   .     A
C538   H566    1.083   .     S
C539   C551    1.394   .     A
C539   H564    1.083   .     S
C540   C551    1.392   .     A
C540   H570    1.077   .     S
C541   C601    1.340   .     S
C541   H626    1.088   .     S
C542   C659    1.340   1_455 S
C542   F678    1.361   1_455 S
C543   H572    1.083   .     S
C543   C552    1.392   .     A
C543   C550    1.400   .     A
C544   C547    1.451   .     S
C544   C722    1.332   .     S
C544   H745    1.088   .     S
C545   C546    1.436   .     S
C545   C898    1.332   1_545 S
C545   H923    1.086   1_545 S
C546   O579    1.279   .     A
C546   O585    1.279   .     A
C547   O586    1.271   .     A
C547   O580    1.272   .     A
C548   O575    1.276   .     A
C548   O577    1.273   .     A
C548   C551    1.450   .     S
C549   O576    1.282   .     A
C549   O578    1.285   .     A
C549   C550    1.471   .     S
C550   C553    1.399   .     A
C552   H571    1.084   .     S
C552   C555    1.403   .     A
C553   H573    1.076   .     S
C553   C554    1.409   .     A
C554   C555    1.416   .     A
C554   C556    1.425   .     A
C555   C28     1.391   1_556 S
C556   C26     1.426   1_556 S
C557   C558    1.422   .     A
C558   F562    1.355   .     S
C558   C559    1.389   .     A
C559   H563    1.084   .     S
F560   C601    1.361   .     S
H567   C659    1.088   1_455 S
H568   C898    1.088   1_545 S
H569   C722    1.086   .     S
O574   Zn590   1.934   .     S
O574   Zn587   1.960   .     S
O574   Zn588   1.948   .     S
O574   Zn589   1.935   .     S
O575   Zn588   1.933   .     S
O576   Zn590   1.943   .     S
O577   Zn589   1.939   .     S
O578   Zn587   1.930   .     S
O579   Zn587   1.928   .     S
O580   Zn590   1.930   .     S
O581   Zn588   1.930   .     S
O582   Zn589   1.941   .     S
O583   Zn590   1.937   .     S
O584   Zn587   1.928   .     S
O585   Zn588   1.935   .     S
O586   Zn589   1.930   .     S
C591   O640    1.271   .     A
C591   O642    1.270   .     A
C591   C601    1.434   .     S
C592   H624    1.077   .     S
C592   C593    1.386   .     A
C592   C615    1.415   .     A
C593   F620    1.359   .     S
C593   C64     1.393   1_556 S
C594   O643    1.275   .     A
C594   O641    1.285   .     A
C594   C600    1.457   .     S
C595   C596    1.422   .     A
C595   C597    1.405   .     A
C596   C599    1.409   .     A
C596   C616    1.427   .     A
C597   C598    1.390   .     A
C597   H625    1.083   .     S
C598   C610    1.394   .     A
C598   H623    1.083   .     S
C599   C610    1.392   .     A
C599   H629    1.077   .     S
C600   C660    1.340   .     S
C600   H685    1.088   .     S
C602   H631    1.083   .     S
C602   C611    1.392   .     A
C602   C609    1.400   .     A
C603   C606    1.451   .     S
C603   C781    1.332   .     S
C603   H804    1.088   .     S
C604   C605    1.436   .     S
C604   C957    1.332   1_545 S
C604   H982    1.086   1_545 S
C605   O638    1.279   .     A
C605   O644    1.279   .     A
C606   O645    1.271   .     A
C606   O639    1.272   .     A
C607   O634    1.276   .     A
C607   O636    1.273   .     A
C607   C610    1.450   .     S
C608   O635    1.282   .     A
C608   O637    1.285   .     A
C608   C609    1.471   .     S
C609   C612    1.399   .     A
C611   H630    1.084   .     S
C611   C614    1.403   .     A
C612   H632    1.076   .     S
C612   C613    1.409   .     A
C613   C614    1.416   .     A
C613   C615    1.425   .     A
C614   C87     1.391   1_556 S
C615   C85     1.426   1_556 S
C616   C617    1.422   .     A
C617   F621    1.355   .     S
C617   C618    1.389   .     A
C618   H622    1.084   .     S
F619   C660    1.361   .     S
H627   C957    1.088   1_545 S
H628   C781    1.086   .     S
O633   Zn649   1.934   .     S
O633   Zn646   1.960   .     S
O633   Zn647   1.948   .     S
O633   Zn648   1.935   .     S
O634   Zn647   1.933   .     S
O635   Zn649   1.943   .     S
O636   Zn648   1.939   .     S
O637   Zn646   1.930   .     S
O638   Zn646   1.928   .     S
O639   Zn649   1.930   .     S
O640   Zn647   1.930   .     S
O641   Zn648   1.941   .     S
O642   Zn649   1.937   .     S
O643   Zn646   1.928   .     S
O644   Zn647   1.935   .     S
O645   Zn648   1.930   .     S
C650   O699    1.271   .     A
C650   O701    1.270   .     A
C650   C660    1.434   .     S
C651   H683    1.077   .     S
C651   C652    1.386   .     A
C651   C674    1.415   .     A
C652   F679    1.359   .     S
C652   C123    1.393   1_556 S
C653   O702    1.275   .     A
C653   O700    1.285   .     A
C653   C659    1.457   .     S
C654   C655    1.422   .     A
C654   C656    1.405   .     A
C655   C658    1.409   .     A
C655   C675    1.427   .     A
C656   C657    1.390   .     A
C656   H684    1.083   .     S
C657   C669    1.394   .     A
C657   H682    1.083   .     S
C658   C669    1.392   .     A
C658   H688    1.077   .     S
C659   C542    1.340   1_655 S
C659   H567    1.088   1_655 S
C661   H690    1.083   .     S
C661   C670    1.392   .     A
C661   C668    1.400   .     A
C662   C665    1.451   .     S
C662   C840    1.332   .     S
C662   H863    1.088   .     S
C663   C664    1.436   .     S
C663   C1016   1.332   1_545 S
C663   H1041   1.086   1_545 S
C664   O697    1.279   .     A
C664   O703    1.279   .     A
C665   O704    1.271   .     A
C665   O698    1.272   .     A
C666   O693    1.276   .     A
C666   O695    1.273   .     A
C666   C669    1.450   .     S
C667   O694    1.282   .     A
C667   O696    1.285   .     A
C667   C668    1.471   .     S
C668   C671    1.399   .     A
C670   H689    1.084   .     S
C670   C673    1.403   .     A
C671   H691    1.076   .     S
C671   C672    1.409   .     A
C672   C673    1.416   .     A
C672   C674    1.425   .     A
C673   C146    1.391   1_556 S
C674   C144    1.426   1_556 S
C675   C676    1.422   .     A
C676   F680    1.355   .     S
C676   C677    1.389   .     A
C677   H681    1.084   .     S
F678   C542    1.361   1_655 S
H686   C1016   1.088   1_545 S
H687   C840    1.086   .     S
O692   Zn708   1.934   .     S
O692   Zn705   1.960   .     S
O692   Zn706   1.948   .     S
O692   Zn707   1.935   .     S
O693   Zn706   1.933   .     S
O694   Zn708   1.943   .     S
O695   Zn707   1.939   .     S
O696   Zn705   1.930   .     S
O697   Zn705   1.928   .     S
O698   Zn708   1.930   .     S
O699   Zn706   1.930   .     S
O700   Zn707   1.941   .     S
O701   Zn708   1.937   .     S
O702   Zn705   1.928   .     S
O703   Zn706   1.935   .     S
O704   Zn707   1.930   .     S
C709   O758    1.271   .     A
C709   O760    1.270   .     A
C709   C719    1.434   .     S
C710   H742    1.077   .     S
C710   C711    1.386   .     A
C710   C733    1.415   .     A
C711   F738    1.359   .     S
C711   C182    1.393   1_556 S
C712   O761    1.275   .     A
C712   O759    1.285   .     A
C712   C718    1.457   .     S
C713   C714    1.422   .     A
C713   C715    1.405   .     A
C714   C717    1.409   .     A
C714   C734    1.427   .     A
C715   C716    1.390   .     A
C715   H743    1.083   .     S
C716   C728    1.394   .     A
C716   H741    1.083   .     S
C717   C728    1.392   .     A
C717   H747    1.077   .     S
C718   C778    1.340   .     S
C718   H803    1.088   .     S
C719   C836    1.340   1_455 S
C719   F855    1.361   1_455 S
C720   H749    1.083   .     S
C720   C729    1.392   .     A
C720   C727    1.400   .     A
C721   C724    1.451   .     S
C721   C899    1.332   .     S
C721   H922    1.088   .     S
C722   C723    1.436   .     S
C723   O756    1.279   .     A
C723   O762    1.279   .     A
C724   O763    1.271   .     A
C724   O757    1.272   .     A
C725   O752    1.276   .     A
C725   O754    1.273   .     A
C725   C728    1.450   .     S
C726   O753    1.282   .     A
C726   O755    1.285   .     A
C726   C727    1.471   .     S
C727   C730    1.399   .     A
C729   H748    1.084   .     S
C729   C732    1.403   .     A
C730   H750    1.076   .     S
C730   C731    1.409   .     A
C731   C732    1.416   .     A
C731   C733    1.425   .     A
C732   C205    1.391   1_556 S
C733   C203    1.426   1_556 S
C734   C735    1.422   .     A
C735   F739    1.355   .     S
C735   C736    1.389   .     A
C736   H740    1.084   .     S
F737   C778    1.361   .     S
H744   C836    1.088   1_455 S
H746   C899    1.086   .     S
O751   Zn767   1.934   .     S
O751   Zn764   1.960   .     S
O751   Zn765   1.948   .     S
O751   Zn766   1.935   .     S
O752   Zn765   1.933   .     S
O753   Zn767   1.943   .     S
O754   Zn766   1.939   .     S
O755   Zn764   1.930   .     S
O756   Zn764   1.928   .     S
O757   Zn767   1.930   .     S
O758   Zn765   1.930   .     S
O759   Zn766   1.941   .     S
O760   Zn767   1.937   .     S
O761   Zn764   1.928   .     S
O762   Zn765   1.935   .     S
O763   Zn766   1.930   .     S
C768   O817    1.271   .     A
C768   O819    1.270   .     A
C768   C778    1.434   .     S
C769   H801    1.077   .     S
C769   C770    1.386   .     A
C769   C792    1.415   .     A
C770   F797    1.359   .     S
C770   C241    1.393   1_556 S
C771   O820    1.275   .     A
C771   O818    1.285   .     A
C771   C777    1.457   .     S
C772   C773    1.422   .     A
C772   C774    1.405   .     A
C773   C776    1.409   .     A
C773   C793    1.427   .     A
C774   C775    1.390   .     A
C774   H802    1.083   .     S
C775   C787    1.394   .     A
C775   H800    1.083   .     S
C776   C787    1.392   .     A
C776   H806    1.077   .     S
C777   C837    1.340   .     S
C777   H862    1.088   .     S
C779   H808    1.083   .     S
C779   C788    1.392   .     A
C779   C786    1.400   .     A
C780   C783    1.451   .     S
C780   C958    1.332   .     S
C780   H981    1.088   .     S
C781   C782    1.436   .     S
C782   O815    1.279   .     A
C782   O821    1.279   .     A
C783   O822    1.271   .     A
C783   O816    1.272   .     A
C784   O811    1.276   .     A
C784   O813    1.273   .     A
C784   C787    1.450   .     S
C785   O812    1.282   .     A
C785   O814    1.285   .     A
C785   C786    1.471   .     S
C786   C789    1.399   .     A
C788   H807    1.084   .     S
C788   C791    1.403   .     A
C789   H809    1.076   .     S
C789   C790    1.409   .     A
C790   C791    1.416   .     A
C790   C792    1.425   .     A
C791   C264    1.391   1_556 S
C792   C262    1.426   1_556 S
C793   C794    1.422   .     A
C794   F798    1.355   .     S
C794   C795    1.389   .     A
C795   H799    1.084   .     S
F796   C837    1.361   .     S
H805   C958    1.086   .     S
O810   Zn826   1.934   .     S
O810   Zn823   1.960   .     S
O810   Zn824   1.948   .     S
O810   Zn825   1.935   .     S
O811   Zn824   1.933   .     S
O812   Zn826   1.943   .     S
O813   Zn825   1.939   .     S
O814   Zn823   1.930   .     S
O815   Zn823   1.928   .     S
O816   Zn826   1.930   .     S
O817   Zn824   1.930   .     S
O818   Zn825   1.941   .     S
O819   Zn826   1.937   .     S
O820   Zn823   1.928   .     S
O821   Zn824   1.935   .     S
O822   Zn825   1.930   .     S
C827   O876    1.271   .     A
C827   O878    1.270   .     A
C827   C837    1.434   .     S
C828   H860    1.077   .     S
C828   C829    1.386   .     A
C828   C851    1.415   .     A
C829   F856    1.359   .     S
C829   C300    1.393   1_556 S
C830   O879    1.275   .     A
C830   O877    1.285   .     A
C830   C836    1.457   .     S
C831   C832    1.422   .     A
C831   C833    1.405   .     A
C832   C835    1.409   .     A
C832   C852    1.427   .     A
C833   C834    1.390   .     A
C833   H861    1.083   .     S
C834   C846    1.394   .     A
C834   H859    1.083   .     S
C835   C846    1.392   .     A
C835   H865    1.077   .     S
C836   C719    1.340   1_655 S
C836   H744    1.088   1_655 S
C838   H867    1.083   .     S
C838   C847    1.392   .     A
C838   C845    1.400   .     A
C839   C842    1.451   .     S
C839   C1017   1.332   .     S
C839   H1040   1.088   .     S
C840   C841    1.436   .     S
C841   O874    1.279   .     A
C841   O880    1.279   .     A
C842   O881    1.271   .     A
C842   O875    1.272   .     A
C843   O870    1.276   .     A
C843   O872    1.273   .     A
C843   C846    1.450   .     S
C844   O871    1.282   .     A
C844   O873    1.285   .     A
C844   C845    1.471   .     S
C845   C848    1.399   .     A
C847   H866    1.084   .     S
C847   C850    1.403   .     A
C848   H868    1.076   .     S
C848   C849    1.409   .     A
C849   C850    1.416   .     A
C849   C851    1.425   .     A
C850   C323    1.391   1_556 S
C851   C321    1.426   1_556 S
C852   C853    1.422   .     A
C853   F857    1.355   .     S
C853   C854    1.389   .     A
C854   H858    1.084   .     S
F855   C719    1.361   1_655 S
H864   C1017   1.086   .     S
O869   Zn885   1.934   .     S
O869   Zn882   1.960   .     S
O869   Zn883   1.948   .     S
O869   Zn884   1.935   .     S
O870   Zn883   1.933   .     S
O871   Zn885   1.943   .     S
O872   Zn884   1.939   .     S
O873   Zn882   1.930   .     S
O874   Zn882   1.928   .     S
O875   Zn885   1.930   .     S
O876   Zn883   1.930   .     S
O877   Zn884   1.941   .     S
O878   Zn885   1.937   .     S
O879   Zn882   1.928   .     S
O880   Zn883   1.935   .     S
O881   Zn884   1.930   .     S
C886   O935    1.271   .     A
C886   O937    1.270   .     A
C886   C896    1.434   .     S
C887   H919    1.077   .     S
C887   C888    1.386   .     A
C887   C910    1.415   .     A
C888   F915    1.359   .     S
C888   C359    1.393   1_556 S
C889   O938    1.275   .     A
C889   O936    1.285   .     A
C889   C895    1.457   .     S
C890   C891    1.422   .     A
C890   C892    1.405   .     A
C891   C894    1.409   .     A
C891   C911    1.427   .     A
C892   C893    1.390   .     A
C892   H920    1.083   .     S
C893   C905    1.394   .     A
C893   H918    1.083   .     S
C894   C905    1.392   .     A
C894   H924    1.077   .     S
C895   C955    1.340   .     S
C895   H980    1.088   .     S
C896   C1013   1.340   1_455 S
C896   F1032   1.361   1_455 S
C897   H926    1.083   .     S
C897   C906    1.392   .     A
C897   C904    1.400   .     A
C898   C901    1.451   .     S
C898   C545    1.332   1_565 S
C898   H568    1.088   1_565 S
C899   C900    1.436   .     S
C900   O933    1.279   .     A
C900   O939    1.279   .     A
C901   O940    1.271   .     A
C901   O934    1.272   .     A
C902   O929    1.276   .     A
C902   O931    1.273   .     A
C902   C905    1.450   .     S
C903   O930    1.282   .     A
C903   O932    1.285   .     A
C903   C904    1.471   .     S
C904   C907    1.399   .     A
C906   H925    1.084   .     S
C906   C909    1.403   .     A
C907   H927    1.076   .     S
C907   C908    1.409   .     A
C908   C909    1.416   .     A
C908   C910    1.425   .     A
C909   C382    1.391   1_556 S
C910   C380    1.426   1_556 S
C911   C912    1.422   .     A
C912   F916    1.355   .     S
C912   C913    1.389   .     A
C913   H917    1.084   .     S
F914   C955    1.361   .     S
H921   C1013   1.088   1_455 S
H923   C545    1.086   1_565 S
O928   Zn944   1.934   .     S
O928   Zn941   1.960   .     S
O928   Zn942   1.948   .     S
O928   Zn943   1.935   .     S
O929   Zn942   1.933   .     S
O930   Zn944   1.943   .     S
O931   Zn943   1.939   .     S
O932   Zn941   1.930   .     S
O933   Zn941   1.928   .     S
O934   Zn944   1.930   .     S
O935   Zn942   1.930   .     S
O936   Zn943   1.941   .     S
O937   Zn944   1.937   .     S
O938   Zn941   1.928   .     S
O939   Zn942   1.935   .     S
O940   Zn943   1.930   .     S
C945   O994    1.271   .     A
C945   O996    1.270   .     A
C945   C955    1.434   .     S
C946   H978    1.077   .     S
C946   C947    1.386   .     A
C946   C969    1.415   .     A
C947   F974    1.359   .     S
C947   C418    1.393   1_556 S
C948   O997    1.275   .     A
C948   O995    1.285   .     A
C948   C954    1.457   .     S
C949   C950    1.422   .     A
C949   C951    1.405   .     A
C950   C953    1.409   .     A
C950   C970    1.427   .     A
C951   C952    1.390   .     A
C951   H979    1.083   .     S
C952   C964    1.394   .     A
C952   H977    1.083   .     S
C953   C964    1.392   .     A
C953   H983    1.077   .     S
C954   C1014   1.340   .     S
C954   H1039   1.088   .     S
C956   H985    1.083   .     S
C956   C965    1.392   .     A
C956   C963    1.400   .     A
C957   C960    1.451   .     S
C957   C604    1.332   1_565 S
C957   H627    1.088   1_565 S
C958   C959    1.436   .     S
C959   O992    1.279   .     A
C959   O998    1.279   .     A
C960   O999    1.271   .     A
C960   O993    1.272   .     A
C961   O988    1.276   .     A
C961   O990    1.273   .     A
C961   C964    1.450   .     S
C962   O989    1.282   .     A
C962   O991    1.285   .     A
C962   C963    1.471   .     S
C963   C966    1.399   .     A
C965   H984    1.084   .     S
C965   C968    1.403   .     A
C966   H986    1.076   .     S
C966   C967    1.409   .     A
C967   C968    1.416   .     A
C967   C969    1.425   .     A
C968   C441    1.391   1_556 S
C969   C439    1.426   1_556 S
C970   C971    1.422   .     A
C971   F975    1.355   .     S
C971   C972    1.389   .     A
C972   H976    1.084   .     S
F973   C1014   1.361   .     S
H982   C604    1.086   1_565 S
O987   Zn1003  1.934   .     S
O987   Zn1000  1.960   .     S
O987   Zn1001  1.948   .     S
O987   Zn1002  1.935   .     S
O988   Zn1001  1.933   .     S
O989   Zn1003  1.943   .     S
O990   Zn1002  1.939   .     S
O991   Zn1000  1.930   .     S
O992   Zn1000  1.928   .     S
O993   Zn1003  1.930   .     S
O994   Zn1001  1.930   .     S
O995   Zn1002  1.941   .     S
O996   Zn1003  1.937   .     S
O997   Zn1000  1.928   .     S
O998   Zn1001  1.935   .     S
O999   Zn1002  1.930   .     S
C1004  O1053   1.271   .     A
C1004  O1055   1.270   .     A
C1004  C1014   1.434   .     S
C1005  H1037   1.077   .     S
C1005  C1006   1.386   .     A
C1005  C1028   1.415   .     A
C1006  F1033   1.359   .     S
C1006  C477    1.393   1_556 S
C1007  O1056   1.275   .     A
C1007  O1054   1.285   .     A
C1007  C1013   1.457   .     S
C1008  C1009   1.422   .     A
C1008  C1010   1.405   .     A
C1009  C1012   1.409   .     A
C1009  C1029   1.427   .     A
C1010  C1011   1.390   .     A
C1010  H1038   1.083   .     S
C1011  C1023   1.394   .     A
C1011  H1036   1.083   .     S
C1012  C1023   1.392   .     A
C1012  H1042   1.077   .     S
C1013  C896    1.340   1_655 S
C1013  H921    1.088   1_655 S
C1015  H1044   1.083   .     S
C1015  C1024   1.392   .     A
C1015  C1022   1.400   .     A
C1016  C1019   1.451   .     S
C1016  C663    1.332   1_565 S
C1016  H686    1.088   1_565 S
C1017  C1018   1.436   .     S
C1018  O1051   1.279   .     A
C1018  O1057   1.279   .     A
C1019  O1058   1.271   .     A
C1019  O1052   1.272   .     A
C1020  O1047   1.276   .     A
C1020  O1049   1.273   .     A
C1020  C1023   1.450   .     S
C1021  O1048   1.282   .     A
C1021  O1050   1.285   .     A
C1021  C1022   1.471   .     S
C1022  C1025   1.399   .     A
C1024  H1043   1.084   .     S
C1024  C1027   1.403   .     A
C1025  H1045   1.076   .     S
C1025  C1026   1.409   .     A
C1026  C1027   1.416   .     A
C1026  C1028   1.425   .     A
C1027  C500    1.391   1_556 S
C1028  C498    1.426   1_556 S
C1029  C1030   1.422   .     A
C1030  F1034   1.355   .     S
C1030  C1031   1.389   .     A
C1031  H1035   1.084   .     S
F1032  C896    1.361   1_655 S
H1041  C663    1.086   1_565 S
O1046  Zn1062  1.934   .     S
O1046  Zn1059  1.960   .     S
O1046  Zn1060  1.948   .     S
O1046  Zn1061  1.935   .     S
O1047  Zn1060  1.933   .     S
O1048  Zn1062  1.943   .     S
O1049  Zn1061  1.939   .     S
O1050  Zn1059  1.930   .     S
O1051  Zn1059  1.928   .     S
O1052  Zn1062  1.930   .     S
O1053  Zn1060  1.930   .     S
O1054  Zn1061  1.941   .     S
O1055  Zn1062  1.937   .     S
O1056  Zn1059  1.928   .     S
O1057  Zn1060  1.935   .     S
O1058  Zn1061  1.930   .     S
