data_str_m2_o10_o17_pcu_sym.115
_audit_creation_date              2020-01-03
_audit_creation_method            'Materials Studio'
_symmetry_space_group_name_H-M    'P1'
_symmetry_Int_Tables_number       1
_symmetry_cell_setting            triclinic
loop_
_symmetry_equiv_pos_as_xyz
  x,y,z
_cell_length_a                    29.9336
_cell_length_b                    26.0407
_cell_length_c                    22.3588
_cell_angle_alpha                 102.7704
_cell_angle_beta                  93.8246
_cell_angle_gamma                 92.2111
loop_
_atom_site_label
_atom_site_type_symbol
_atom_site_fract_x
_atom_site_fract_y
_atom_site_fract_z
_atom_site_U_iso_or_equiv
_atom_site_adp_type
_atom_site_occupancy
C1     C     0.24866   0.06662   0.15115   0.00000  Uiso   1.00
C2     C     0.25134   0.26671   0.18218   0.00000  Uiso   1.00
C3     C     0.01683   0.07735   0.10141   0.00000  Uiso   1.00
C4     C     0.48317   0.25598   0.23193   0.00000  Uiso   1.00
C5     C     0.24800   0.01068   0.14240   0.00000  Uiso   1.00
C6     C     0.25200   0.32265   0.19093   0.00000  Uiso   1.00
C7     C     0.16456   0.16656   0.16767   0.00000  Uiso   1.00
C8     C     0.33544   0.16677   0.16566   0.00000  Uiso   1.00
C9     C     0.40947   0.21109   0.19799   0.00000  Uiso   1.00
C10    C     0.09053   0.12224   0.13534   0.00000  Uiso   1.00
C11    C     0.38354   0.16751   0.16370   0.00000  Uiso   1.00
C12    C     0.11646   0.16582   0.16964   0.00000  Uiso   1.00
C13    C     0.40341   0.12406   0.12971   0.00000  Uiso   1.00
C14    C     0.09659   0.20927   0.20363   0.00000  Uiso   1.00
C15    C     0.44997   0.12316   0.13132   0.00000  Uiso   1.00
C16    C     0.05003   0.21017   0.20202   0.00000  Uiso   1.00
C17    C     0.47656   0.16712   0.16587   0.00000  Uiso   1.00
C18    C     0.02344   0.16621   0.16746   0.00000  Uiso   1.00
C19    C     0.45623   0.21190   0.19883   0.00000  Uiso   1.00
C20    C     0.04377   0.12143   0.13450   0.00000  Uiso   1.00
C21    C     0.47024   0.07867   0.09974   0.00000  Uiso   1.00
C22    C     0.02976   0.25466   0.23359   0.00000  Uiso   1.00
Cu23   Cu    0.25501   0.17246   0.22813   0.00000  Uiso   1.00
Cu24   Cu    0.24500   0.16087   0.10521   0.00000  Uiso   1.00
H25    H     0.39268   0.24406   0.22367   0.00000  Uiso   1.00
H26    H     0.10732   0.08927   0.10966   0.00000  Uiso   1.00
H27    H     0.38257   0.09045   0.10372   0.00000  Uiso   1.00
H28    H     0.11743   0.24288   0.22961   0.00000  Uiso   1.00
H29    H     0.44980   0.04464   0.07410   0.00000  Uiso   1.00
H30    H     0.05020   0.28869   0.25924   0.00000  Uiso   1.00
H31    H     0.24423   0.32029   0.09558   0.00000  Uiso   1.00
H32    H     0.25577   0.01304   0.23775   0.00000  Uiso   1.00
H33    H     0.21512   0.12603   0.31632   0.00000  Uiso   1.00
H34    H     0.28488   0.20730   0.01702   0.00000  Uiso   1.00
N35    N     0.23745   0.15214   0.01284   0.00000  Uiso   1.00
N36    N     0.26256   0.18119   0.32049   0.00000  Uiso   1.00
O37    O     0.25326   0.09538   0.20659   0.00000  Uiso   1.00
O38    O     0.24675   0.23796   0.12674   0.00000  Uiso   1.00
O39    O     0.24480   0.08559   0.10279   0.00000  Uiso   1.00
O40    O     0.25520   0.24774   0.23055   0.00000  Uiso   1.00
O41    O     0.18936   0.17155   0.21857   0.00000  Uiso   1.00
O42    O     0.31065   0.16179   0.11476   0.00000  Uiso   1.00
O43    O     0.18090   0.16176   0.11477   0.00000  Uiso   1.00
O44    O     0.31910   0.17157   0.21857   0.00000  Uiso   1.00
Cl45   Cl    0.03993   0.01912   0.06258   0.00000  Uiso   1.00
Cl46   Cl    0.46007   0.31421   0.27075   0.00000  Uiso   1.00
C47    C     0.74866   0.06662   0.15115   0.00000  Uiso   1.00
C48    C     0.75134   0.26671   0.18218   0.00000  Uiso   1.00
C49    C     0.51683   0.07735   0.10141   0.00000  Uiso   1.00
C50    C     0.98317   0.25598   0.23193   0.00000  Uiso   1.00
C51    C     0.74800   0.01068   0.14240   0.00000  Uiso   1.00
C52    C     0.75200   0.32265   0.19093   0.00000  Uiso   1.00
C53    C     0.66456   0.16656   0.16767   0.00000  Uiso   1.00
C54    C     0.83544   0.16677   0.16566   0.00000  Uiso   1.00
C55    C     0.90947   0.21109   0.19799   0.00000  Uiso   1.00
C56    C     0.59053   0.12224   0.13534   0.00000  Uiso   1.00
C57    C     0.88354   0.16751   0.16370   0.00000  Uiso   1.00
C58    C     0.61646   0.16582   0.16964   0.00000  Uiso   1.00
C59    C     0.90341   0.12406   0.12971   0.00000  Uiso   1.00
C60    C     0.59659   0.20927   0.20363   0.00000  Uiso   1.00
C61    C     0.94997   0.12316   0.13132   0.00000  Uiso   1.00
C62    C     0.55003   0.21017   0.20202   0.00000  Uiso   1.00
C63    C     0.97656   0.16712   0.16587   0.00000  Uiso   1.00
C64    C     0.52344   0.16621   0.16746   0.00000  Uiso   1.00
C65    C     0.95623   0.21190   0.19883   0.00000  Uiso   1.00
C66    C     0.54377   0.12143   0.13450   0.00000  Uiso   1.00
C67    C     0.97024   0.07867   0.09974   0.00000  Uiso   1.00
C68    C     0.52976   0.25466   0.23359   0.00000  Uiso   1.00
Cu69   Cu    0.75501   0.17246   0.22813   0.00000  Uiso   1.00
Cu70   Cu    0.74500   0.16087   0.10521   0.00000  Uiso   1.00
H71    H     0.89268   0.24406   0.22367   0.00000  Uiso   1.00
H72    H     0.60732   0.08927   0.10966   0.00000  Uiso   1.00
H73    H     0.88257   0.09045   0.10372   0.00000  Uiso   1.00
H74    H     0.61743   0.24288   0.22961   0.00000  Uiso   1.00
H75    H     0.94980   0.04464   0.07410   0.00000  Uiso   1.00
H76    H     0.55020   0.28869   0.25924   0.00000  Uiso   1.00
H77    H     0.74423   0.32029   0.09558   0.00000  Uiso   1.00
H78    H     0.75577   0.01304   0.23775   0.00000  Uiso   1.00
H79    H     0.71512   0.12603   0.31632   0.00000  Uiso   1.00
H80    H     0.78488   0.20730   0.01702   0.00000  Uiso   1.00
N81    N     0.73745   0.15214   0.01284   0.00000  Uiso   1.00
N82    N     0.76256   0.18119   0.32049   0.00000  Uiso   1.00
O83    O     0.75326   0.09538   0.20659   0.00000  Uiso   1.00
O84    O     0.74675   0.23796   0.12674   0.00000  Uiso   1.00
O85    O     0.74480   0.08559   0.10279   0.00000  Uiso   1.00
O86    O     0.75520   0.24774   0.23055   0.00000  Uiso   1.00
O87    O     0.68936   0.17155   0.21857   0.00000  Uiso   1.00
O88    O     0.81065   0.16179   0.11476   0.00000  Uiso   1.00
O89    O     0.68090   0.16176   0.11477   0.00000  Uiso   1.00
O90    O     0.81910   0.17157   0.21857   0.00000  Uiso   1.00
Cl91   Cl    0.53993   0.01912   0.06258   0.00000  Uiso   1.00
Cl92   Cl    0.96007   0.31421   0.27075   0.00000  Uiso   1.00
C93    C     0.24866   0.39996   0.15115   0.00000  Uiso   1.00
C94    C     0.25134   0.60004   0.18218   0.00000  Uiso   1.00
C95    C     0.01683   0.41068   0.10141   0.00000  Uiso   1.00
C96    C     0.48317   0.58932   0.23193   0.00000  Uiso   1.00
C97    C     0.24800   0.34402   0.14240   0.00000  Uiso   1.00
C98    C     0.25200   0.65598   0.19093   0.00000  Uiso   1.00
C99    C     0.16456   0.49989   0.16767   0.00000  Uiso   1.00
C100   C     0.33544   0.50011   0.16566   0.00000  Uiso   1.00
C101   C     0.40947   0.54443   0.19799   0.00000  Uiso   1.00
C102   C     0.09053   0.45557   0.13534   0.00000  Uiso   1.00
C103   C     0.38354   0.50084   0.16370   0.00000  Uiso   1.00
C104   C     0.11646   0.49916   0.16964   0.00000  Uiso   1.00
C105   C     0.40341   0.45739   0.12971   0.00000  Uiso   1.00
C106   C     0.09659   0.54261   0.20363   0.00000  Uiso   1.00
C107   C     0.44997   0.45650   0.13132   0.00000  Uiso   1.00
C108   C     0.05003   0.54350   0.20202   0.00000  Uiso   1.00
C109   C     0.47656   0.50046   0.16587   0.00000  Uiso   1.00
C110   C     0.02344   0.49954   0.16746   0.00000  Uiso   1.00
C111   C     0.45623   0.54524   0.19883   0.00000  Uiso   1.00
C112   C     0.04377   0.45476   0.13450   0.00000  Uiso   1.00
C113   C     0.47024   0.41201   0.09974   0.00000  Uiso   1.00
C114   C     0.02976   0.58799   0.23359   0.00000  Uiso   1.00
Cu115  Cu    0.25501   0.50579   0.22813   0.00000  Uiso   1.00
Cu116  Cu    0.24500   0.49421   0.10521   0.00000  Uiso   1.00
H117   H     0.39268   0.57739   0.22367   0.00000  Uiso   1.00
H118   H     0.10732   0.42261   0.10966   0.00000  Uiso   1.00
H119   H     0.38257   0.42378   0.10372   0.00000  Uiso   1.00
H120   H     0.11743   0.57622   0.22961   0.00000  Uiso   1.00
H121   H     0.44980   0.37798   0.07410   0.00000  Uiso   1.00
H122   H     0.05020   0.62202   0.25924   0.00000  Uiso   1.00
H123   H     0.24423   0.65363   0.09558   0.00000  Uiso   1.00
H124   H     0.25577   0.34637   0.23775   0.00000  Uiso   1.00
H125   H     0.21512   0.45936   0.31632   0.00000  Uiso   1.00
H126   H     0.28488   0.54064   0.01702   0.00000  Uiso   1.00
N127   N     0.23745   0.48547   0.01284   0.00000  Uiso   1.00
N128   N     0.26256   0.51453   0.32049   0.00000  Uiso   1.00
O129   O     0.25326   0.42871   0.20659   0.00000  Uiso   1.00
O130   O     0.24675   0.57129   0.12674   0.00000  Uiso   1.00
O131   O     0.24480   0.41892   0.10279   0.00000  Uiso   1.00
O132   O     0.25520   0.58108   0.23055   0.00000  Uiso   1.00
O133   O     0.18936   0.50488   0.21857   0.00000  Uiso   1.00
O134   O     0.31065   0.49512   0.11476   0.00000  Uiso   1.00
O135   O     0.18090   0.49510   0.11477   0.00000  Uiso   1.00
O136   O     0.31910   0.50490   0.21857   0.00000  Uiso   1.00
Cl137  Cl    0.03993   0.35245   0.06258   0.00000  Uiso   1.00
Cl138  Cl    0.46007   0.64755   0.27075   0.00000  Uiso   1.00
C139   C     0.74866   0.39996   0.15115   0.00000  Uiso   1.00
C140   C     0.75134   0.60004   0.18218   0.00000  Uiso   1.00
C141   C     0.51683   0.41068   0.10141   0.00000  Uiso   1.00
C142   C     0.98317   0.58932   0.23193   0.00000  Uiso   1.00
C143   C     0.74800   0.34402   0.14240   0.00000  Uiso   1.00
C144   C     0.75200   0.65598   0.19093   0.00000  Uiso   1.00
C145   C     0.66456   0.49989   0.16767   0.00000  Uiso   1.00
C146   C     0.83544   0.50011   0.16566   0.00000  Uiso   1.00
C147   C     0.90947   0.54443   0.19799   0.00000  Uiso   1.00
C148   C     0.59053   0.45557   0.13534   0.00000  Uiso   1.00
C149   C     0.88354   0.50084   0.16370   0.00000  Uiso   1.00
C150   C     0.61646   0.49916   0.16964   0.00000  Uiso   1.00
C151   C     0.90341   0.45739   0.12971   0.00000  Uiso   1.00
C152   C     0.59659   0.54261   0.20363   0.00000  Uiso   1.00
C153   C     0.94997   0.45650   0.13132   0.00000  Uiso   1.00
C154   C     0.55003   0.54350   0.20202   0.00000  Uiso   1.00
C155   C     0.97656   0.50046   0.16587   0.00000  Uiso   1.00
C156   C     0.52344   0.49954   0.16746   0.00000  Uiso   1.00
C157   C     0.95623   0.54524   0.19883   0.00000  Uiso   1.00
C158   C     0.54377   0.45476   0.13450   0.00000  Uiso   1.00
C159   C     0.97024   0.41201   0.09974   0.00000  Uiso   1.00
C160   C     0.52976   0.58799   0.23359   0.00000  Uiso   1.00
Cu161  Cu    0.75501   0.50579   0.22813   0.00000  Uiso   1.00
Cu162  Cu    0.74500   0.49421   0.10521   0.00000  Uiso   1.00
H163   H     0.89268   0.57739   0.22367   0.00000  Uiso   1.00
H164   H     0.60732   0.42261   0.10966   0.00000  Uiso   1.00
H165   H     0.88257   0.42378   0.10372   0.00000  Uiso   1.00
H166   H     0.61743   0.57622   0.22961   0.00000  Uiso   1.00
H167   H     0.94980   0.37798   0.07410   0.00000  Uiso   1.00
H168   H     0.55020   0.62202   0.25924   0.00000  Uiso   1.00
H169   H     0.74423   0.65363   0.09558   0.00000  Uiso   1.00
H170   H     0.75577   0.34637   0.23775   0.00000  Uiso   1.00
H171   H     0.71512   0.45936   0.31632   0.00000  Uiso   1.00
H172   H     0.78488   0.54064   0.01702   0.00000  Uiso   1.00
N173   N     0.73745   0.48547   0.01284   0.00000  Uiso   1.00
N174   N     0.76256   0.51453   0.32049   0.00000  Uiso   1.00
O175   O     0.75326   0.42871   0.20659   0.00000  Uiso   1.00
O176   O     0.74675   0.57129   0.12674   0.00000  Uiso   1.00
O177   O     0.74480   0.41892   0.10279   0.00000  Uiso   1.00
O178   O     0.75520   0.58108   0.23055   0.00000  Uiso   1.00
O179   O     0.68936   0.50488   0.21857   0.00000  Uiso   1.00
O180   O     0.81065   0.49512   0.11476   0.00000  Uiso   1.00
O181   O     0.68090   0.49510   0.11477   0.00000  Uiso   1.00
O182   O     0.81910   0.50490   0.21857   0.00000  Uiso   1.00
Cl183  Cl    0.53993   0.35245   0.06258   0.00000  Uiso   1.00
Cl184  Cl    0.96007   0.64755   0.27075   0.00000  Uiso   1.00
C185   C     0.24866   0.73329   0.15115   0.00000  Uiso   1.00
C186   C     0.25134   0.93338   0.18218   0.00000  Uiso   1.00
C187   C     0.01683   0.74402   0.10141   0.00000  Uiso   1.00
C188   C     0.48317   0.92265   0.23193   0.00000  Uiso   1.00
C189   C     0.24800   0.67735   0.14240   0.00000  Uiso   1.00
C190   C     0.25200   0.98932   0.19093   0.00000  Uiso   1.00
C191   C     0.16456   0.83323   0.16767   0.00000  Uiso   1.00
C192   C     0.33544   0.83344   0.16566   0.00000  Uiso   1.00
C193   C     0.40947   0.87776   0.19799   0.00000  Uiso   1.00
C194   C     0.09053   0.78891   0.13534   0.00000  Uiso   1.00
C195   C     0.38354   0.83418   0.16370   0.00000  Uiso   1.00
C196   C     0.11646   0.83249   0.16964   0.00000  Uiso   1.00
C197   C     0.40341   0.79073   0.12971   0.00000  Uiso   1.00
C198   C     0.09659   0.87594   0.20363   0.00000  Uiso   1.00
C199   C     0.44997   0.78983   0.13132   0.00000  Uiso   1.00
C200   C     0.05003   0.87684   0.20202   0.00000  Uiso   1.00
C201   C     0.47656   0.83379   0.16587   0.00000  Uiso   1.00
C202   C     0.02344   0.83288   0.16746   0.00000  Uiso   1.00
C203   C     0.45623   0.87857   0.19883   0.00000  Uiso   1.00
C204   C     0.04377   0.78810   0.13450   0.00000  Uiso   1.00
C205   C     0.47024   0.74534   0.09974   0.00000  Uiso   1.00
C206   C     0.02976   0.92133   0.23359   0.00000  Uiso   1.00
Cu207  Cu    0.25501   0.83913   0.22813   0.00000  Uiso   1.00
Cu208  Cu    0.24500   0.82754   0.10521   0.00000  Uiso   1.00
H209   H     0.39268   0.91073   0.22367   0.00000  Uiso   1.00
H210   H     0.10732   0.75594   0.10966   0.00000  Uiso   1.00
H211   H     0.38257   0.75712   0.10372   0.00000  Uiso   1.00
H212   H     0.11743   0.90955   0.22961   0.00000  Uiso   1.00
H213   H     0.44980   0.71131   0.07410   0.00000  Uiso   1.00
H214   H     0.05020   0.95536   0.25924   0.00000  Uiso   1.00
H215   H     0.24423   0.98696   0.09558   0.00000  Uiso   1.00
H216   H     0.25577   0.67971   0.23775   0.00000  Uiso   1.00
H217   H     0.21512   0.79270   0.31632   0.00000  Uiso   1.00
H218   H     0.28488   0.87397   0.01702   0.00000  Uiso   1.00
N219   N     0.23745   0.81881   0.01284   0.00000  Uiso   1.00
N220   N     0.26256   0.84786   0.32049   0.00000  Uiso   1.00
O221   O     0.25326   0.76204   0.20659   0.00000  Uiso   1.00
O222   O     0.24675   0.90462   0.12674   0.00000  Uiso   1.00
O223   O     0.24480   0.75226   0.10279   0.00000  Uiso   1.00
O224   O     0.25520   0.91441   0.23055   0.00000  Uiso   1.00
O225   O     0.18936   0.83821   0.21857   0.00000  Uiso   1.00
O226   O     0.31065   0.82845   0.11476   0.00000  Uiso   1.00
O227   O     0.18090   0.82843   0.11477   0.00000  Uiso   1.00
O228   O     0.31910   0.83824   0.21857   0.00000  Uiso   1.00
Cl229  Cl    0.03993   0.68579   0.06258   0.00000  Uiso   1.00
Cl230  Cl    0.46007   0.98088   0.27075   0.00000  Uiso   1.00
C231   C     0.74866   0.73329   0.15115   0.00000  Uiso   1.00
C232   C     0.75134   0.93338   0.18218   0.00000  Uiso   1.00
C233   C     0.51683   0.74402   0.10141   0.00000  Uiso   1.00
C234   C     0.98317   0.92265   0.23193   0.00000  Uiso   1.00
C235   C     0.74800   0.67735   0.14240   0.00000  Uiso   1.00
C236   C     0.75200   0.98932   0.19093   0.00000  Uiso   1.00
C237   C     0.66456   0.83323   0.16767   0.00000  Uiso   1.00
C238   C     0.83544   0.83344   0.16566   0.00000  Uiso   1.00
C239   C     0.90947   0.87776   0.19799   0.00000  Uiso   1.00
C240   C     0.59053   0.78891   0.13534   0.00000  Uiso   1.00
C241   C     0.88354   0.83418   0.16370   0.00000  Uiso   1.00
C242   C     0.61646   0.83249   0.16964   0.00000  Uiso   1.00
C243   C     0.90341   0.79073   0.12971   0.00000  Uiso   1.00
C244   C     0.59659   0.87594   0.20363   0.00000  Uiso   1.00
C245   C     0.94997   0.78983   0.13132   0.00000  Uiso   1.00
C246   C     0.55003   0.87684   0.20202   0.00000  Uiso   1.00
C247   C     0.97656   0.83379   0.16587   0.00000  Uiso   1.00
C248   C     0.52344   0.83288   0.16746   0.00000  Uiso   1.00
C249   C     0.95623   0.87857   0.19883   0.00000  Uiso   1.00
C250   C     0.54377   0.78810   0.13450   0.00000  Uiso   1.00
C251   C     0.97024   0.74534   0.09974   0.00000  Uiso   1.00
C252   C     0.52976   0.92133   0.23359   0.00000  Uiso   1.00
Cu253  Cu    0.75501   0.83913   0.22813   0.00000  Uiso   1.00
Cu254  Cu    0.74500   0.82754   0.10521   0.00000  Uiso   1.00
H255   H     0.89268   0.91073   0.22367   0.00000  Uiso   1.00
H256   H     0.60732   0.75594   0.10966   0.00000  Uiso   1.00
H257   H     0.88257   0.75712   0.10372   0.00000  Uiso   1.00
H258   H     0.61743   0.90955   0.22961   0.00000  Uiso   1.00
H259   H     0.94980   0.71131   0.07410   0.00000  Uiso   1.00
H260   H     0.55020   0.95536   0.25924   0.00000  Uiso   1.00
H261   H     0.74423   0.98696   0.09558   0.00000  Uiso   1.00
H262   H     0.75577   0.67971   0.23775   0.00000  Uiso   1.00
H263   H     0.71512   0.79270   0.31632   0.00000  Uiso   1.00
H264   H     0.78488   0.87397   0.01702   0.00000  Uiso   1.00
N265   N     0.73745   0.81881   0.01284   0.00000  Uiso   1.00
N266   N     0.76256   0.84786   0.32049   0.00000  Uiso   1.00
O267   O     0.75326   0.76204   0.20659   0.00000  Uiso   1.00
O268   O     0.74675   0.90462   0.12674   0.00000  Uiso   1.00
O269   O     0.74480   0.75226   0.10279   0.00000  Uiso   1.00
O270   O     0.75520   0.91441   0.23055   0.00000  Uiso   1.00
O271   O     0.68936   0.83821   0.21857   0.00000  Uiso   1.00
O272   O     0.81065   0.82845   0.11476   0.00000  Uiso   1.00
O273   O     0.68090   0.82843   0.11477   0.00000  Uiso   1.00
O274   O     0.81910   0.83824   0.21857   0.00000  Uiso   1.00
Cl275  Cl    0.53993   0.68579   0.06258   0.00000  Uiso   1.00
Cl276  Cl    0.96007   0.98088   0.27075   0.00000  Uiso   1.00
C277   C     0.24866   0.06662   0.48449   0.00000  Uiso   1.00
C278   C     0.25134   0.26671   0.51551   0.00000  Uiso   1.00
C279   C     0.01683   0.07735   0.43474   0.00000  Uiso   1.00
C280   C     0.48317   0.25598   0.56526   0.00000  Uiso   1.00
C281   C     0.24800   0.01068   0.47573   0.00000  Uiso   1.00
C282   C     0.25200   0.32265   0.52427   0.00000  Uiso   1.00
C283   C     0.16456   0.16656   0.50101   0.00000  Uiso   1.00
C284   C     0.33544   0.16677   0.49899   0.00000  Uiso   1.00
C285   C     0.40947   0.21109   0.53132   0.00000  Uiso   1.00
C286   C     0.09053   0.12224   0.46868   0.00000  Uiso   1.00
C287   C     0.38354   0.16751   0.49703   0.00000  Uiso   1.00
C288   C     0.11646   0.16582   0.50297   0.00000  Uiso   1.00
C289   C     0.40341   0.12406   0.46304   0.00000  Uiso   1.00
C290   C     0.09659   0.20927   0.53696   0.00000  Uiso   1.00
C291   C     0.44997   0.12316   0.46465   0.00000  Uiso   1.00
C292   C     0.05003   0.21017   0.53535   0.00000  Uiso   1.00
C293   C     0.47656   0.16712   0.49921   0.00000  Uiso   1.00
C294   C     0.02344   0.16621   0.50079   0.00000  Uiso   1.00
C295   C     0.45623   0.21190   0.53216   0.00000  Uiso   1.00
C296   C     0.04377   0.12143   0.46784   0.00000  Uiso   1.00
C297   C     0.47024   0.07867   0.43308   0.00000  Uiso   1.00
C298   C     0.02976   0.25466   0.56692   0.00000  Uiso   1.00
Cu299  Cu    0.25501   0.17246   0.56146   0.00000  Uiso   1.00
Cu300  Cu    0.24500   0.16087   0.43854   0.00000  Uiso   1.00
H301   H     0.39268   0.24406   0.55701   0.00000  Uiso   1.00
H302   H     0.10732   0.08927   0.44299   0.00000  Uiso   1.00
H303   H     0.38257   0.09045   0.43705   0.00000  Uiso   1.00
H304   H     0.11743   0.24288   0.56295   0.00000  Uiso   1.00
H305   H     0.44980   0.04464   0.40743   0.00000  Uiso   1.00
H306   H     0.05020   0.28869   0.59257   0.00000  Uiso   1.00
H307   H     0.24423   0.32029   0.42891   0.00000  Uiso   1.00
H308   H     0.25577   0.01304   0.57109   0.00000  Uiso   1.00
H309   H     0.21512   0.12603   0.64965   0.00000  Uiso   1.00
H310   H     0.28488   0.20730   0.35035   0.00000  Uiso   1.00
N311   N     0.23745   0.15214   0.34617   0.00000  Uiso   1.00
N312   N     0.26256   0.18119   0.65383   0.00000  Uiso   1.00
O313   O     0.25326   0.09538   0.53992   0.00000  Uiso   1.00
O314   O     0.24675   0.23796   0.46008   0.00000  Uiso   1.00
O315   O     0.24480   0.08559   0.43612   0.00000  Uiso   1.00
O316   O     0.25520   0.24774   0.56388   0.00000  Uiso   1.00
O317   O     0.18936   0.17155   0.55191   0.00000  Uiso   1.00
O318   O     0.31065   0.16179   0.44809   0.00000  Uiso   1.00
O319   O     0.18090   0.16176   0.44810   0.00000  Uiso   1.00
O320   O     0.31910   0.17157   0.55190   0.00000  Uiso   1.00
Cl321  Cl    0.03993   0.01912   0.39592   0.00000  Uiso   1.00
Cl322  Cl    0.46007   0.31421   0.60408   0.00000  Uiso   1.00
C323   C     0.74866   0.06662   0.48449   0.00000  Uiso   1.00
C324   C     0.75134   0.26671   0.51551   0.00000  Uiso   1.00
C325   C     0.51683   0.07735   0.43474   0.00000  Uiso   1.00
C326   C     0.98317   0.25598   0.56526   0.00000  Uiso   1.00
C327   C     0.74800   0.01068   0.47573   0.00000  Uiso   1.00
C328   C     0.75200   0.32265   0.52427   0.00000  Uiso   1.00
C329   C     0.66456   0.16656   0.50101   0.00000  Uiso   1.00
C330   C     0.83544   0.16677   0.49899   0.00000  Uiso   1.00
C331   C     0.90947   0.21109   0.53132   0.00000  Uiso   1.00
C332   C     0.59053   0.12224   0.46868   0.00000  Uiso   1.00
C333   C     0.88354   0.16751   0.49703   0.00000  Uiso   1.00
C334   C     0.61646   0.16582   0.50297   0.00000  Uiso   1.00
C335   C     0.90341   0.12406   0.46304   0.00000  Uiso   1.00
C336   C     0.59659   0.20927   0.53696   0.00000  Uiso   1.00
C337   C     0.94997   0.12316   0.46465   0.00000  Uiso   1.00
C338   C     0.55003   0.21017   0.53535   0.00000  Uiso   1.00
C339   C     0.97656   0.16712   0.49921   0.00000  Uiso   1.00
C340   C     0.52344   0.16621   0.50079   0.00000  Uiso   1.00
C341   C     0.95623   0.21190   0.53216   0.00000  Uiso   1.00
C342   C     0.54377   0.12143   0.46784   0.00000  Uiso   1.00
C343   C     0.97024   0.07867   0.43308   0.00000  Uiso   1.00
C344   C     0.52976   0.25466   0.56692   0.00000  Uiso   1.00
Cu345  Cu    0.75501   0.17246   0.56146   0.00000  Uiso   1.00
Cu346  Cu    0.74500   0.16087   0.43854   0.00000  Uiso   1.00
H347   H     0.89268   0.24406   0.55701   0.00000  Uiso   1.00
H348   H     0.60732   0.08927   0.44299   0.00000  Uiso   1.00
H349   H     0.88257   0.09045   0.43705   0.00000  Uiso   1.00
H350   H     0.61743   0.24288   0.56295   0.00000  Uiso   1.00
H351   H     0.94980   0.04464   0.40743   0.00000  Uiso   1.00
H352   H     0.55020   0.28869   0.59257   0.00000  Uiso   1.00
H353   H     0.74423   0.32029   0.42891   0.00000  Uiso   1.00
H354   H     0.75577   0.01304   0.57109   0.00000  Uiso   1.00
H355   H     0.71512   0.12603   0.64965   0.00000  Uiso   1.00
H356   H     0.78488   0.20730   0.35035   0.00000  Uiso   1.00
N357   N     0.73745   0.15214   0.34617   0.00000  Uiso   1.00
N358   N     0.76256   0.18119   0.65383   0.00000  Uiso   1.00
O359   O     0.75326   0.09538   0.53992   0.00000  Uiso   1.00
O360   O     0.74675   0.23796   0.46008   0.00000  Uiso   1.00
O361   O     0.74480   0.08559   0.43612   0.00000  Uiso   1.00
O362   O     0.75520   0.24774   0.56388   0.00000  Uiso   1.00
O363   O     0.68936   0.17155   0.55191   0.00000  Uiso   1.00
O364   O     0.81065   0.16179   0.44809   0.00000  Uiso   1.00
O365   O     0.68090   0.16176   0.44810   0.00000  Uiso   1.00
O366   O     0.81910   0.17157   0.55190   0.00000  Uiso   1.00
Cl367  Cl    0.53993   0.01912   0.39592   0.00000  Uiso   1.00
Cl368  Cl    0.96007   0.31421   0.60408   0.00000  Uiso   1.00
C369   C     0.24866   0.39996   0.48449   0.00000  Uiso   1.00
C370   C     0.25134   0.60004   0.51551   0.00000  Uiso   1.00
C371   C     0.01683   0.41068   0.43474   0.00000  Uiso   1.00
C372   C     0.48317   0.58932   0.56526   0.00000  Uiso   1.00
C373   C     0.24800   0.34402   0.47573   0.00000  Uiso   1.00
C374   C     0.25200   0.65598   0.52427   0.00000  Uiso   1.00
C375   C     0.16456   0.49989   0.50101   0.00000  Uiso   1.00
C376   C     0.33544   0.50011   0.49899   0.00000  Uiso   1.00
C377   C     0.40947   0.54443   0.53132   0.00000  Uiso   1.00
C378   C     0.09053   0.45557   0.46868   0.00000  Uiso   1.00
C379   C     0.38354   0.50084   0.49703   0.00000  Uiso   1.00
C380   C     0.11646   0.49916   0.50297   0.00000  Uiso   1.00
C381   C     0.40341   0.45739   0.46304   0.00000  Uiso   1.00
C382   C     0.09659   0.54261   0.53696   0.00000  Uiso   1.00
C383   C     0.44997   0.45650   0.46465   0.00000  Uiso   1.00
C384   C     0.05003   0.54350   0.53535   0.00000  Uiso   1.00
C385   C     0.47656   0.50046   0.49921   0.00000  Uiso   1.00
C386   C     0.02344   0.49954   0.50079   0.00000  Uiso   1.00
C387   C     0.45623   0.54524   0.53216   0.00000  Uiso   1.00
C388   C     0.04377   0.45476   0.46784   0.00000  Uiso   1.00
C389   C     0.47024   0.41201   0.43308   0.00000  Uiso   1.00
C390   C     0.02976   0.58799   0.56692   0.00000  Uiso   1.00
Cu391  Cu    0.25501   0.50579   0.56146   0.00000  Uiso   1.00
Cu392  Cu    0.24500   0.49421   0.43854   0.00000  Uiso   1.00
H393   H     0.39268   0.57739   0.55701   0.00000  Uiso   1.00
H394   H     0.10732   0.42261   0.44299   0.00000  Uiso   1.00
H395   H     0.38257   0.42378   0.43705   0.00000  Uiso   1.00
H396   H     0.11743   0.57622   0.56295   0.00000  Uiso   1.00
H397   H     0.44980   0.37798   0.40743   0.00000  Uiso   1.00
H398   H     0.05020   0.62202   0.59257   0.00000  Uiso   1.00
H399   H     0.24423   0.65363   0.42891   0.00000  Uiso   1.00
H400   H     0.25577   0.34637   0.57109   0.00000  Uiso   1.00
H401   H     0.21512   0.45936   0.64965   0.00000  Uiso   1.00
H402   H     0.28488   0.54064   0.35035   0.00000  Uiso   1.00
N403   N     0.23745   0.48547   0.34617   0.00000  Uiso   1.00
N404   N     0.26256   0.51453   0.65383   0.00000  Uiso   1.00
O405   O     0.25326   0.42871   0.53992   0.00000  Uiso   1.00
O406   O     0.24675   0.57129   0.46008   0.00000  Uiso   1.00
O407   O     0.24480   0.41892   0.43612   0.00000  Uiso   1.00
O408   O     0.25520   0.58108   0.56388   0.00000  Uiso   1.00
O409   O     0.18936   0.50488   0.55191   0.00000  Uiso   1.00
O410   O     0.31065   0.49512   0.44809   0.00000  Uiso   1.00
O411   O     0.18090   0.49510   0.44810   0.00000  Uiso   1.00
O412   O     0.31910   0.50490   0.55190   0.00000  Uiso   1.00
Cl413  Cl    0.03993   0.35245   0.39592   0.00000  Uiso   1.00
Cl414  Cl    0.46007   0.64755   0.60408   0.00000  Uiso   1.00
C415   C     0.74866   0.39996   0.48449   0.00000  Uiso   1.00
C416   C     0.75134   0.60004   0.51551   0.00000  Uiso   1.00
C417   C     0.51683   0.41068   0.43474   0.00000  Uiso   1.00
C418   C     0.98317   0.58932   0.56526   0.00000  Uiso   1.00
C419   C     0.74800   0.34402   0.47573   0.00000  Uiso   1.00
C420   C     0.75200   0.65598   0.52427   0.00000  Uiso   1.00
C421   C     0.66456   0.49989   0.50101   0.00000  Uiso   1.00
C422   C     0.83544   0.50011   0.49899   0.00000  Uiso   1.00
C423   C     0.90947   0.54443   0.53132   0.00000  Uiso   1.00
C424   C     0.59053   0.45557   0.46868   0.00000  Uiso   1.00
C425   C     0.88354   0.50084   0.49703   0.00000  Uiso   1.00
C426   C     0.61646   0.49916   0.50297   0.00000  Uiso   1.00
C427   C     0.90341   0.45739   0.46304   0.00000  Uiso   1.00
C428   C     0.59659   0.54261   0.53696   0.00000  Uiso   1.00
C429   C     0.94997   0.45650   0.46465   0.00000  Uiso   1.00
C430   C     0.55003   0.54350   0.53535   0.00000  Uiso   1.00
C431   C     0.97656   0.50046   0.49921   0.00000  Uiso   1.00
C432   C     0.52344   0.49954   0.50079   0.00000  Uiso   1.00
C433   C     0.95623   0.54524   0.53216   0.00000  Uiso   1.00
C434   C     0.54377   0.45476   0.46784   0.00000  Uiso   1.00
C435   C     0.97024   0.41201   0.43308   0.00000  Uiso   1.00
C436   C     0.52976   0.58799   0.56692   0.00000  Uiso   1.00
Cu437  Cu    0.75501   0.50579   0.56146   0.00000  Uiso   1.00
Cu438  Cu    0.74500   0.49421   0.43854   0.00000  Uiso   1.00
H439   H     0.89268   0.57739   0.55701   0.00000  Uiso   1.00
H440   H     0.60732   0.42261   0.44299   0.00000  Uiso   1.00
H441   H     0.88257   0.42378   0.43705   0.00000  Uiso   1.00
H442   H     0.61743   0.57622   0.56295   0.00000  Uiso   1.00
H443   H     0.94980   0.37798   0.40743   0.00000  Uiso   1.00
H444   H     0.55020   0.62202   0.59257   0.00000  Uiso   1.00
H445   H     0.74423   0.65363   0.42891   0.00000  Uiso   1.00
H446   H     0.75577   0.34637   0.57109   0.00000  Uiso   1.00
H447   H     0.71512   0.45936   0.64965   0.00000  Uiso   1.00
H448   H     0.78488   0.54064   0.35035   0.00000  Uiso   1.00
N449   N     0.73745   0.48547   0.34617   0.00000  Uiso   1.00
N450   N     0.76256   0.51453   0.65383   0.00000  Uiso   1.00
O451   O     0.75326   0.42871   0.53992   0.00000  Uiso   1.00
O452   O     0.74675   0.57129   0.46008   0.00000  Uiso   1.00
O453   O     0.74480   0.41892   0.43612   0.00000  Uiso   1.00
O454   O     0.75520   0.58108   0.56388   0.00000  Uiso   1.00
O455   O     0.68936   0.50488   0.55191   0.00000  Uiso   1.00
O456   O     0.81065   0.49512   0.44809   0.00000  Uiso   1.00
O457   O     0.68090   0.49510   0.44810   0.00000  Uiso   1.00
O458   O     0.81910   0.50490   0.55190   0.00000  Uiso   1.00
Cl459  Cl    0.53993   0.35245   0.39592   0.00000  Uiso   1.00
Cl460  Cl    0.96007   0.64755   0.60408   0.00000  Uiso   1.00
C461   C     0.24866   0.73329   0.48449   0.00000  Uiso   1.00
C462   C     0.25134   0.93338   0.51551   0.00000  Uiso   1.00
C463   C     0.01683   0.74402   0.43474   0.00000  Uiso   1.00
C464   C     0.48317   0.92265   0.56526   0.00000  Uiso   1.00
C465   C     0.24800   0.67735   0.47573   0.00000  Uiso   1.00
C466   C     0.25200   0.98932   0.52427   0.00000  Uiso   1.00
C467   C     0.16456   0.83323   0.50101   0.00000  Uiso   1.00
C468   C     0.33544   0.83344   0.49899   0.00000  Uiso   1.00
C469   C     0.40947   0.87776   0.53132   0.00000  Uiso   1.00
C470   C     0.09053   0.78891   0.46868   0.00000  Uiso   1.00
C471   C     0.38354   0.83418   0.49703   0.00000  Uiso   1.00
C472   C     0.11646   0.83249   0.50297   0.00000  Uiso   1.00
C473   C     0.40341   0.79073   0.46304   0.00000  Uiso   1.00
C474   C     0.09659   0.87594   0.53696   0.00000  Uiso   1.00
C475   C     0.44997   0.78983   0.46465   0.00000  Uiso   1.00
C476   C     0.05003   0.87684   0.53535   0.00000  Uiso   1.00
C477   C     0.47656   0.83379   0.49921   0.00000  Uiso   1.00
C478   C     0.02344   0.83288   0.50079   0.00000  Uiso   1.00
C479   C     0.45623   0.87857   0.53216   0.00000  Uiso   1.00
C480   C     0.04377   0.78810   0.46784   0.00000  Uiso   1.00
C481   C     0.47024   0.74534   0.43308   0.00000  Uiso   1.00
C482   C     0.02976   0.92133   0.56692   0.00000  Uiso   1.00
Cu483  Cu    0.25501   0.83913   0.56146   0.00000  Uiso   1.00
Cu484  Cu    0.24500   0.82754   0.43854   0.00000  Uiso   1.00
H485   H     0.39268   0.91073   0.55701   0.00000  Uiso   1.00
H486   H     0.10732   0.75594   0.44299   0.00000  Uiso   1.00
H487   H     0.38257   0.75712   0.43705   0.00000  Uiso   1.00
H488   H     0.11743   0.90955   0.56295   0.00000  Uiso   1.00
H489   H     0.44980   0.71131   0.40743   0.00000  Uiso   1.00
H490   H     0.05020   0.95536   0.59257   0.00000  Uiso   1.00
H491   H     0.24423   0.98696   0.42891   0.00000  Uiso   1.00
H492   H     0.25577   0.67971   0.57109   0.00000  Uiso   1.00
H493   H     0.21512   0.79270   0.64965   0.00000  Uiso   1.00
H494   H     0.28488   0.87397   0.35035   0.00000  Uiso   1.00
N495   N     0.23745   0.81881   0.34617   0.00000  Uiso   1.00
N496   N     0.26256   0.84786   0.65383   0.00000  Uiso   1.00
O497   O     0.25326   0.76204   0.53992   0.00000  Uiso   1.00
O498   O     0.24675   0.90462   0.46008   0.00000  Uiso   1.00
O499   O     0.24480   0.75226   0.43612   0.00000  Uiso   1.00
O500   O     0.25520   0.91441   0.56388   0.00000  Uiso   1.00
O501   O     0.18936   0.83821   0.55191   0.00000  Uiso   1.00
O502   O     0.31065   0.82845   0.44809   0.00000  Uiso   1.00
O503   O     0.18090   0.82843   0.44810   0.00000  Uiso   1.00
O504   O     0.31910   0.83824   0.55190   0.00000  Uiso   1.00
Cl505  Cl    0.03993   0.68579   0.39592   0.00000  Uiso   1.00
Cl506  Cl    0.46007   0.98088   0.60408   0.00000  Uiso   1.00
C507   C     0.74866   0.73329   0.48449   0.00000  Uiso   1.00
C508   C     0.75134   0.93338   0.51551   0.00000  Uiso   1.00
C509   C     0.51683   0.74402   0.43474   0.00000  Uiso   1.00
C510   C     0.98317   0.92265   0.56526   0.00000  Uiso   1.00
C511   C     0.74800   0.67735   0.47573   0.00000  Uiso   1.00
C512   C     0.75200   0.98932   0.52427   0.00000  Uiso   1.00
C513   C     0.66456   0.83323   0.50101   0.00000  Uiso   1.00
C514   C     0.83544   0.83344   0.49899   0.00000  Uiso   1.00
C515   C     0.90947   0.87776   0.53132   0.00000  Uiso   1.00
C516   C     0.59053   0.78891   0.46868   0.00000  Uiso   1.00
C517   C     0.88354   0.83418   0.49703   0.00000  Uiso   1.00
C518   C     0.61646   0.83249   0.50297   0.00000  Uiso   1.00
C519   C     0.90341   0.79073   0.46304   0.00000  Uiso   1.00
C520   C     0.59659   0.87594   0.53696   0.00000  Uiso   1.00
C521   C     0.94997   0.78983   0.46465   0.00000  Uiso   1.00
C522   C     0.55003   0.87684   0.53535   0.00000  Uiso   1.00
C523   C     0.97656   0.83379   0.49921   0.00000  Uiso   1.00
C524   C     0.52344   0.83288   0.50079   0.00000  Uiso   1.00
C525   C     0.95623   0.87857   0.53216   0.00000  Uiso   1.00
C526   C     0.54377   0.78810   0.46784   0.00000  Uiso   1.00
C527   C     0.97024   0.74534   0.43308   0.00000  Uiso   1.00
C528   C     0.52976   0.92133   0.56692   0.00000  Uiso   1.00
Cu529  Cu    0.75501   0.83913   0.56146   0.00000  Uiso   1.00
Cu530  Cu    0.74500   0.82754   0.43854   0.00000  Uiso   1.00
H531   H     0.89268   0.91073   0.55701   0.00000  Uiso   1.00
H532   H     0.60732   0.75594   0.44299   0.00000  Uiso   1.00
H533   H     0.88257   0.75712   0.43705   0.00000  Uiso   1.00
H534   H     0.61743   0.90955   0.56295   0.00000  Uiso   1.00
H535   H     0.94980   0.71131   0.40743   0.00000  Uiso   1.00
H536   H     0.55020   0.95536   0.59257   0.00000  Uiso   1.00
H537   H     0.74423   0.98696   0.42891   0.00000  Uiso   1.00
H538   H     0.75577   0.67971   0.57109   0.00000  Uiso   1.00
H539   H     0.71512   0.79270   0.64965   0.00000  Uiso   1.00
H540   H     0.78488   0.87397   0.35035   0.00000  Uiso   1.00
N541   N     0.73745   0.81881   0.34617   0.00000  Uiso   1.00
N542   N     0.76256   0.84786   0.65383   0.00000  Uiso   1.00
O543   O     0.75326   0.76204   0.53992   0.00000  Uiso   1.00
O544   O     0.74675   0.90462   0.46008   0.00000  Uiso   1.00
O545   O     0.74480   0.75226   0.43612   0.00000  Uiso   1.00
O546   O     0.75520   0.91441   0.56388   0.00000  Uiso   1.00
O547   O     0.68936   0.83821   0.55191   0.00000  Uiso   1.00
O548   O     0.81065   0.82845   0.44809   0.00000  Uiso   1.00
O549   O     0.68090   0.82843   0.44810   0.00000  Uiso   1.00
O550   O     0.81910   0.83824   0.55190   0.00000  Uiso   1.00
Cl551  Cl    0.53993   0.68579   0.39592   0.00000  Uiso   1.00
Cl552  Cl    0.96007   0.98088   0.60408   0.00000  Uiso   1.00
C553   C     0.24866   0.06662   0.81782   0.00000  Uiso   1.00
C554   C     0.25134   0.26671   0.84885   0.00000  Uiso   1.00
C555   C     0.01683   0.07735   0.76807   0.00000  Uiso   1.00
C556   C     0.48317   0.25598   0.89859   0.00000  Uiso   1.00
C557   C     0.24800   0.01068   0.80907   0.00000  Uiso   1.00
C558   C     0.25200   0.32265   0.85760   0.00000  Uiso   1.00
C559   C     0.16456   0.16656   0.83434   0.00000  Uiso   1.00
C560   C     0.33544   0.16677   0.83233   0.00000  Uiso   1.00
C561   C     0.40947   0.21109   0.86466   0.00000  Uiso   1.00
C562   C     0.09053   0.12224   0.80201   0.00000  Uiso   1.00
C563   C     0.38354   0.16751   0.83036   0.00000  Uiso   1.00
C564   C     0.11646   0.16582   0.83630   0.00000  Uiso   1.00
C565   C     0.40341   0.12406   0.79637   0.00000  Uiso   1.00
C566   C     0.09659   0.20927   0.87029   0.00000  Uiso   1.00
C567   C     0.44997   0.12316   0.79798   0.00000  Uiso   1.00
C568   C     0.05003   0.21017   0.86868   0.00000  Uiso   1.00
C569   C     0.47656   0.16712   0.83254   0.00000  Uiso   1.00
C570   C     0.02344   0.16621   0.83413   0.00000  Uiso   1.00
C571   C     0.45623   0.21190   0.86550   0.00000  Uiso   1.00
C572   C     0.04377   0.12143   0.80117   0.00000  Uiso   1.00
C573   C     0.47024   0.07867   0.76641   0.00000  Uiso   1.00
C574   C     0.02976   0.25466   0.90026   0.00000  Uiso   1.00
Cu575  Cu    0.25501   0.17246   0.89479   0.00000  Uiso   1.00
Cu576  Cu    0.24500   0.16087   0.77187   0.00000  Uiso   1.00
H577   H     0.39268   0.24406   0.89034   0.00000  Uiso   1.00
H578   H     0.10732   0.08927   0.77633   0.00000  Uiso   1.00
H579   H     0.38257   0.09045   0.77039   0.00000  Uiso   1.00
H580   H     0.11743   0.24288   0.89628   0.00000  Uiso   1.00
H581   H     0.44980   0.04464   0.74076   0.00000  Uiso   1.00
H582   H     0.05020   0.28869   0.92590   0.00000  Uiso   1.00
H583   H     0.24423   0.32029   0.76225   0.00000  Uiso   1.00
H584   H     0.25577   0.01304   0.90442   0.00000  Uiso   1.00
H585   H     0.21512   0.12603   0.98298   0.00000  Uiso   1.00
H586   H     0.28488   0.20730   0.68368   0.00000  Uiso   1.00
N587   N     0.23745   0.15214   0.67951   0.00000  Uiso   1.00
N588   N     0.26256   0.18119   0.98716   0.00000  Uiso   1.00
O589   O     0.25326   0.09538   0.87326   0.00000  Uiso   1.00
O590   O     0.24675   0.23796   0.79341   0.00000  Uiso   1.00
O591   O     0.24480   0.08559   0.76945   0.00000  Uiso   1.00
O592   O     0.25520   0.24774   0.89721   0.00000  Uiso   1.00
O593   O     0.18936   0.17155   0.88524   0.00000  Uiso   1.00
O594   O     0.31065   0.16179   0.78143   0.00000  Uiso   1.00
O595   O     0.18090   0.16176   0.78143   0.00000  Uiso   1.00
O596   O     0.31910   0.17157   0.88523   0.00000  Uiso   1.00
Cl597  Cl    0.03993   0.01912   0.72925   0.00000  Uiso   1.00
Cl598  Cl    0.46007   0.31421   0.93742   0.00000  Uiso   1.00
C599   C     0.74866   0.06662   0.81782   0.00000  Uiso   1.00
C600   C     0.75134   0.26671   0.84885   0.00000  Uiso   1.00
C601   C     0.51683   0.07735   0.76807   0.00000  Uiso   1.00
C602   C     0.98317   0.25598   0.89859   0.00000  Uiso   1.00
C603   C     0.74800   0.01068   0.80907   0.00000  Uiso   1.00
C604   C     0.75200   0.32265   0.85760   0.00000  Uiso   1.00
C605   C     0.66456   0.16656   0.83434   0.00000  Uiso   1.00
C606   C     0.83544   0.16677   0.83233   0.00000  Uiso   1.00
C607   C     0.90947   0.21109   0.86466   0.00000  Uiso   1.00
C608   C     0.59053   0.12224   0.80201   0.00000  Uiso   1.00
C609   C     0.88354   0.16751   0.83036   0.00000  Uiso   1.00
C610   C     0.61646   0.16582   0.83630   0.00000  Uiso   1.00
C611   C     0.90341   0.12406   0.79637   0.00000  Uiso   1.00
C612   C     0.59659   0.20927   0.87029   0.00000  Uiso   1.00
C613   C     0.94997   0.12316   0.79798   0.00000  Uiso   1.00
C614   C     0.55003   0.21017   0.86868   0.00000  Uiso   1.00
C615   C     0.97656   0.16712   0.83254   0.00000  Uiso   1.00
C616   C     0.52344   0.16621   0.83413   0.00000  Uiso   1.00
C617   C     0.95623   0.21190   0.86550   0.00000  Uiso   1.00
C618   C     0.54377   0.12143   0.80117   0.00000  Uiso   1.00
C619   C     0.97024   0.07867   0.76641   0.00000  Uiso   1.00
C620   C     0.52976   0.25466   0.90026   0.00000  Uiso   1.00
Cu621  Cu    0.75501   0.17246   0.89479   0.00000  Uiso   1.00
Cu622  Cu    0.74500   0.16087   0.77187   0.00000  Uiso   1.00
H623   H     0.89268   0.24406   0.89034   0.00000  Uiso   1.00
H624   H     0.60732   0.08927   0.77633   0.00000  Uiso   1.00
H625   H     0.88257   0.09045   0.77039   0.00000  Uiso   1.00
H626   H     0.61743   0.24288   0.89628   0.00000  Uiso   1.00
H627   H     0.94980   0.04464   0.74076   0.00000  Uiso   1.00
H628   H     0.55020   0.28869   0.92590   0.00000  Uiso   1.00
H629   H     0.74423   0.32029   0.76225   0.00000  Uiso   1.00
H630   H     0.75577   0.01304   0.90442   0.00000  Uiso   1.00
H631   H     0.71512   0.12603   0.98298   0.00000  Uiso   1.00
H632   H     0.78488   0.20730   0.68368   0.00000  Uiso   1.00
N633   N     0.73745   0.15214   0.67951   0.00000  Uiso   1.00
N634   N     0.76256   0.18119   0.98716   0.00000  Uiso   1.00
O635   O     0.75326   0.09538   0.87326   0.00000  Uiso   1.00
O636   O     0.74675   0.23796   0.79341   0.00000  Uiso   1.00
O637   O     0.74480   0.08559   0.76945   0.00000  Uiso   1.00
O638   O     0.75520   0.24774   0.89721   0.00000  Uiso   1.00
O639   O     0.68936   0.17155   0.88524   0.00000  Uiso   1.00
O640   O     0.81065   0.16179   0.78143   0.00000  Uiso   1.00
O641   O     0.68090   0.16176   0.78143   0.00000  Uiso   1.00
O642   O     0.81910   0.17157   0.88523   0.00000  Uiso   1.00
Cl643  Cl    0.53993   0.01912   0.72925   0.00000  Uiso   1.00
Cl644  Cl    0.96007   0.31421   0.93742   0.00000  Uiso   1.00
C645   C     0.24866   0.39996   0.81782   0.00000  Uiso   1.00
C646   C     0.25134   0.60004   0.84885   0.00000  Uiso   1.00
C647   C     0.01683   0.41068   0.76807   0.00000  Uiso   1.00
C648   C     0.48317   0.58932   0.89859   0.00000  Uiso   1.00
C649   C     0.24800   0.34402   0.80907   0.00000  Uiso   1.00
C650   C     0.25200   0.65598   0.85760   0.00000  Uiso   1.00
C651   C     0.16456   0.49989   0.83434   0.00000  Uiso   1.00
C652   C     0.33544   0.50011   0.83233   0.00000  Uiso   1.00
C653   C     0.40947   0.54443   0.86466   0.00000  Uiso   1.00
C654   C     0.09053   0.45557   0.80201   0.00000  Uiso   1.00
C655   C     0.38354   0.50084   0.83036   0.00000  Uiso   1.00
C656   C     0.11646   0.49916   0.83630   0.00000  Uiso   1.00
C657   C     0.40341   0.45739   0.79637   0.00000  Uiso   1.00
C658   C     0.09659   0.54261   0.87029   0.00000  Uiso   1.00
C659   C     0.44997   0.45650   0.79798   0.00000  Uiso   1.00
C660   C     0.05003   0.54350   0.86868   0.00000  Uiso   1.00
C661   C     0.47656   0.50046   0.83254   0.00000  Uiso   1.00
C662   C     0.02344   0.49954   0.83413   0.00000  Uiso   1.00
C663   C     0.45623   0.54524   0.86550   0.00000  Uiso   1.00
C664   C     0.04377   0.45476   0.80117   0.00000  Uiso   1.00
C665   C     0.47024   0.41201   0.76641   0.00000  Uiso   1.00
C666   C     0.02976   0.58799   0.90026   0.00000  Uiso   1.00
Cu667  Cu    0.25501   0.50579   0.89479   0.00000  Uiso   1.00
Cu668  Cu    0.24500   0.49421   0.77187   0.00000  Uiso   1.00
H669   H     0.39268   0.57739   0.89034   0.00000  Uiso   1.00
H670   H     0.10732   0.42261   0.77633   0.00000  Uiso   1.00
H671   H     0.38257   0.42378   0.77039   0.00000  Uiso   1.00
H672   H     0.11743   0.57622   0.89628   0.00000  Uiso   1.00
H673   H     0.44980   0.37798   0.74076   0.00000  Uiso   1.00
H674   H     0.05020   0.62202   0.92590   0.00000  Uiso   1.00
H675   H     0.24423   0.65363   0.76225   0.00000  Uiso   1.00
H676   H     0.25577   0.34637   0.90442   0.00000  Uiso   1.00
H677   H     0.21512   0.45936   0.98298   0.00000  Uiso   1.00
H678   H     0.28488   0.54064   0.68368   0.00000  Uiso   1.00
N679   N     0.23745   0.48547   0.67951   0.00000  Uiso   1.00
N680   N     0.26256   0.51453   0.98716   0.00000  Uiso   1.00
O681   O     0.25326   0.42871   0.87326   0.00000  Uiso   1.00
O682   O     0.24675   0.57129   0.79341   0.00000  Uiso   1.00
O683   O     0.24480   0.41892   0.76945   0.00000  Uiso   1.00
O684   O     0.25520   0.58108   0.89721   0.00000  Uiso   1.00
O685   O     0.18936   0.50488   0.88524   0.00000  Uiso   1.00
O686   O     0.31065   0.49512   0.78143   0.00000  Uiso   1.00
O687   O     0.18090   0.49510   0.78143   0.00000  Uiso   1.00
O688   O     0.31910   0.50490   0.88523   0.00000  Uiso   1.00
Cl689  Cl    0.03993   0.35245   0.72925   0.00000  Uiso   1.00
Cl690  Cl    0.46007   0.64755   0.93742   0.00000  Uiso   1.00
C691   C     0.74866   0.39996   0.81782   0.00000  Uiso   1.00
C692   C     0.75134   0.60004   0.84885   0.00000  Uiso   1.00
C693   C     0.51683   0.41068   0.76807   0.00000  Uiso   1.00
C694   C     0.98317   0.58932   0.89859   0.00000  Uiso   1.00
C695   C     0.74800   0.34402   0.80907   0.00000  Uiso   1.00
C696   C     0.75200   0.65598   0.85760   0.00000  Uiso   1.00
C697   C     0.66456   0.49989   0.83434   0.00000  Uiso   1.00
C698   C     0.83544   0.50011   0.83233   0.00000  Uiso   1.00
C699   C     0.90947   0.54443   0.86466   0.00000  Uiso   1.00
C700   C     0.59053   0.45557   0.80201   0.00000  Uiso   1.00
C701   C     0.88354   0.50084   0.83036   0.00000  Uiso   1.00
C702   C     0.61646   0.49916   0.83630   0.00000  Uiso   1.00
C703   C     0.90341   0.45739   0.79637   0.00000  Uiso   1.00
C704   C     0.59659   0.54261   0.87029   0.00000  Uiso   1.00
C705   C     0.94997   0.45650   0.79798   0.00000  Uiso   1.00
C706   C     0.55003   0.54350   0.86868   0.00000  Uiso   1.00
C707   C     0.97656   0.50046   0.83254   0.00000  Uiso   1.00
C708   C     0.52344   0.49954   0.83413   0.00000  Uiso   1.00
C709   C     0.95623   0.54524   0.86550   0.00000  Uiso   1.00
C710   C     0.54377   0.45476   0.80117   0.00000  Uiso   1.00
C711   C     0.97024   0.41201   0.76641   0.00000  Uiso   1.00
C712   C     0.52976   0.58799   0.90026   0.00000  Uiso   1.00
Cu713  Cu    0.75501   0.50579   0.89479   0.00000  Uiso   1.00
Cu714  Cu    0.74500   0.49421   0.77187   0.00000  Uiso   1.00
H715   H     0.89268   0.57739   0.89034   0.00000  Uiso   1.00
H716   H     0.60732   0.42261   0.77633   0.00000  Uiso   1.00
H717   H     0.88257   0.42378   0.77039   0.00000  Uiso   1.00
H718   H     0.61743   0.57622   0.89628   0.00000  Uiso   1.00
H719   H     0.94980   0.37798   0.74076   0.00000  Uiso   1.00
H720   H     0.55020   0.62202   0.92590   0.00000  Uiso   1.00
H721   H     0.74423   0.65363   0.76225   0.00000  Uiso   1.00
H722   H     0.75577   0.34637   0.90442   0.00000  Uiso   1.00
H723   H     0.71512   0.45936   0.98298   0.00000  Uiso   1.00
H724   H     0.78488   0.54064   0.68368   0.00000  Uiso   1.00
N725   N     0.73745   0.48547   0.67951   0.00000  Uiso   1.00
N726   N     0.76256   0.51453   0.98716   0.00000  Uiso   1.00
O727   O     0.75326   0.42871   0.87326   0.00000  Uiso   1.00
O728   O     0.74675   0.57129   0.79341   0.00000  Uiso   1.00
O729   O     0.74480   0.41892   0.76945   0.00000  Uiso   1.00
O730   O     0.75520   0.58108   0.89721   0.00000  Uiso   1.00
O731   O     0.68936   0.50488   0.88524   0.00000  Uiso   1.00
O732   O     0.81065   0.49512   0.78143   0.00000  Uiso   1.00
O733   O     0.68090   0.49510   0.78143   0.00000  Uiso   1.00
O734   O     0.81910   0.50490   0.88523   0.00000  Uiso   1.00
Cl735  Cl    0.53993   0.35245   0.72925   0.00000  Uiso   1.00
Cl736  Cl    0.96007   0.64755   0.93742   0.00000  Uiso   1.00
C737   C     0.24866   0.73329   0.81782   0.00000  Uiso   1.00
C738   C     0.25134   0.93338   0.84885   0.00000  Uiso   1.00
C739   C     0.01683   0.74402   0.76807   0.00000  Uiso   1.00
C740   C     0.48317   0.92265   0.89859   0.00000  Uiso   1.00
C741   C     0.24800   0.67735   0.80907   0.00000  Uiso   1.00
C742   C     0.25200   0.98932   0.85760   0.00000  Uiso   1.00
C743   C     0.16456   0.83323   0.83434   0.00000  Uiso   1.00
C744   C     0.33544   0.83344   0.83233   0.00000  Uiso   1.00
C745   C     0.40947   0.87776   0.86466   0.00000  Uiso   1.00
C746   C     0.09053   0.78891   0.80201   0.00000  Uiso   1.00
C747   C     0.38354   0.83418   0.83036   0.00000  Uiso   1.00
C748   C     0.11646   0.83249   0.83630   0.00000  Uiso   1.00
C749   C     0.40341   0.79073   0.79637   0.00000  Uiso   1.00
C750   C     0.09659   0.87594   0.87029   0.00000  Uiso   1.00
C751   C     0.44997   0.78983   0.79798   0.00000  Uiso   1.00
C752   C     0.05003   0.87684   0.86868   0.00000  Uiso   1.00
C753   C     0.47656   0.83379   0.83254   0.00000  Uiso   1.00
C754   C     0.02344   0.83288   0.83413   0.00000  Uiso   1.00
C755   C     0.45623   0.87857   0.86550   0.00000  Uiso   1.00
C756   C     0.04377   0.78810   0.80117   0.00000  Uiso   1.00
C757   C     0.47024   0.74534   0.76641   0.00000  Uiso   1.00
C758   C     0.02976   0.92133   0.90026   0.00000  Uiso   1.00
Cu759  Cu    0.25501   0.83913   0.89479   0.00000  Uiso   1.00
Cu760  Cu    0.24500   0.82754   0.77187   0.00000  Uiso   1.00
H761   H     0.39268   0.91073   0.89034   0.00000  Uiso   1.00
H762   H     0.10732   0.75594   0.77633   0.00000  Uiso   1.00
H763   H     0.38257   0.75712   0.77039   0.00000  Uiso   1.00
H764   H     0.11743   0.90955   0.89628   0.00000  Uiso   1.00
H765   H     0.44980   0.71131   0.74076   0.00000  Uiso   1.00
H766   H     0.05020   0.95536   0.92590   0.00000  Uiso   1.00
H767   H     0.24423   0.98696   0.76225   0.00000  Uiso   1.00
H768   H     0.25577   0.67971   0.90442   0.00000  Uiso   1.00
H769   H     0.21512   0.79270   0.98298   0.00000  Uiso   1.00
H770   H     0.28488   0.87397   0.68368   0.00000  Uiso   1.00
N771   N     0.23745   0.81881   0.67951   0.00000  Uiso   1.00
N772   N     0.26256   0.84786   0.98716   0.00000  Uiso   1.00
O773   O     0.25326   0.76204   0.87326   0.00000  Uiso   1.00
O774   O     0.24675   0.90462   0.79341   0.00000  Uiso   1.00
O775   O     0.24480   0.75226   0.76945   0.00000  Uiso   1.00
O776   O     0.25520   0.91441   0.89721   0.00000  Uiso   1.00
O777   O     0.18936   0.83821   0.88524   0.00000  Uiso   1.00
O778   O     0.31065   0.82845   0.78143   0.00000  Uiso   1.00
O779   O     0.18090   0.82843   0.78143   0.00000  Uiso   1.00
O780   O     0.31910   0.83824   0.88523   0.00000  Uiso   1.00
Cl781  Cl    0.03993   0.68579   0.72925   0.00000  Uiso   1.00
Cl782  Cl    0.46007   0.98088   0.93742   0.00000  Uiso   1.00
C783   C     0.74866   0.73329   0.81782   0.00000  Uiso   1.00
C784   C     0.75134   0.93338   0.84885   0.00000  Uiso   1.00
C785   C     0.51683   0.74402   0.76807   0.00000  Uiso   1.00
C786   C     0.98317   0.92265   0.89859   0.00000  Uiso   1.00
C787   C     0.74800   0.67735   0.80907   0.00000  Uiso   1.00
C788   C     0.75200   0.98932   0.85760   0.00000  Uiso   1.00
C789   C     0.66456   0.83323   0.83434   0.00000  Uiso   1.00
C790   C     0.83544   0.83344   0.83233   0.00000  Uiso   1.00
C791   C     0.90947   0.87776   0.86466   0.00000  Uiso   1.00
C792   C     0.59053   0.78891   0.80201   0.00000  Uiso   1.00
C793   C     0.88354   0.83418   0.83036   0.00000  Uiso   1.00
C794   C     0.61646   0.83249   0.83630   0.00000  Uiso   1.00
C795   C     0.90341   0.79073   0.79637   0.00000  Uiso   1.00
C796   C     0.59659   0.87594   0.87029   0.00000  Uiso   1.00
C797   C     0.94997   0.78983   0.79798   0.00000  Uiso   1.00
C798   C     0.55003   0.87684   0.86868   0.00000  Uiso   1.00
C799   C     0.97656   0.83379   0.83254   0.00000  Uiso   1.00
C800   C     0.52344   0.83288   0.83413   0.00000  Uiso   1.00
C801   C     0.95623   0.87857   0.86550   0.00000  Uiso   1.00
C802   C     0.54377   0.78810   0.80117   0.00000  Uiso   1.00
C803   C     0.97024   0.74534   0.76641   0.00000  Uiso   1.00
C804   C     0.52976   0.92133   0.90026   0.00000  Uiso   1.00
Cu805  Cu    0.75501   0.83913   0.89479   0.00000  Uiso   1.00
Cu806  Cu    0.74500   0.82754   0.77187   0.00000  Uiso   1.00
H807   H     0.89268   0.91073   0.89034   0.00000  Uiso   1.00
H808   H     0.60732   0.75594   0.77633   0.00000  Uiso   1.00
H809   H     0.88257   0.75712   0.77039   0.00000  Uiso   1.00
H810   H     0.61743   0.90955   0.89628   0.00000  Uiso   1.00
H811   H     0.94980   0.71131   0.74076   0.00000  Uiso   1.00
H812   H     0.55020   0.95536   0.92590   0.00000  Uiso   1.00
H813   H     0.74423   0.98696   0.76225   0.00000  Uiso   1.00
H814   H     0.75577   0.67971   0.90442   0.00000  Uiso   1.00
H815   H     0.71512   0.79270   0.98298   0.00000  Uiso   1.00
H816   H     0.78488   0.87397   0.68368   0.00000  Uiso   1.00
N817   N     0.73745   0.81881   0.67951   0.00000  Uiso   1.00
N818   N     0.76256   0.84786   0.98716   0.00000  Uiso   1.00
O819   O     0.75326   0.76204   0.87326   0.00000  Uiso   1.00
O820   O     0.74675   0.90462   0.79341   0.00000  Uiso   1.00
O821   O     0.74480   0.75226   0.76945   0.00000  Uiso   1.00
O822   O     0.75520   0.91441   0.89721   0.00000  Uiso   1.00
O823   O     0.68936   0.83821   0.88524   0.00000  Uiso   1.00
O824   O     0.81065   0.82845   0.78143   0.00000  Uiso   1.00
O825   O     0.68090   0.82843   0.78143   0.00000  Uiso   1.00
O826   O     0.81910   0.83824   0.88523   0.00000  Uiso   1.00
Cl827  Cl    0.53993   0.68579   0.72925   0.00000  Uiso   1.00
Cl828  Cl    0.96007   0.98088   0.93742   0.00000  Uiso   1.00
loop_
_geom_bond_atom_site_label_1
_geom_bond_atom_site_label_2
_geom_bond_distance
_geom_bond_site_symmetry_2
_ccdc_geom_bond_type
C1     O37     1.294   .     A
C1     C5      1.425   .     S
C1     O39     1.285   .     A
C2     O38     1.294   .     A
C2     C6      1.425   .     S
C2     O40     1.285   .     A
C3     C20     1.410   .     A
C3     Cl45    1.763   .     S
C3     C67     1.395   1_455 S
C4     Cl46    1.763   .     S
C4     C19     1.410   .     A
C4     C68     1.395   .     S
C5     C190    1.325   1_545 S
C5     H215    1.088   1_545 S
C6     C97     1.325   .     S
C6     H124    1.088   .     S
C7     O43     1.293   .     A
C7     O41     1.295   .     A
C7     C12     1.443   .     S
C8     C11     1.443   .     S
C8     O42     1.295   .     A
C8     O44     1.293   .     A
C9     C11     1.395   .     A
C9     H25     1.083   .     S
C9     C19     1.398   .     A
C10    H26     1.083   .     S
C10    C12     1.395   .     A
C10    C20     1.398   .     A
C11    C13     1.394   .     A
C12    C14     1.394   .     A
C13    C15     1.393   .     A
C13    H27     1.085   .     S
C14    H28     1.085   .     S
C14    C16     1.393   .     A
C15    C21     1.399   .     A
C15    C17     1.413   .     A
C16    C18     1.413   .     A
C16    C22     1.399   .     A
C17    C19     1.417   .     A
C17    C64     1.403   .     S
C18    C20     1.417   .     A
C18    C63     1.403   1_455 S
C21    H29     1.084   .     S
C21    C49     1.395   .     S
C22    H30     1.084   .     S
C22    C50     1.395   1_455 S
Cu23   Cu24    2.693   .     S
Cu23   O41     1.961   .     S
Cu23   O40     1.949   .     S
Cu23   N36     2.023   .     S
Cu23   O37     1.956   .     S
Cu23   O44     1.945   .     S
Cu24   O38     1.956   .     S
Cu24   N35     2.023   .     S
Cu24   O39     1.949   .     S
Cu24   O42     1.961   .     S
Cu24   O43     1.945   .     S
H31    C97     1.088   .     S
H32    C190    1.088   1_545 S
H33    N311    1.029   .     S
H34    N588    1.029   1_554 S
N35    H585    1.029   1_554 S
N35    N588    1.293   1_554 S
N36    N311    1.293   .     S
N36    H310    1.029   .     S
C47    O83     1.294   .     A
C47    C51     1.425   .     S
C47    O85     1.285   .     A
C48    O84     1.294   .     A
C48    C52     1.425   .     S
C48    O86     1.285   .     A
C49    C66     1.410   .     A
C49    Cl91    1.763   .     S
C50    Cl92    1.763   .     S
C50    C65     1.410   .     A
C50    C22     1.395   1_655 S
C51    C236    1.325   1_545 S
C51    H261    1.088   1_545 S
C52    C143    1.325   .     S
C52    H170    1.088   .     S
C53    O89     1.293   .     A
C53    O87     1.295   .     A
C53    C58     1.443   .     S
C54    C57     1.443   .     S
C54    O88     1.295   .     A
C54    O90     1.293   .     A
C55    C57     1.395   .     A
C55    H71     1.083   .     S
C55    C65     1.398   .     A
C56    H72     1.083   .     S
C56    C58     1.395   .     A
C56    C66     1.398   .     A
C57    C59     1.394   .     A
C58    C60     1.394   .     A
C59    C61     1.393   .     A
C59    H73     1.085   .     S
C60    H74     1.085   .     S
C60    C62     1.393   .     A
C61    C67     1.399   .     A
C61    C63     1.413   .     A
C62    C64     1.413   .     A
C62    C68     1.399   .     A
C63    C65     1.417   .     A
C63    C18     1.403   1_655 S
C64    C66     1.417   .     A
C67    H75     1.084   .     S
C67    C3      1.395   1_655 S
C68    H76     1.084   .     S
Cu69   Cu70    2.693   .     S
Cu69   O87     1.961   .     S
Cu69   O86     1.949   .     S
Cu69   N82     2.023   .     S
Cu69   O83     1.956   .     S
Cu69   O90     1.945   .     S
Cu70   O84     1.956   .     S
Cu70   N81     2.023   .     S
Cu70   O85     1.949   .     S
Cu70   O88     1.961   .     S
Cu70   O89     1.945   .     S
H77    C143    1.088   .     S
H78    C236    1.088   1_545 S
H79    N357    1.029   .     S
H80    N634    1.029   1_554 S
N81    H631    1.029   1_554 S
N81    N634    1.293   1_554 S
N82    N357    1.293   .     S
N82    H356    1.029   .     S
C93    O129    1.294   .     A
C93    C97     1.425   .     S
C93    O131    1.285   .     A
C94    O130    1.294   .     A
C94    C98     1.425   .     S
C94    O132    1.285   .     A
C95    C112    1.410   .     A
C95    Cl137   1.763   .     S
C95    C159    1.395   1_455 S
C96    Cl138   1.763   .     S
C96    C111    1.410   .     A
C96    C160    1.395   .     S
C98    C189    1.325   .     S
C98    H216    1.088   .     S
C99    O135    1.293   .     A
C99    O133    1.295   .     A
C99    C104    1.443   .     S
C100   C103    1.443   .     S
C100   O134    1.295   .     A
C100   O136    1.293   .     A
C101   C103    1.395   .     A
C101   H117    1.083   .     S
C101   C111    1.398   .     A
C102   H118    1.083   .     S
C102   C104    1.395   .     A
C102   C112    1.398   .     A
C103   C105    1.394   .     A
C104   C106    1.394   .     A
C105   C107    1.393   .     A
C105   H119    1.085   .     S
C106   H120    1.085   .     S
C106   C108    1.393   .     A
C107   C113    1.399   .     A
C107   C109    1.413   .     A
C108   C110    1.413   .     A
C108   C114    1.399   .     A
C109   C111    1.417   .     A
C109   C156    1.403   .     S
C110   C112    1.417   .     A
C110   C155    1.403   1_455 S
C113   H121    1.084   .     S
C113   C141    1.395   .     S
C114   H122    1.084   .     S
C114   C142    1.395   1_455 S
Cu115  Cu116   2.693   .     S
Cu115  O133    1.961   .     S
Cu115  O132    1.949   .     S
Cu115  N128    2.023   .     S
Cu115  O129    1.956   .     S
Cu115  O136    1.945   .     S
Cu116  O130    1.956   .     S
Cu116  N127    2.023   .     S
Cu116  O131    1.949   .     S
Cu116  O134    1.961   .     S
Cu116  O135    1.945   .     S
H123   C189    1.088   .     S
H125   N403    1.029   .     S
H126   N680    1.029   1_554 S
N127   H677    1.029   1_554 S
N127   N680    1.293   1_554 S
N128   N403    1.293   .     S
N128   H402    1.029   .     S
C139   O175    1.294   .     A
C139   C143    1.425   .     S
C139   O177    1.285   .     A
C140   O176    1.294   .     A
C140   C144    1.425   .     S
C140   O178    1.285   .     A
C141   C158    1.410   .     A
C141   Cl183   1.763   .     S
C142   Cl184   1.763   .     S
C142   C157    1.410   .     A
C142   C114    1.395   1_655 S
C144   C235    1.325   .     S
C144   H262    1.088   .     S
C145   O181    1.293   .     A
C145   O179    1.295   .     A
C145   C150    1.443   .     S
C146   C149    1.443   .     S
C146   O180    1.295   .     A
C146   O182    1.293   .     A
C147   C149    1.395   .     A
C147   H163    1.083   .     S
C147   C157    1.398   .     A
C148   H164    1.083   .     S
C148   C150    1.395   .     A
C148   C158    1.398   .     A
C149   C151    1.394   .     A
C150   C152    1.394   .     A
C151   C153    1.393   .     A
C151   H165    1.085   .     S
C152   H166    1.085   .     S
C152   C154    1.393   .     A
C153   C159    1.399   .     A
C153   C155    1.413   .     A
C154   C156    1.413   .     A
C154   C160    1.399   .     A
C155   C157    1.417   .     A
C155   C110    1.403   1_655 S
C156   C158    1.417   .     A
C159   H167    1.084   .     S
C159   C95     1.395   1_655 S
C160   H168    1.084   .     S
Cu161  Cu162   2.693   .     S
Cu161  O179    1.961   .     S
Cu161  O178    1.949   .     S
Cu161  N174    2.023   .     S
Cu161  O175    1.956   .     S
Cu161  O182    1.945   .     S
Cu162  O176    1.956   .     S
Cu162  N173    2.023   .     S
Cu162  O177    1.949   .     S
Cu162  O180    1.961   .     S
Cu162  O181    1.945   .     S
H169   C235    1.088   .     S
H171   N449    1.029   .     S
H172   N726    1.029   1_554 S
N173   H723    1.029   1_554 S
N173   N726    1.293   1_554 S
N174   N449    1.293   .     S
N174   H448    1.029   .     S
C185   O221    1.294   .     A
C185   C189    1.425   .     S
C185   O223    1.285   .     A
C186   O222    1.294   .     A
C186   C190    1.425   .     S
C186   O224    1.285   .     A
C187   C204    1.410   .     A
C187   Cl229   1.763   .     S
C187   C251    1.395   1_455 S
C188   Cl230   1.763   .     S
C188   C203    1.410   .     A
C188   C252    1.395   .     S
C190   C5      1.325   1_565 S
C190   H32     1.088   1_565 S
C191   O227    1.293   .     A
C191   O225    1.295   .     A
C191   C196    1.443   .     S
C192   C195    1.443   .     S
C192   O226    1.295   .     A
C192   O228    1.293   .     A
C193   C195    1.395   .     A
C193   H209    1.083   .     S
C193   C203    1.398   .     A
C194   H210    1.083   .     S
C194   C196    1.395   .     A
C194   C204    1.398   .     A
C195   C197    1.394   .     A
C196   C198    1.394   .     A
C197   C199    1.393   .     A
C197   H211    1.085   .     S
C198   H212    1.085   .     S
C198   C200    1.393   .     A
C199   C205    1.399   .     A
C199   C201    1.413   .     A
C200   C202    1.413   .     A
C200   C206    1.399   .     A
C201   C203    1.417   .     A
C201   C248    1.403   .     S
C202   C204    1.417   .     A
C202   C247    1.403   1_455 S
C205   H213    1.084   .     S
C205   C233    1.395   .     S
C206   H214    1.084   .     S
C206   C234    1.395   1_455 S
Cu207  Cu208   2.693   .     S
Cu207  O225    1.961   .     S
Cu207  O224    1.949   .     S
Cu207  N220    2.023   .     S
Cu207  O221    1.956   .     S
Cu207  O228    1.945   .     S
Cu208  O222    1.956   .     S
Cu208  N219    2.023   .     S
Cu208  O223    1.949   .     S
Cu208  O226    1.961   .     S
Cu208  O227    1.945   .     S
H215   C5      1.088   1_565 S
H217   N495    1.029   .     S
H218   N772    1.029   1_554 S
N219   H769    1.029   1_554 S
N219   N772    1.293   1_554 S
N220   N495    1.293   .     S
N220   H494    1.029   .     S
C231   O267    1.294   .     A
C231   C235    1.425   .     S
C231   O269    1.285   .     A
C232   O268    1.294   .     A
C232   C236    1.425   .     S
C232   O270    1.285   .     A
C233   C250    1.410   .     A
C233   Cl275   1.763   .     S
C234   Cl276   1.763   .     S
C234   C249    1.410   .     A
C234   C206    1.395   1_655 S
C236   C51     1.325   1_565 S
C236   H78     1.088   1_565 S
C237   O273    1.293   .     A
C237   O271    1.295   .     A
C237   C242    1.443   .     S
C238   C241    1.443   .     S
C238   O272    1.295   .     A
C238   O274    1.293   .     A
C239   C241    1.395   .     A
C239   H255    1.083   .     S
C239   C249    1.398   .     A
C240   H256    1.083   .     S
C240   C242    1.395   .     A
C240   C250    1.398   .     A
C241   C243    1.394   .     A
C242   C244    1.394   .     A
C243   C245    1.393   .     A
C243   H257    1.085   .     S
C244   H258    1.085   .     S
C244   C246    1.393   .     A
C245   C251    1.399   .     A
C245   C247    1.413   .     A
C246   C248    1.413   .     A
C246   C252    1.399   .     A
C247   C249    1.417   .     A
C247   C202    1.403   1_655 S
C248   C250    1.417   .     A
C251   H259    1.084   .     S
C251   C187    1.395   1_655 S
C252   H260    1.084   .     S
Cu253  Cu254   2.693   .     S
Cu253  O271    1.961   .     S
Cu253  O270    1.949   .     S
Cu253  N266    2.023   .     S
Cu253  O267    1.956   .     S
Cu253  O274    1.945   .     S
Cu254  O268    1.956   .     S
Cu254  N265    2.023   .     S
Cu254  O269    1.949   .     S
Cu254  O272    1.961   .     S
Cu254  O273    1.945   .     S
H261   C51     1.088   1_565 S
H263   N541    1.029   .     S
H264   N818    1.029   1_554 S
N265   H815    1.029   1_554 S
N265   N818    1.293   1_554 S
N266   N541    1.293   .     S
N266   H540    1.029   .     S
C277   O313    1.294   .     A
C277   C281    1.425   .     S
C277   O315    1.285   .     A
C278   O314    1.294   .     A
C278   C282    1.425   .     S
C278   O316    1.285   .     A
C279   C296    1.410   .     A
C279   Cl321   1.763   .     S
C279   C343    1.395   1_455 S
C280   Cl322   1.763   .     S
C280   C295    1.410   .     A
C280   C344    1.395   .     S
C281   C466    1.325   1_545 S
C281   H491    1.088   1_545 S
C282   C373    1.325   .     S
C282   H400    1.088   .     S
C283   O319    1.293   .     A
C283   O317    1.295   .     A
C283   C288    1.443   .     S
C284   C287    1.443   .     S
C284   O318    1.295   .     A
C284   O320    1.293   .     A
C285   C287    1.395   .     A
C285   H301    1.083   .     S
C285   C295    1.398   .     A
C286   H302    1.083   .     S
C286   C288    1.395   .     A
C286   C296    1.398   .     A
C287   C289    1.394   .     A
C288   C290    1.394   .     A
C289   C291    1.393   .     A
C289   H303    1.085   .     S
C290   H304    1.085   .     S
C290   C292    1.393   .     A
C291   C297    1.399   .     A
C291   C293    1.413   .     A
C292   C294    1.413   .     A
C292   C298    1.399   .     A
C293   C295    1.417   .     A
C293   C340    1.403   .     S
C294   C296    1.417   .     A
C294   C339    1.403   1_455 S
C297   H305    1.084   .     S
C297   C325    1.395   .     S
C298   H306    1.084   .     S
C298   C326    1.395   1_455 S
Cu299  Cu300   2.693   .     S
Cu299  O317    1.961   .     S
Cu299  O316    1.949   .     S
Cu299  N312    2.023   .     S
Cu299  O313    1.956   .     S
Cu299  O320    1.945   .     S
Cu300  O314    1.956   .     S
Cu300  N311    2.023   .     S
Cu300  O315    1.949   .     S
Cu300  O318    1.961   .     S
Cu300  O319    1.945   .     S
H307   C373    1.088   .     S
H308   C466    1.088   1_545 S
H309   N587    1.029   .     S
N312   N587    1.293   .     S
N312   H586    1.029   .     S
C323   O359    1.294   .     A
C323   C327    1.425   .     S
C323   O361    1.285   .     A
C324   O360    1.294   .     A
C324   C328    1.425   .     S
C324   O362    1.285   .     A
C325   C342    1.410   .     A
C325   Cl367   1.763   .     S
C326   Cl368   1.763   .     S
C326   C341    1.410   .     A
C326   C298    1.395   1_655 S
C327   C512    1.325   1_545 S
C327   H537    1.088   1_545 S
C328   C419    1.325   .     S
C328   H446    1.088   .     S
C329   O365    1.293   .     A
C329   O363    1.295   .     A
C329   C334    1.443   .     S
C330   C333    1.443   .     S
C330   O364    1.295   .     A
C330   O366    1.293   .     A
C331   C333    1.395   .     A
C331   H347    1.083   .     S
C331   C341    1.398   .     A
C332   H348    1.083   .     S
C332   C334    1.395   .     A
C332   C342    1.398   .     A
C333   C335    1.394   .     A
C334   C336    1.394   .     A
C335   C337    1.393   .     A
C335   H349    1.085   .     S
C336   H350    1.085   .     S
C336   C338    1.393   .     A
C337   C343    1.399   .     A
C337   C339    1.413   .     A
C338   C340    1.413   .     A
C338   C344    1.399   .     A
C339   C341    1.417   .     A
C339   C294    1.403   1_655 S
C340   C342    1.417   .     A
C343   H351    1.084   .     S
C343   C279    1.395   1_655 S
C344   H352    1.084   .     S
Cu345  Cu346   2.693   .     S
Cu345  O363    1.961   .     S
Cu345  O362    1.949   .     S
Cu345  N358    2.023   .     S
Cu345  O359    1.956   .     S
Cu345  O366    1.945   .     S
Cu346  O360    1.956   .     S
Cu346  N357    2.023   .     S
Cu346  O361    1.949   .     S
Cu346  O364    1.961   .     S
Cu346  O365    1.945   .     S
H353   C419    1.088   .     S
H354   C512    1.088   1_545 S
H355   N633    1.029   .     S
N358   N633    1.293   .     S
N358   H632    1.029   .     S
C369   O405    1.294   .     A
C369   C373    1.425   .     S
C369   O407    1.285   .     A
C370   O406    1.294   .     A
C370   C374    1.425   .     S
C370   O408    1.285   .     A
C371   C388    1.410   .     A
C371   Cl413   1.763   .     S
C371   C435    1.395   1_455 S
C372   Cl414   1.763   .     S
C372   C387    1.410   .     A
C372   C436    1.395   .     S
C374   C465    1.325   .     S
C374   H492    1.088   .     S
C375   O411    1.293   .     A
C375   O409    1.295   .     A
C375   C380    1.443   .     S
C376   C379    1.443   .     S
C376   O410    1.295   .     A
C376   O412    1.293   .     A
C377   C379    1.395   .     A
C377   H393    1.083   .     S
C377   C387    1.398   .     A
C378   H394    1.083   .     S
C378   C380    1.395   .     A
C378   C388    1.398   .     A
C379   C381    1.394   .     A
C380   C382    1.394   .     A
C381   C383    1.393   .     A
C381   H395    1.085   .     S
C382   H396    1.085   .     S
C382   C384    1.393   .     A
C383   C389    1.399   .     A
C383   C385    1.413   .     A
C384   C386    1.413   .     A
C384   C390    1.399   .     A
C385   C387    1.417   .     A
C385   C432    1.403   .     S
C386   C388    1.417   .     A
C386   C431    1.403   1_455 S
C389   H397    1.084   .     S
C389   C417    1.395   .     S
C390   H398    1.084   .     S
C390   C418    1.395   1_455 S
Cu391  Cu392   2.693   .     S
Cu391  O409    1.961   .     S
Cu391  O408    1.949   .     S
Cu391  N404    2.023   .     S
Cu391  O405    1.956   .     S
Cu391  O412    1.945   .     S
Cu392  O406    1.956   .     S
Cu392  N403    2.023   .     S
Cu392  O407    1.949   .     S
Cu392  O410    1.961   .     S
Cu392  O411    1.945   .     S
H399   C465    1.088   .     S
H401   N679    1.029   .     S
N404   N679    1.293   .     S
N404   H678    1.029   .     S
C415   O451    1.294   .     A
C415   C419    1.425   .     S
C415   O453    1.285   .     A
C416   O452    1.294   .     A
C416   C420    1.425   .     S
C416   O454    1.285   .     A
C417   C434    1.410   .     A
C417   Cl459   1.763   .     S
C418   Cl460   1.763   .     S
C418   C433    1.410   .     A
C418   C390    1.395   1_655 S
C420   C511    1.325   .     S
C420   H538    1.088   .     S
C421   O457    1.293   .     A
C421   O455    1.295   .     A
C421   C426    1.443   .     S
C422   C425    1.443   .     S
C422   O456    1.295   .     A
C422   O458    1.293   .     A
C423   C425    1.395   .     A
C423   H439    1.083   .     S
C423   C433    1.398   .     A
C424   H440    1.083   .     S
C424   C426    1.395   .     A
C424   C434    1.398   .     A
C425   C427    1.394   .     A
C426   C428    1.394   .     A
C427   C429    1.393   .     A
C427   H441    1.085   .     S
C428   H442    1.085   .     S
C428   C430    1.393   .     A
C429   C435    1.399   .     A
C429   C431    1.413   .     A
C430   C432    1.413   .     A
C430   C436    1.399   .     A
C431   C433    1.417   .     A
C431   C386    1.403   1_655 S
C432   C434    1.417   .     A
C435   H443    1.084   .     S
C435   C371    1.395   1_655 S
C436   H444    1.084   .     S
Cu437  Cu438   2.693   .     S
Cu437  O455    1.961   .     S
Cu437  O454    1.949   .     S
Cu437  N450    2.023   .     S
Cu437  O451    1.956   .     S
Cu437  O458    1.945   .     S
Cu438  O452    1.956   .     S
Cu438  N449    2.023   .     S
Cu438  O453    1.949   .     S
Cu438  O456    1.961   .     S
Cu438  O457    1.945   .     S
H445   C511    1.088   .     S
H447   N725    1.029   .     S
N450   N725    1.293   .     S
N450   H724    1.029   .     S
C461   O497    1.294   .     A
C461   C465    1.425   .     S
C461   O499    1.285   .     A
C462   O498    1.294   .     A
C462   C466    1.425   .     S
C462   O500    1.285   .     A
C463   C480    1.410   .     A
C463   Cl505   1.763   .     S
C463   C527    1.395   1_455 S
C464   Cl506   1.763   .     S
C464   C479    1.410   .     A
C464   C528    1.395   .     S
C466   C281    1.325   1_565 S
C466   H308    1.088   1_565 S
C467   O503    1.293   .     A
C467   O501    1.295   .     A
C467   C472    1.443   .     S
C468   C471    1.443   .     S
C468   O502    1.295   .     A
C468   O504    1.293   .     A
C469   C471    1.395   .     A
C469   H485    1.083   .     S
C469   C479    1.398   .     A
C470   H486    1.083   .     S
C470   C472    1.395   .     A
C470   C480    1.398   .     A
C471   C473    1.394   .     A
C472   C474    1.394   .     A
C473   C475    1.393   .     A
C473   H487    1.085   .     S
C474   H488    1.085   .     S
C474   C476    1.393   .     A
C475   C481    1.399   .     A
C475   C477    1.413   .     A
C476   C478    1.413   .     A
C476   C482    1.399   .     A
C477   C479    1.417   .     A
C477   C524    1.403   .     S
C478   C480    1.417   .     A
C478   C523    1.403   1_455 S
C481   H489    1.084   .     S
C481   C509    1.395   .     S
C482   H490    1.084   .     S
C482   C510    1.395   1_455 S
Cu483  Cu484   2.693   .     S
Cu483  O501    1.961   .     S
Cu483  O500    1.949   .     S
Cu483  N496    2.023   .     S
Cu483  O497    1.956   .     S
Cu483  O504    1.945   .     S
Cu484  O498    1.956   .     S
Cu484  N495    2.023   .     S
Cu484  O499    1.949   .     S
Cu484  O502    1.961   .     S
Cu484  O503    1.945   .     S
H491   C281    1.088   1_565 S
H493   N771    1.029   .     S
N496   N771    1.293   .     S
N496   H770    1.029   .     S
C507   O543    1.294   .     A
C507   C511    1.425   .     S
C507   O545    1.285   .     A
C508   O544    1.294   .     A
C508   C512    1.425   .     S
C508   O546    1.285   .     A
C509   C526    1.410   .     A
C509   Cl551   1.763   .     S
C510   Cl552   1.763   .     S
C510   C525    1.410   .     A
C510   C482    1.395   1_655 S
C512   C327    1.325   1_565 S
C512   H354    1.088   1_565 S
C513   O549    1.293   .     A
C513   O547    1.295   .     A
C513   C518    1.443   .     S
C514   C517    1.443   .     S
C514   O548    1.295   .     A
C514   O550    1.293   .     A
C515   C517    1.395   .     A
C515   H531    1.083   .     S
C515   C525    1.398   .     A
C516   H532    1.083   .     S
C516   C518    1.395   .     A
C516   C526    1.398   .     A
C517   C519    1.394   .     A
C518   C520    1.394   .     A
C519   C521    1.393   .     A
C519   H533    1.085   .     S
C520   H534    1.085   .     S
C520   C522    1.393   .     A
C521   C527    1.399   .     A
C521   C523    1.413   .     A
C522   C524    1.413   .     A
C522   C528    1.399   .     A
C523   C525    1.417   .     A
C523   C478    1.403   1_655 S
C524   C526    1.417   .     A
C527   H535    1.084   .     S
C527   C463    1.395   1_655 S
C528   H536    1.084   .     S
Cu529  Cu530   2.693   .     S
Cu529  O547    1.961   .     S
Cu529  O546    1.949   .     S
Cu529  N542    2.023   .     S
Cu529  O543    1.956   .     S
Cu529  O550    1.945   .     S
Cu530  O544    1.956   .     S
Cu530  N541    2.023   .     S
Cu530  O545    1.949   .     S
Cu530  O548    1.961   .     S
Cu530  O549    1.945   .     S
H537   C327    1.088   1_565 S
H539   N817    1.029   .     S
N542   N817    1.293   .     S
N542   H816    1.029   .     S
C553   O589    1.294   .     A
C553   C557    1.425   .     S
C553   O591    1.285   .     A
C554   O590    1.294   .     A
C554   C558    1.425   .     S
C554   O592    1.285   .     A
C555   C572    1.410   .     A
C555   Cl597   1.763   .     S
C555   C619    1.395   1_455 S
C556   Cl598   1.763   .     S
C556   C571    1.410   .     A
C556   C620    1.395   .     S
C557   C742    1.325   1_545 S
C557   H767    1.088   1_545 S
C558   C649    1.325   .     S
C558   H676    1.088   .     S
C559   O595    1.293   .     A
C559   O593    1.295   .     A
C559   C564    1.443   .     S
C560   C563    1.443   .     S
C560   O594    1.295   .     A
C560   O596    1.293   .     A
C561   C563    1.395   .     A
C561   H577    1.083   .     S
C561   C571    1.398   .     A
C562   H578    1.083   .     S
C562   C564    1.395   .     A
C562   C572    1.398   .     A
C563   C565    1.394   .     A
C564   C566    1.394   .     A
C565   C567    1.393   .     A
C565   H579    1.085   .     S
C566   H580    1.085   .     S
C566   C568    1.393   .     A
C567   C573    1.399   .     A
C567   C569    1.413   .     A
C568   C570    1.413   .     A
C568   C574    1.399   .     A
C569   C571    1.417   .     A
C569   C616    1.403   .     S
C570   C572    1.417   .     A
C570   C615    1.403   1_455 S
C573   H581    1.084   .     S
C573   C601    1.395   .     S
C574   H582    1.084   .     S
C574   C602    1.395   1_455 S
Cu575  Cu576   2.693   .     S
Cu575  O593    1.961   .     S
Cu575  O592    1.949   .     S
Cu575  N588    2.023   .     S
Cu575  O589    1.956   .     S
Cu575  O596    1.945   .     S
Cu576  O590    1.956   .     S
Cu576  N587    2.023   .     S
Cu576  O591    1.949   .     S
Cu576  O594    1.961   .     S
Cu576  O595    1.945   .     S
H583   C649    1.088   .     S
H584   C742    1.088   1_545 S
H585   N35     1.029   1_556 S
N588   N35     1.293   1_556 S
N588   H34     1.029   1_556 S
C599   O635    1.294   .     A
C599   C603    1.425   .     S
C599   O637    1.285   .     A
C600   O636    1.294   .     A
C600   C604    1.425   .     S
C600   O638    1.285   .     A
C601   C618    1.410   .     A
C601   Cl643   1.763   .     S
C602   Cl644   1.763   .     S
C602   C617    1.410   .     A
C602   C574    1.395   1_655 S
C603   C788    1.325   1_545 S
C603   H813    1.088   1_545 S
C604   C695    1.325   .     S
C604   H722    1.088   .     S
C605   O641    1.293   .     A
C605   O639    1.295   .     A
C605   C610    1.443   .     S
C606   C609    1.443   .     S
C606   O640    1.295   .     A
C606   O642    1.293   .     A
C607   C609    1.395   .     A
C607   H623    1.083   .     S
C607   C617    1.398   .     A
C608   H624    1.083   .     S
C608   C610    1.395   .     A
C608   C618    1.398   .     A
C609   C611    1.394   .     A
C610   C612    1.394   .     A
C611   C613    1.393   .     A
C611   H625    1.085   .     S
C612   H626    1.085   .     S
C612   C614    1.393   .     A
C613   C619    1.399   .     A
C613   C615    1.413   .     A
C614   C616    1.413   .     A
C614   C620    1.399   .     A
C615   C617    1.417   .     A
C615   C570    1.403   1_655 S
C616   C618    1.417   .     A
C619   H627    1.084   .     S
C619   C555    1.395   1_655 S
C620   H628    1.084   .     S
Cu621  Cu622   2.693   .     S
Cu621  O639    1.961   .     S
Cu621  O638    1.949   .     S
Cu621  N634    2.023   .     S
Cu621  O635    1.956   .     S
Cu621  O642    1.945   .     S
Cu622  O636    1.956   .     S
Cu622  N633    2.023   .     S
Cu622  O637    1.949   .     S
Cu622  O640    1.961   .     S
Cu622  O641    1.945   .     S
H629   C695    1.088   .     S
H630   C788    1.088   1_545 S
H631   N81     1.029   1_556 S
N634   N81     1.293   1_556 S
N634   H80     1.029   1_556 S
C645   O681    1.294   .     A
C645   C649    1.425   .     S
C645   O683    1.285   .     A
C646   O682    1.294   .     A
C646   C650    1.425   .     S
C646   O684    1.285   .     A
C647   C664    1.410   .     A
C647   Cl689   1.763   .     S
C647   C711    1.395   1_455 S
C648   Cl690   1.763   .     S
C648   C663    1.410   .     A
C648   C712    1.395   .     S
C650   C741    1.325   .     S
C650   H768    1.088   .     S
C651   O687    1.293   .     A
C651   O685    1.295   .     A
C651   C656    1.443   .     S
C652   C655    1.443   .     S
C652   O686    1.295   .     A
C652   O688    1.293   .     A
C653   C655    1.395   .     A
C653   H669    1.083   .     S
C653   C663    1.398   .     A
C654   H670    1.083   .     S
C654   C656    1.395   .     A
C654   C664    1.398   .     A
C655   C657    1.394   .     A
C656   C658    1.394   .     A
C657   C659    1.393   .     A
C657   H671    1.085   .     S
C658   H672    1.085   .     S
C658   C660    1.393   .     A
C659   C665    1.399   .     A
C659   C661    1.413   .     A
C660   C662    1.413   .     A
C660   C666    1.399   .     A
C661   C663    1.417   .     A
C661   C708    1.403   .     S
C662   C664    1.417   .     A
C662   C707    1.403   1_455 S
C665   H673    1.084   .     S
C665   C693    1.395   .     S
C666   H674    1.084   .     S
C666   C694    1.395   1_455 S
Cu667  Cu668   2.693   .     S
Cu667  O685    1.961   .     S
Cu667  O684    1.949   .     S
Cu667  N680    2.023   .     S
Cu667  O681    1.956   .     S
Cu667  O688    1.945   .     S
Cu668  O682    1.956   .     S
Cu668  N679    2.023   .     S
Cu668  O683    1.949   .     S
Cu668  O686    1.961   .     S
Cu668  O687    1.945   .     S
H675   C741    1.088   .     S
H677   N127    1.029   1_556 S
N680   N127    1.293   1_556 S
N680   H126    1.029   1_556 S
C691   O727    1.294   .     A
C691   C695    1.425   .     S
C691   O729    1.285   .     A
C692   O728    1.294   .     A
C692   C696    1.425   .     S
C692   O730    1.285   .     A
C693   C710    1.410   .     A
C693   Cl735   1.763   .     S
C694   Cl736   1.763   .     S
C694   C709    1.410   .     A
C694   C666    1.395   1_655 S
C696   C787    1.325   .     S
C696   H814    1.088   .     S
C697   O733    1.293   .     A
C697   O731    1.295   .     A
C697   C702    1.443   .     S
C698   C701    1.443   .     S
C698   O732    1.295   .     A
C698   O734    1.293   .     A
C699   C701    1.395   .     A
C699   H715    1.083   .     S
C699   C709    1.398   .     A
C700   H716    1.083   .     S
C700   C702    1.395   .     A
C700   C710    1.398   .     A
C701   C703    1.394   .     A
C702   C704    1.394   .     A
C703   C705    1.393   .     A
C703   H717    1.085   .     S
C704   H718    1.085   .     S
C704   C706    1.393   .     A
C705   C711    1.399   .     A
C705   C707    1.413   .     A
C706   C708    1.413   .     A
C706   C712    1.399   .     A
C707   C709    1.417   .     A
C707   C662    1.403   1_655 S
C708   C710    1.417   .     A
C711   H719    1.084   .     S
C711   C647    1.395   1_655 S
C712   H720    1.084   .     S
Cu713  Cu714   2.693   .     S
Cu713  O731    1.961   .     S
Cu713  O730    1.949   .     S
Cu713  N726    2.023   .     S
Cu713  O727    1.956   .     S
Cu713  O734    1.945   .     S
Cu714  O728    1.956   .     S
Cu714  N725    2.023   .     S
Cu714  O729    1.949   .     S
Cu714  O732    1.961   .     S
Cu714  O733    1.945   .     S
H721   C787    1.088   .     S
H723   N173    1.029   1_556 S
N726   N173    1.293   1_556 S
N726   H172    1.029   1_556 S
C737   O773    1.294   .     A
C737   C741    1.425   .     S
C737   O775    1.285   .     A
C738   O774    1.294   .     A
C738   C742    1.425   .     S
C738   O776    1.285   .     A
C739   C756    1.410   .     A
C739   Cl781   1.763   .     S
C739   C803    1.395   1_455 S
C740   Cl782   1.763   .     S
C740   C755    1.410   .     A
C740   C804    1.395   .     S
C742   C557    1.325   1_565 S
C742   H584    1.088   1_565 S
C743   O779    1.293   .     A
C743   O777    1.295   .     A
C743   C748    1.443   .     S
C744   C747    1.443   .     S
C744   O778    1.295   .     A
C744   O780    1.293   .     A
C745   C747    1.395   .     A
C745   H761    1.083   .     S
C745   C755    1.398   .     A
C746   H762    1.083   .     S
C746   C748    1.395   .     A
C746   C756    1.398   .     A
C747   C749    1.394   .     A
C748   C750    1.394   .     A
C749   C751    1.393   .     A
C749   H763    1.085   .     S
C750   H764    1.085   .     S
C750   C752    1.393   .     A
C751   C757    1.399   .     A
C751   C753    1.413   .     A
C752   C754    1.413   .     A
C752   C758    1.399   .     A
C753   C755    1.417   .     A
C753   C800    1.403   .     S
C754   C756    1.417   .     A
C754   C799    1.403   1_455 S
C757   H765    1.084   .     S
C757   C785    1.395   .     S
C758   H766    1.084   .     S
C758   C786    1.395   1_455 S
Cu759  Cu760   2.693   .     S
Cu759  O777    1.961   .     S
Cu759  O776    1.949   .     S
Cu759  N772    2.023   .     S
Cu759  O773    1.956   .     S
Cu759  O780    1.945   .     S
Cu760  O774    1.956   .     S
Cu760  N771    2.023   .     S
Cu760  O775    1.949   .     S
Cu760  O778    1.961   .     S
Cu760  O779    1.945   .     S
H767   C557    1.088   1_565 S
H769   N219    1.029   1_556 S
N772   N219    1.293   1_556 S
N772   H218    1.029   1_556 S
C783   O819    1.294   .     A
C783   C787    1.425   .     S
C783   O821    1.285   .     A
C784   O820    1.294   .     A
C784   C788    1.425   .     S
C784   O822    1.285   .     A
C785   C802    1.410   .     A
C785   Cl827   1.763   .     S
C786   Cl828   1.763   .     S
C786   C801    1.410   .     A
C786   C758    1.395   1_655 S
C788   C603    1.325   1_565 S
C788   H630    1.088   1_565 S
C789   O825    1.293   .     A
C789   O823    1.295   .     A
C789   C794    1.443   .     S
C790   C793    1.443   .     S
C790   O824    1.295   .     A
C790   O826    1.293   .     A
C791   C793    1.395   .     A
C791   H807    1.083   .     S
C791   C801    1.398   .     A
C792   H808    1.083   .     S
C792   C794    1.395   .     A
C792   C802    1.398   .     A
C793   C795    1.394   .     A
C794   C796    1.394   .     A
C795   C797    1.393   .     A
C795   H809    1.085   .     S
C796   H810    1.085   .     S
C796   C798    1.393   .     A
C797   C803    1.399   .     A
C797   C799    1.413   .     A
C798   C800    1.413   .     A
C798   C804    1.399   .     A
C799   C801    1.417   .     A
C799   C754    1.403   1_655 S
C800   C802    1.417   .     A
C803   H811    1.084   .     S
C803   C739    1.395   1_655 S
C804   H812    1.084   .     S
Cu805  Cu806   2.693   .     S
Cu805  O823    1.961   .     S
Cu805  O822    1.949   .     S
Cu805  N818    2.023   .     S
Cu805  O819    1.956   .     S
Cu805  O826    1.945   .     S
Cu806  O820    1.956   .     S
Cu806  N817    2.023   .     S
Cu806  O821    1.949   .     S
Cu806  O824    1.961   .     S
Cu806  O825    1.945   .     S
H813   C603    1.088   1_565 S
H815   N265    1.029   1_556 S
N818   N265    1.293   1_556 S
N818   H264    1.029   1_556 S
