data_str_m3_o2_o10_pcu_sym.70
_audit_creation_date              2020-01-03
_audit_creation_method            'Materials Studio'
_symmetry_space_group_name_H-M    'P1'
_symmetry_Int_Tables_number       1
_symmetry_cell_setting            triclinic
loop_
_symmetry_equiv_pos_as_xyz
  x,y,z
_cell_length_a                    25.8784
_cell_length_b                    29.8535
_cell_length_c                    28.2733
_cell_angle_alpha                 89.7645
_cell_angle_beta                  97.8454
_cell_angle_gamma                 90.3398
loop_
_atom_site_label
_atom_site_type_symbol
_atom_site_fract_x
_atom_site_fract_y
_atom_site_fract_z
_atom_site_U_iso_or_equiv
_atom_site_adp_type
_atom_site_occupancy
C1     C     0.16820   0.16379   0.25031   0.00000  Uiso   1.00
C2     C     0.13735   0.22024   0.44465   0.00000  Uiso   1.00
C3     C     0.16462   0.25240   0.02627   0.00000  Uiso   1.00
C4     C     0.16580   0.25295   0.47314   0.00000  Uiso   1.00
C5     C     0.06730   0.24881   0.23803   0.00000  Uiso   1.00
C6     C     0.26606   0.25021   0.26217   0.00000  Uiso   1.00
C7     C     0.01314   0.24155   0.23295   0.00000  Uiso   1.00
C8     C     0.32042   0.25519   0.26833   0.00000  Uiso   1.00
C9     C     0.20911   0.04892   0.29206   0.00000  Uiso   1.00
C10    C     0.20670   0.45189   0.21684   0.00000  Uiso   1.00
C11    C     0.20361   0.09509   0.29186   0.00000  Uiso   1.00
C12    C     0.16833   0.33627   0.25007   0.00000  Uiso   1.00
C13    C     0.20108   0.40569   0.21555   0.00000  Uiso   1.00
C14    C     0.17589   0.11603   0.25134   0.00000  Uiso   1.00
C15    C     0.17598   0.38418   0.25082   0.00000  Uiso   1.00
C16    C     0.15762   0.09126   0.21055   0.00000  Uiso   1.00
C17    C     0.16037   0.40861   0.28852   0.00000  Uiso   1.00
C18    C     0.16435   0.04546   0.21071   0.00000  Uiso   1.00
C19    C     0.16720   0.45449   0.29003   0.00000  Uiso   1.00
C20    C     0.18919   0.02431   0.25173   0.00000  Uiso   1.00
C21    C     0.18942   0.47609   0.25372   0.00000  Uiso   1.00
C22    C     0.00330   0.17333   0.19638   0.00000  Uiso   1.00
C23    C     0.11990   0.26461   0.04736   0.00000  Uiso   1.00
C24    C     0.29931   0.14615   0.16127   0.00000  Uiso   1.00
C25    C     0.00826   0.31923   0.31068   0.00000  Uiso   1.00
C26    C     0.03976   0.33774   0.35578   0.00000  Uiso   1.00
C27    C     0.27461   0.13308   0.32724   0.00000  Uiso   1.00
C28    C     0.29596   0.16164   0.37001   0.00000  Uiso   1.00
C29    C     0.27098   0.37090   0.19222   0.00000  Uiso   1.00
C30    C     0.29022   0.34387   0.15269   0.00000  Uiso   1.00
C31    C     0.07041   0.27970   0.01888   0.00000  Uiso   1.00
C32    C     0.22507   0.32214   0.47625   0.00000  Uiso   1.00
C33    C     0.19523   0.28484   0.45021   0.00000  Uiso   1.00
C34    C     0.12252   0.26305   0.09769   0.00000  Uiso   1.00
C35    C     0.19506   0.28193   0.40022   0.00000  Uiso   1.00
C36    C     0.20949   0.23770   0.10640   0.00000  Uiso   1.00
C37    C     0.13803   0.21949   0.39508   0.00000  Uiso   1.00
C38    C     0.20931   0.23875   0.05673   0.00000  Uiso   1.00
H39    H     0.22850   0.03229   0.32369   0.00000  Uiso   1.00
H40    H     0.11550   0.19447   0.37355   0.00000  Uiso   1.00
H41    H     0.24410   0.22900   0.04205   0.00000  Uiso   1.00
H42    H     0.11447   0.19543   0.46080   0.00000  Uiso   1.00
H43    H     0.00132   0.15950   0.23282   0.00000  Uiso   1.00
H44    H     0.04352   0.16895   0.18744   0.00000  Uiso   1.00
H45    H     0.30093   0.15814   0.12426   0.00000  Uiso   1.00
H46    H     0.31042   0.11026   0.16372   0.00000  Uiso   1.00
H47    H     0.25885   0.14945   0.16978   0.00000  Uiso   1.00
H48    H     0.30041   0.33023   0.30968   0.00000  Uiso   1.00
H49    H     0.02484   0.33342   0.27941   0.00000  Uiso   1.00
H50    H     0.22400   0.46890   0.18885   0.00000  Uiso   1.00
H51    H     0.08106   0.32702   0.35803   0.00000  Uiso   1.00
H52    H     0.03831   0.37491   0.35523   0.00000  Uiso   1.00
H53    H     0.02332   0.32527   0.38768   0.00000  Uiso   1.00
H54    H     0.27525   0.15372   0.29441   0.00000  Uiso   1.00
H55    H     0.30064   0.10365   0.32591   0.00000  Uiso   1.00
H56    H     0.29810   0.14148   0.40330   0.00000  Uiso   1.00
H57    H     0.00235   0.17395   0.36582   0.00000  Uiso   1.00
H58    H     0.27022   0.19087   0.37282   0.00000  Uiso   1.00
H59    H     0.27559   0.34996   0.22513   0.00000  Uiso   1.00
H60    H     0.29571   0.40156   0.19837   0.00000  Uiso   1.00
H61    H     0.13703   0.10719   0.17901   0.00000  Uiso   1.00
H62    H     0.28689   0.36390   0.11924   0.00000  Uiso   1.00
H63    H     0.33168   0.33455   0.16332   0.00000  Uiso   1.00
H64    H     0.26663   0.31282   0.14620   0.00000  Uiso   1.00
H65    H     0.32616   0.28867   0.01631   0.00000  Uiso   1.00
H66    H     0.28002   0.37036   0.47542   0.00000  Uiso   1.00
H67    H     0.14178   0.39237   0.31618   0.00000  Uiso   1.00
H68    H     0.14830   0.02629   0.17961   0.00000  Uiso   1.00
H69    H     0.15314   0.47335   0.31831   0.00000  Uiso   1.00
H70    H     0.08922   0.27312   0.11431   0.00000  Uiso   1.00
H71    H     0.21692   0.30586   0.38190   0.00000  Uiso   1.00
H72    H     0.24423   0.22743   0.12909   0.00000  Uiso   1.00
N73    N     0.16667   0.24999   0.12623   0.00000  Uiso   1.00
N74    N     0.16667   0.25001   0.37376   0.00000  Uiso   1.00
O75    O     0.16667   0.18453   0.28974   0.00000  Uiso   1.00
O76    O     0.01141   0.27205   0.31158   0.00000  Uiso   1.00
O77    O     0.22336   0.11911   0.33208   0.00000  Uiso   1.00
O78    O     0.21812   0.38218   0.17860   0.00000  Uiso   1.00
O79    O     0.06992   0.29427   0.47835   0.00000  Uiso   1.00
O80    O     0.02397   0.27786   0.03901   0.00000  Uiso   1.00
O81    O     0.21691   0.33292   0.01623   0.00000  Uiso   1.00
O82    O     0.26227   0.34579   0.45439   0.00000  Uiso   1.00
O83    O     0.16666   0.31546   0.21026   0.00000  Uiso   1.00
O84    O     0.16667   0.18453   0.21026   0.00000  Uiso   1.00
O85    O     0.16666   0.31547   0.28974   0.00000  Uiso   1.00
O86    O     0.09058   0.25000   0.28044   0.00000  Uiso   1.00
O87    O     0.24275   0.25000   0.21955   0.00000  Uiso   1.00
O88    O     0.09058   0.24999   0.20096   0.00000  Uiso   1.00
O89    O     0.24275   0.25000   0.29903   0.00000  Uiso   1.00
O90    O     0.32244   0.21905   0.19284   0.00000  Uiso   1.00
Zn91   Zn    0.16667   0.25000   0.30307   0.00000  Uiso   1.00
Zn92   Zn    0.16667   0.24999   0.19693   0.00000  Uiso   1.00
C93    C     0.50154   0.16379   0.25031   0.00000  Uiso   1.00
C94    C     0.47068   0.22024   0.44465   0.00000  Uiso   1.00
C95    C     0.49795   0.25240   0.02627   0.00000  Uiso   1.00
C96    C     0.49914   0.25295   0.47314   0.00000  Uiso   1.00
C97    C     0.40063   0.24881   0.23803   0.00000  Uiso   1.00
C98    C     0.59939   0.25021   0.26217   0.00000  Uiso   1.00
C99    C     0.34647   0.24155   0.23295   0.00000  Uiso   1.00
C100   C     0.65376   0.25519   0.26833   0.00000  Uiso   1.00
C101   C     0.54244   0.04892   0.29206   0.00000  Uiso   1.00
C102   C     0.54003   0.45189   0.21684   0.00000  Uiso   1.00
C103   C     0.53694   0.09509   0.29186   0.00000  Uiso   1.00
C104   C     0.50166   0.33627   0.25007   0.00000  Uiso   1.00
C105   C     0.53441   0.40569   0.21555   0.00000  Uiso   1.00
C106   C     0.50923   0.11603   0.25134   0.00000  Uiso   1.00
C107   C     0.50931   0.38418   0.25082   0.00000  Uiso   1.00
C108   C     0.49095   0.09126   0.21055   0.00000  Uiso   1.00
C109   C     0.49370   0.40861   0.28852   0.00000  Uiso   1.00
C110   C     0.49768   0.04546   0.21071   0.00000  Uiso   1.00
C111   C     0.50053   0.45449   0.29003   0.00000  Uiso   1.00
C112   C     0.52252   0.02431   0.25173   0.00000  Uiso   1.00
C113   C     0.52275   0.47609   0.25372   0.00000  Uiso   1.00
C114   C     0.33664   0.17333   0.19638   0.00000  Uiso   1.00
C115   C     0.45323   0.26461   0.04736   0.00000  Uiso   1.00
C116   C     0.63265   0.14615   0.16127   0.00000  Uiso   1.00
C117   C     0.34160   0.31923   0.31068   0.00000  Uiso   1.00
C118   C     0.37309   0.33774   0.35578   0.00000  Uiso   1.00
C119   C     0.60794   0.13308   0.32724   0.00000  Uiso   1.00
C120   C     0.62929   0.16164   0.37001   0.00000  Uiso   1.00
C121   C     0.60431   0.37090   0.19222   0.00000  Uiso   1.00
C122   C     0.62355   0.34387   0.15269   0.00000  Uiso   1.00
C123   C     0.40374   0.27970   0.01888   0.00000  Uiso   1.00
C124   C     0.55841   0.32214   0.47625   0.00000  Uiso   1.00
C125   C     0.52856   0.28484   0.45021   0.00000  Uiso   1.00
C126   C     0.45586   0.26305   0.09769   0.00000  Uiso   1.00
C127   C     0.52839   0.28193   0.40022   0.00000  Uiso   1.00
C128   C     0.54282   0.23770   0.10640   0.00000  Uiso   1.00
C129   C     0.47137   0.21949   0.39508   0.00000  Uiso   1.00
C130   C     0.54265   0.23875   0.05673   0.00000  Uiso   1.00
H131   H     0.56184   0.03229   0.32369   0.00000  Uiso   1.00
H132   H     0.44883   0.19447   0.37355   0.00000  Uiso   1.00
H133   H     0.57743   0.22900   0.04205   0.00000  Uiso   1.00
H134   H     0.44781   0.19543   0.46080   0.00000  Uiso   1.00
H135   H     0.33465   0.15950   0.23282   0.00000  Uiso   1.00
H136   H     0.37686   0.16895   0.18744   0.00000  Uiso   1.00
H137   H     0.63427   0.15814   0.12426   0.00000  Uiso   1.00
H138   H     0.64375   0.11026   0.16372   0.00000  Uiso   1.00
H139   H     0.59218   0.14945   0.16978   0.00000  Uiso   1.00
H140   H     0.63375   0.33023   0.30968   0.00000  Uiso   1.00
H141   H     0.35817   0.33342   0.27941   0.00000  Uiso   1.00
H142   H     0.55733   0.46890   0.18885   0.00000  Uiso   1.00
H143   H     0.41440   0.32702   0.35803   0.00000  Uiso   1.00
H144   H     0.37164   0.37491   0.35523   0.00000  Uiso   1.00
H145   H     0.35665   0.32527   0.38768   0.00000  Uiso   1.00
H146   H     0.60858   0.15372   0.29441   0.00000  Uiso   1.00
H147   H     0.63398   0.10365   0.32591   0.00000  Uiso   1.00
H148   H     0.63143   0.14148   0.40330   0.00000  Uiso   1.00
H149   H     0.33568   0.17395   0.36582   0.00000  Uiso   1.00
H150   H     0.60355   0.19087   0.37282   0.00000  Uiso   1.00
H151   H     0.60892   0.34996   0.22513   0.00000  Uiso   1.00
H152   H     0.62905   0.40156   0.19837   0.00000  Uiso   1.00
H153   H     0.47037   0.10719   0.17901   0.00000  Uiso   1.00
H154   H     0.62023   0.36390   0.11924   0.00000  Uiso   1.00
H155   H     0.66502   0.33455   0.16332   0.00000  Uiso   1.00
H156   H     0.59997   0.31282   0.14620   0.00000  Uiso   1.00
H157   H     0.65950   0.28867   0.01631   0.00000  Uiso   1.00
H158   H     0.61336   0.37036   0.47542   0.00000  Uiso   1.00
H159   H     0.47511   0.39237   0.31618   0.00000  Uiso   1.00
H160   H     0.48163   0.02629   0.17961   0.00000  Uiso   1.00
H161   H     0.48647   0.47335   0.31831   0.00000  Uiso   1.00
H162   H     0.42255   0.27312   0.11431   0.00000  Uiso   1.00
H163   H     0.55025   0.30586   0.38190   0.00000  Uiso   1.00
H164   H     0.57756   0.22743   0.12909   0.00000  Uiso   1.00
N165   N     0.50000   0.24999   0.12623   0.00000  Uiso   1.00
N166   N     0.50000   0.25001   0.37376   0.00000  Uiso   1.00
O167   O     0.50000   0.18453   0.28974   0.00000  Uiso   1.00
O168   O     0.34475   0.27205   0.31158   0.00000  Uiso   1.00
O169   O     0.55669   0.11911   0.33208   0.00000  Uiso   1.00
O170   O     0.55145   0.38218   0.17860   0.00000  Uiso   1.00
O171   O     0.40325   0.29427   0.47835   0.00000  Uiso   1.00
O172   O     0.35730   0.27786   0.03901   0.00000  Uiso   1.00
O173   O     0.55024   0.33292   0.01623   0.00000  Uiso   1.00
O174   O     0.59560   0.34579   0.45439   0.00000  Uiso   1.00
O175   O     0.50000   0.31546   0.21026   0.00000  Uiso   1.00
O176   O     0.50000   0.18453   0.21026   0.00000  Uiso   1.00
O177   O     0.50000   0.31547   0.28974   0.00000  Uiso   1.00
O178   O     0.42392   0.25000   0.28044   0.00000  Uiso   1.00
O179   O     0.57608   0.25000   0.21955   0.00000  Uiso   1.00
O180   O     0.42392   0.24999   0.20096   0.00000  Uiso   1.00
O181   O     0.57608   0.25000   0.29903   0.00000  Uiso   1.00
O182   O     0.65577   0.21905   0.19284   0.00000  Uiso   1.00
Zn183  Zn    0.50000   0.25000   0.30307   0.00000  Uiso   1.00
Zn184  Zn    0.50000   0.24999   0.19693   0.00000  Uiso   1.00
C185   C     0.83487   0.16379   0.25031   0.00000  Uiso   1.00
C186   C     0.80402   0.22024   0.44465   0.00000  Uiso   1.00
C187   C     0.83128   0.25240   0.02627   0.00000  Uiso   1.00
C188   C     0.83247   0.25295   0.47314   0.00000  Uiso   1.00
C189   C     0.73397   0.24881   0.23803   0.00000  Uiso   1.00
C190   C     0.93273   0.25021   0.26217   0.00000  Uiso   1.00
C191   C     0.67980   0.24155   0.23295   0.00000  Uiso   1.00
C192   C     0.98709   0.25519   0.26833   0.00000  Uiso   1.00
C193   C     0.87578   0.04892   0.29206   0.00000  Uiso   1.00
C194   C     0.87336   0.45189   0.21684   0.00000  Uiso   1.00
C195   C     0.87027   0.09509   0.29186   0.00000  Uiso   1.00
C196   C     0.83500   0.33627   0.25007   0.00000  Uiso   1.00
C197   C     0.86774   0.40569   0.21555   0.00000  Uiso   1.00
C198   C     0.84256   0.11603   0.25134   0.00000  Uiso   1.00
C199   C     0.84265   0.38418   0.25082   0.00000  Uiso   1.00
C200   C     0.82428   0.09126   0.21055   0.00000  Uiso   1.00
C201   C     0.82703   0.40861   0.28852   0.00000  Uiso   1.00
C202   C     0.83102   0.04546   0.21071   0.00000  Uiso   1.00
C203   C     0.83387   0.45449   0.29003   0.00000  Uiso   1.00
C204   C     0.85585   0.02431   0.25173   0.00000  Uiso   1.00
C205   C     0.85608   0.47609   0.25372   0.00000  Uiso   1.00
C206   C     0.66997   0.17333   0.19638   0.00000  Uiso   1.00
C207   C     0.78656   0.26461   0.04736   0.00000  Uiso   1.00
C208   C     0.96598   0.14615   0.16127   0.00000  Uiso   1.00
C209   C     0.67493   0.31923   0.31068   0.00000  Uiso   1.00
C210   C     0.70642   0.33774   0.35578   0.00000  Uiso   1.00
C211   C     0.94128   0.13308   0.32724   0.00000  Uiso   1.00
C212   C     0.96263   0.16164   0.37001   0.00000  Uiso   1.00
C213   C     0.93764   0.37090   0.19222   0.00000  Uiso   1.00
C214   C     0.95689   0.34387   0.15269   0.00000  Uiso   1.00
C215   C     0.73707   0.27970   0.01888   0.00000  Uiso   1.00
C216   C     0.89174   0.32214   0.47625   0.00000  Uiso   1.00
C217   C     0.86189   0.28484   0.45021   0.00000  Uiso   1.00
C218   C     0.78919   0.26305   0.09769   0.00000  Uiso   1.00
C219   C     0.86173   0.28193   0.40022   0.00000  Uiso   1.00
C220   C     0.87615   0.23770   0.10640   0.00000  Uiso   1.00
C221   C     0.80470   0.21949   0.39508   0.00000  Uiso   1.00
C222   C     0.87598   0.23875   0.05673   0.00000  Uiso   1.00
H223   H     0.89517   0.03229   0.32369   0.00000  Uiso   1.00
H224   H     0.78216   0.19447   0.37355   0.00000  Uiso   1.00
H225   H     0.91076   0.22900   0.04205   0.00000  Uiso   1.00
H226   H     0.78114   0.19543   0.46080   0.00000  Uiso   1.00
H227   H     0.66799   0.15950   0.23282   0.00000  Uiso   1.00
H228   H     0.71019   0.16895   0.18744   0.00000  Uiso   1.00
H229   H     0.96760   0.15814   0.12426   0.00000  Uiso   1.00
H230   H     0.97708   0.11026   0.16372   0.00000  Uiso   1.00
H231   H     0.92552   0.14945   0.16978   0.00000  Uiso   1.00
H232   H     0.96708   0.33023   0.30968   0.00000  Uiso   1.00
H233   H     0.69151   0.33342   0.27941   0.00000  Uiso   1.00
H234   H     0.89067   0.46890   0.18885   0.00000  Uiso   1.00
H235   H     0.74773   0.32702   0.35803   0.00000  Uiso   1.00
H236   H     0.70498   0.37491   0.35523   0.00000  Uiso   1.00
H237   H     0.68998   0.32527   0.38768   0.00000  Uiso   1.00
H238   H     0.94191   0.15372   0.29441   0.00000  Uiso   1.00
H239   H     0.96731   0.10365   0.32591   0.00000  Uiso   1.00
H240   H     0.96476   0.14148   0.40330   0.00000  Uiso   1.00
H241   H     0.66901   0.17395   0.36582   0.00000  Uiso   1.00
H242   H     0.93688   0.19087   0.37282   0.00000  Uiso   1.00
H243   H     0.94226   0.34996   0.22513   0.00000  Uiso   1.00
H244   H     0.96238   0.40156   0.19837   0.00000  Uiso   1.00
H245   H     0.80370   0.10719   0.17901   0.00000  Uiso   1.00
H246   H     0.95356   0.36390   0.11924   0.00000  Uiso   1.00
H247   H     0.99835   0.33455   0.16332   0.00000  Uiso   1.00
H248   H     0.93330   0.31282   0.14620   0.00000  Uiso   1.00
H249   H     0.99283   0.28867   0.01631   0.00000  Uiso   1.00
H250   H     0.94669   0.37036   0.47542   0.00000  Uiso   1.00
H251   H     0.80844   0.39237   0.31618   0.00000  Uiso   1.00
H252   H     0.81496   0.02629   0.17961   0.00000  Uiso   1.00
H253   H     0.81980   0.47335   0.31831   0.00000  Uiso   1.00
H254   H     0.75589   0.27312   0.11431   0.00000  Uiso   1.00
H255   H     0.88359   0.30586   0.38190   0.00000  Uiso   1.00
H256   H     0.91090   0.22743   0.12909   0.00000  Uiso   1.00
N257   N     0.83333   0.24999   0.12623   0.00000  Uiso   1.00
N258   N     0.83333   0.25001   0.37376   0.00000  Uiso   1.00
O259   O     0.83334   0.18453   0.28974   0.00000  Uiso   1.00
O260   O     0.67808   0.27205   0.31158   0.00000  Uiso   1.00
O261   O     0.89003   0.11911   0.33208   0.00000  Uiso   1.00
O262   O     0.88479   0.38218   0.17860   0.00000  Uiso   1.00
O263   O     0.73659   0.29427   0.47835   0.00000  Uiso   1.00
O264   O     0.69063   0.27786   0.03901   0.00000  Uiso   1.00
O265   O     0.88357   0.33292   0.01623   0.00000  Uiso   1.00
O266   O     0.92894   0.34579   0.45439   0.00000  Uiso   1.00
O267   O     0.83333   0.31546   0.21026   0.00000  Uiso   1.00
O268   O     0.83334   0.18453   0.21026   0.00000  Uiso   1.00
O269   O     0.83333   0.31547   0.28974   0.00000  Uiso   1.00
O270   O     0.75725   0.25000   0.28044   0.00000  Uiso   1.00
O271   O     0.90942   0.25000   0.21955   0.00000  Uiso   1.00
O272   O     0.75725   0.24999   0.20096   0.00000  Uiso   1.00
O273   O     0.90942   0.25000   0.29903   0.00000  Uiso   1.00
O274   O     0.98910   0.21905   0.19284   0.00000  Uiso   1.00
Zn275  Zn    0.83333   0.25000   0.30307   0.00000  Uiso   1.00
Zn276  Zn    0.83333   0.24999   0.19693   0.00000  Uiso   1.00
C277   C     0.16820   0.66379   0.25031   0.00000  Uiso   1.00
C278   C     0.13735   0.72024   0.44465   0.00000  Uiso   1.00
C279   C     0.16462   0.75240   0.02627   0.00000  Uiso   1.00
C280   C     0.16580   0.75295   0.47314   0.00000  Uiso   1.00
C281   C     0.06730   0.74881   0.23803   0.00000  Uiso   1.00
C282   C     0.26606   0.75021   0.26217   0.00000  Uiso   1.00
C283   C     0.01314   0.74155   0.23295   0.00000  Uiso   1.00
C284   C     0.32042   0.75519   0.26833   0.00000  Uiso   1.00
C285   C     0.20911   0.54892   0.29206   0.00000  Uiso   1.00
C286   C     0.20670   0.95189   0.21684   0.00000  Uiso   1.00
C287   C     0.20361   0.59509   0.29186   0.00000  Uiso   1.00
C288   C     0.16833   0.83627   0.25007   0.00000  Uiso   1.00
C289   C     0.20108   0.90569   0.21555   0.00000  Uiso   1.00
C290   C     0.17589   0.61603   0.25134   0.00000  Uiso   1.00
C291   C     0.17598   0.88418   0.25082   0.00000  Uiso   1.00
C292   C     0.15762   0.59126   0.21055   0.00000  Uiso   1.00
C293   C     0.16037   0.90861   0.28852   0.00000  Uiso   1.00
C294   C     0.16435   0.54546   0.21071   0.00000  Uiso   1.00
C295   C     0.16720   0.95449   0.29003   0.00000  Uiso   1.00
C296   C     0.18919   0.52431   0.25173   0.00000  Uiso   1.00
C297   C     0.18942   0.97609   0.25372   0.00000  Uiso   1.00
C298   C     0.00330   0.67333   0.19638   0.00000  Uiso   1.00
C299   C     0.11990   0.76461   0.04736   0.00000  Uiso   1.00
C300   C     0.29931   0.64615   0.16127   0.00000  Uiso   1.00
C301   C     0.00826   0.81923   0.31068   0.00000  Uiso   1.00
C302   C     0.03976   0.83774   0.35578   0.00000  Uiso   1.00
C303   C     0.27461   0.63308   0.32724   0.00000  Uiso   1.00
C304   C     0.29596   0.66164   0.37001   0.00000  Uiso   1.00
C305   C     0.27098   0.87090   0.19222   0.00000  Uiso   1.00
C306   C     0.29022   0.84387   0.15269   0.00000  Uiso   1.00
C307   C     0.07041   0.77970   0.01888   0.00000  Uiso   1.00
C308   C     0.22507   0.82214   0.47625   0.00000  Uiso   1.00
C309   C     0.19523   0.78484   0.45021   0.00000  Uiso   1.00
C310   C     0.12252   0.76305   0.09769   0.00000  Uiso   1.00
C311   C     0.19506   0.78193   0.40022   0.00000  Uiso   1.00
C312   C     0.20949   0.73770   0.10640   0.00000  Uiso   1.00
C313   C     0.13803   0.71949   0.39508   0.00000  Uiso   1.00
C314   C     0.20931   0.73875   0.05673   0.00000  Uiso   1.00
H315   H     0.22850   0.53229   0.32369   0.00000  Uiso   1.00
H316   H     0.11550   0.69447   0.37355   0.00000  Uiso   1.00
H317   H     0.24410   0.72900   0.04205   0.00000  Uiso   1.00
H318   H     0.11447   0.69543   0.46080   0.00000  Uiso   1.00
H319   H     0.00132   0.65950   0.23282   0.00000  Uiso   1.00
H320   H     0.04352   0.66895   0.18744   0.00000  Uiso   1.00
H321   H     0.30093   0.65814   0.12426   0.00000  Uiso   1.00
H322   H     0.31042   0.61026   0.16372   0.00000  Uiso   1.00
H323   H     0.25885   0.64945   0.16978   0.00000  Uiso   1.00
H324   H     0.30041   0.83023   0.30968   0.00000  Uiso   1.00
H325   H     0.02484   0.83342   0.27941   0.00000  Uiso   1.00
H326   H     0.22400   0.96890   0.18885   0.00000  Uiso   1.00
H327   H     0.08106   0.82702   0.35803   0.00000  Uiso   1.00
H328   H     0.03831   0.87491   0.35523   0.00000  Uiso   1.00
H329   H     0.02332   0.82527   0.38768   0.00000  Uiso   1.00
H330   H     0.27525   0.65372   0.29441   0.00000  Uiso   1.00
H331   H     0.30064   0.60365   0.32591   0.00000  Uiso   1.00
H332   H     0.29810   0.64148   0.40330   0.00000  Uiso   1.00
H333   H     0.00235   0.67395   0.36582   0.00000  Uiso   1.00
H334   H     0.27022   0.69087   0.37282   0.00000  Uiso   1.00
H335   H     0.27559   0.84996   0.22513   0.00000  Uiso   1.00
H336   H     0.29571   0.90156   0.19837   0.00000  Uiso   1.00
H337   H     0.13703   0.60719   0.17901   0.00000  Uiso   1.00
H338   H     0.28689   0.86390   0.11924   0.00000  Uiso   1.00
H339   H     0.33168   0.83455   0.16332   0.00000  Uiso   1.00
H340   H     0.26663   0.81282   0.14620   0.00000  Uiso   1.00
H341   H     0.32616   0.78867   0.01631   0.00000  Uiso   1.00
H342   H     0.28002   0.87036   0.47542   0.00000  Uiso   1.00
H343   H     0.14178   0.89237   0.31618   0.00000  Uiso   1.00
H344   H     0.14830   0.52629   0.17961   0.00000  Uiso   1.00
H345   H     0.15314   0.97335   0.31831   0.00000  Uiso   1.00
H346   H     0.08922   0.77312   0.11431   0.00000  Uiso   1.00
H347   H     0.21692   0.80586   0.38190   0.00000  Uiso   1.00
H348   H     0.24423   0.72743   0.12909   0.00000  Uiso   1.00
N349   N     0.16667   0.74999   0.12623   0.00000  Uiso   1.00
N350   N     0.16667   0.75001   0.37376   0.00000  Uiso   1.00
O351   O     0.16667   0.68453   0.28974   0.00000  Uiso   1.00
O352   O     0.01141   0.77205   0.31158   0.00000  Uiso   1.00
O353   O     0.22336   0.61911   0.33208   0.00000  Uiso   1.00
O354   O     0.21812   0.88218   0.17860   0.00000  Uiso   1.00
O355   O     0.06992   0.79427   0.47835   0.00000  Uiso   1.00
O356   O     0.02397   0.77786   0.03901   0.00000  Uiso   1.00
O357   O     0.21691   0.83292   0.01623   0.00000  Uiso   1.00
O358   O     0.26227   0.84579   0.45439   0.00000  Uiso   1.00
O359   O     0.16666   0.81546   0.21026   0.00000  Uiso   1.00
O360   O     0.16667   0.68453   0.21026   0.00000  Uiso   1.00
O361   O     0.16666   0.81547   0.28974   0.00000  Uiso   1.00
O362   O     0.09058   0.75000   0.28044   0.00000  Uiso   1.00
O363   O     0.24275   0.75000   0.21955   0.00000  Uiso   1.00
O364   O     0.09058   0.74999   0.20096   0.00000  Uiso   1.00
O365   O     0.24275   0.75000   0.29903   0.00000  Uiso   1.00
O366   O     0.32244   0.71905   0.19284   0.00000  Uiso   1.00
Zn367  Zn    0.16667   0.75000   0.30307   0.00000  Uiso   1.00
Zn368  Zn    0.16667   0.74999   0.19693   0.00000  Uiso   1.00
C369   C     0.50154   0.66379   0.25031   0.00000  Uiso   1.00
C370   C     0.47068   0.72024   0.44465   0.00000  Uiso   1.00
C371   C     0.49795   0.75240   0.02627   0.00000  Uiso   1.00
C372   C     0.49914   0.75295   0.47314   0.00000  Uiso   1.00
C373   C     0.40063   0.74881   0.23803   0.00000  Uiso   1.00
C374   C     0.59939   0.75021   0.26217   0.00000  Uiso   1.00
C375   C     0.34647   0.74155   0.23295   0.00000  Uiso   1.00
C376   C     0.65376   0.75519   0.26833   0.00000  Uiso   1.00
C377   C     0.54244   0.54892   0.29206   0.00000  Uiso   1.00
C378   C     0.54003   0.95189   0.21684   0.00000  Uiso   1.00
C379   C     0.53694   0.59509   0.29186   0.00000  Uiso   1.00
C380   C     0.50166   0.83627   0.25007   0.00000  Uiso   1.00
C381   C     0.53441   0.90569   0.21555   0.00000  Uiso   1.00
C382   C     0.50923   0.61603   0.25134   0.00000  Uiso   1.00
C383   C     0.50931   0.88418   0.25082   0.00000  Uiso   1.00
C384   C     0.49095   0.59126   0.21055   0.00000  Uiso   1.00
C385   C     0.49370   0.90861   0.28852   0.00000  Uiso   1.00
C386   C     0.49768   0.54546   0.21071   0.00000  Uiso   1.00
C387   C     0.50053   0.95449   0.29003   0.00000  Uiso   1.00
C388   C     0.52252   0.52431   0.25173   0.00000  Uiso   1.00
C389   C     0.52275   0.97609   0.25372   0.00000  Uiso   1.00
C390   C     0.33664   0.67333   0.19638   0.00000  Uiso   1.00
C391   C     0.45323   0.76461   0.04736   0.00000  Uiso   1.00
C392   C     0.63265   0.64615   0.16127   0.00000  Uiso   1.00
C393   C     0.34160   0.81923   0.31068   0.00000  Uiso   1.00
C394   C     0.37309   0.83774   0.35578   0.00000  Uiso   1.00
C395   C     0.60794   0.63308   0.32724   0.00000  Uiso   1.00
C396   C     0.62929   0.66164   0.37001   0.00000  Uiso   1.00
C397   C     0.60431   0.87090   0.19222   0.00000  Uiso   1.00
C398   C     0.62355   0.84387   0.15269   0.00000  Uiso   1.00
C399   C     0.40374   0.77970   0.01888   0.00000  Uiso   1.00
C400   C     0.55841   0.82214   0.47625   0.00000  Uiso   1.00
C401   C     0.52856   0.78484   0.45021   0.00000  Uiso   1.00
C402   C     0.45586   0.76305   0.09769   0.00000  Uiso   1.00
C403   C     0.52839   0.78193   0.40022   0.00000  Uiso   1.00
C404   C     0.54282   0.73770   0.10640   0.00000  Uiso   1.00
C405   C     0.47137   0.71949   0.39508   0.00000  Uiso   1.00
C406   C     0.54265   0.73875   0.05673   0.00000  Uiso   1.00
H407   H     0.56184   0.53229   0.32369   0.00000  Uiso   1.00
H408   H     0.44883   0.69447   0.37355   0.00000  Uiso   1.00
H409   H     0.57743   0.72900   0.04205   0.00000  Uiso   1.00
H410   H     0.44781   0.69543   0.46080   0.00000  Uiso   1.00
H411   H     0.33465   0.65950   0.23282   0.00000  Uiso   1.00
H412   H     0.37686   0.66895   0.18744   0.00000  Uiso   1.00
H413   H     0.63427   0.65814   0.12426   0.00000  Uiso   1.00
H414   H     0.64375   0.61026   0.16372   0.00000  Uiso   1.00
H415   H     0.59218   0.64945   0.16978   0.00000  Uiso   1.00
H416   H     0.63375   0.83023   0.30968   0.00000  Uiso   1.00
H417   H     0.35817   0.83342   0.27941   0.00000  Uiso   1.00
H418   H     0.55733   0.96890   0.18885   0.00000  Uiso   1.00
H419   H     0.41440   0.82702   0.35803   0.00000  Uiso   1.00
H420   H     0.37164   0.87491   0.35523   0.00000  Uiso   1.00
H421   H     0.35665   0.82527   0.38768   0.00000  Uiso   1.00
H422   H     0.60858   0.65372   0.29441   0.00000  Uiso   1.00
H423   H     0.63398   0.60365   0.32591   0.00000  Uiso   1.00
H424   H     0.63143   0.64148   0.40330   0.00000  Uiso   1.00
H425   H     0.33568   0.67395   0.36582   0.00000  Uiso   1.00
H426   H     0.60355   0.69087   0.37282   0.00000  Uiso   1.00
H427   H     0.60892   0.84996   0.22513   0.00000  Uiso   1.00
H428   H     0.62905   0.90156   0.19837   0.00000  Uiso   1.00
H429   H     0.47037   0.60719   0.17901   0.00000  Uiso   1.00
H430   H     0.62023   0.86390   0.11924   0.00000  Uiso   1.00
H431   H     0.66502   0.83455   0.16332   0.00000  Uiso   1.00
H432   H     0.59997   0.81282   0.14620   0.00000  Uiso   1.00
H433   H     0.65950   0.78867   0.01631   0.00000  Uiso   1.00
H434   H     0.61336   0.87036   0.47542   0.00000  Uiso   1.00
H435   H     0.47511   0.89237   0.31618   0.00000  Uiso   1.00
H436   H     0.48163   0.52629   0.17961   0.00000  Uiso   1.00
H437   H     0.48647   0.97335   0.31831   0.00000  Uiso   1.00
H438   H     0.42255   0.77312   0.11431   0.00000  Uiso   1.00
H439   H     0.55025   0.80586   0.38190   0.00000  Uiso   1.00
H440   H     0.57756   0.72743   0.12909   0.00000  Uiso   1.00
N441   N     0.50000   0.74999   0.12623   0.00000  Uiso   1.00
N442   N     0.50000   0.75001   0.37376   0.00000  Uiso   1.00
O443   O     0.50000   0.68453   0.28974   0.00000  Uiso   1.00
O444   O     0.34475   0.77205   0.31158   0.00000  Uiso   1.00
O445   O     0.55669   0.61911   0.33208   0.00000  Uiso   1.00
O446   O     0.55145   0.88218   0.17860   0.00000  Uiso   1.00
O447   O     0.40325   0.79427   0.47835   0.00000  Uiso   1.00
O448   O     0.35730   0.77786   0.03901   0.00000  Uiso   1.00
O449   O     0.55024   0.83292   0.01623   0.00000  Uiso   1.00
O450   O     0.59560   0.84579   0.45439   0.00000  Uiso   1.00
O451   O     0.50000   0.81546   0.21026   0.00000  Uiso   1.00
O452   O     0.50000   0.68453   0.21026   0.00000  Uiso   1.00
O453   O     0.50000   0.81547   0.28974   0.00000  Uiso   1.00
O454   O     0.42392   0.75000   0.28044   0.00000  Uiso   1.00
O455   O     0.57608   0.75000   0.21955   0.00000  Uiso   1.00
O456   O     0.42392   0.74999   0.20096   0.00000  Uiso   1.00
O457   O     0.57608   0.75000   0.29903   0.00000  Uiso   1.00
O458   O     0.65577   0.71905   0.19284   0.00000  Uiso   1.00
Zn459  Zn    0.50000   0.75000   0.30307   0.00000  Uiso   1.00
Zn460  Zn    0.50000   0.74999   0.19693   0.00000  Uiso   1.00
C461   C     0.83487   0.66379   0.25031   0.00000  Uiso   1.00
C462   C     0.80402   0.72024   0.44465   0.00000  Uiso   1.00
C463   C     0.83128   0.75240   0.02627   0.00000  Uiso   1.00
C464   C     0.83247   0.75295   0.47314   0.00000  Uiso   1.00
C465   C     0.73397   0.74881   0.23803   0.00000  Uiso   1.00
C466   C     0.93273   0.75021   0.26217   0.00000  Uiso   1.00
C467   C     0.67980   0.74155   0.23295   0.00000  Uiso   1.00
C468   C     0.98709   0.75519   0.26833   0.00000  Uiso   1.00
C469   C     0.87578   0.54892   0.29206   0.00000  Uiso   1.00
C470   C     0.87336   0.95189   0.21684   0.00000  Uiso   1.00
C471   C     0.87027   0.59509   0.29186   0.00000  Uiso   1.00
C472   C     0.83500   0.83627   0.25007   0.00000  Uiso   1.00
C473   C     0.86774   0.90569   0.21555   0.00000  Uiso   1.00
C474   C     0.84256   0.61603   0.25134   0.00000  Uiso   1.00
C475   C     0.84265   0.88418   0.25082   0.00000  Uiso   1.00
C476   C     0.82428   0.59126   0.21055   0.00000  Uiso   1.00
C477   C     0.82703   0.90861   0.28852   0.00000  Uiso   1.00
C478   C     0.83102   0.54546   0.21071   0.00000  Uiso   1.00
C479   C     0.83387   0.95449   0.29003   0.00000  Uiso   1.00
C480   C     0.85585   0.52431   0.25173   0.00000  Uiso   1.00
C481   C     0.85608   0.97609   0.25372   0.00000  Uiso   1.00
C482   C     0.66997   0.67333   0.19638   0.00000  Uiso   1.00
C483   C     0.78656   0.76461   0.04736   0.00000  Uiso   1.00
C484   C     0.96598   0.64615   0.16127   0.00000  Uiso   1.00
C485   C     0.67493   0.81923   0.31068   0.00000  Uiso   1.00
C486   C     0.70642   0.83774   0.35578   0.00000  Uiso   1.00
C487   C     0.94128   0.63308   0.32724   0.00000  Uiso   1.00
C488   C     0.96263   0.66164   0.37001   0.00000  Uiso   1.00
C489   C     0.93764   0.87090   0.19222   0.00000  Uiso   1.00
C490   C     0.95689   0.84387   0.15269   0.00000  Uiso   1.00
C491   C     0.73707   0.77970   0.01888   0.00000  Uiso   1.00
C492   C     0.89174   0.82214   0.47625   0.00000  Uiso   1.00
C493   C     0.86189   0.78484   0.45021   0.00000  Uiso   1.00
C494   C     0.78919   0.76305   0.09769   0.00000  Uiso   1.00
C495   C     0.86173   0.78193   0.40022   0.00000  Uiso   1.00
C496   C     0.87615   0.73770   0.10640   0.00000  Uiso   1.00
C497   C     0.80470   0.71949   0.39508   0.00000  Uiso   1.00
C498   C     0.87598   0.73875   0.05673   0.00000  Uiso   1.00
H499   H     0.89517   0.53229   0.32369   0.00000  Uiso   1.00
H500   H     0.78216   0.69447   0.37355   0.00000  Uiso   1.00
H501   H     0.91076   0.72900   0.04205   0.00000  Uiso   1.00
H502   H     0.78114   0.69543   0.46080   0.00000  Uiso   1.00
H503   H     0.66799   0.65950   0.23282   0.00000  Uiso   1.00
H504   H     0.71019   0.66895   0.18744   0.00000  Uiso   1.00
H505   H     0.96760   0.65814   0.12426   0.00000  Uiso   1.00
H506   H     0.97708   0.61026   0.16372   0.00000  Uiso   1.00
H507   H     0.92552   0.64945   0.16978   0.00000  Uiso   1.00
H508   H     0.96708   0.83023   0.30968   0.00000  Uiso   1.00
H509   H     0.69151   0.83342   0.27941   0.00000  Uiso   1.00
H510   H     0.89067   0.96890   0.18885   0.00000  Uiso   1.00
H511   H     0.74773   0.82702   0.35803   0.00000  Uiso   1.00
H512   H     0.70498   0.87491   0.35523   0.00000  Uiso   1.00
H513   H     0.68998   0.82527   0.38768   0.00000  Uiso   1.00
H514   H     0.94191   0.65372   0.29441   0.00000  Uiso   1.00
H515   H     0.96731   0.60365   0.32591   0.00000  Uiso   1.00
H516   H     0.96476   0.64148   0.40330   0.00000  Uiso   1.00
H517   H     0.66901   0.67395   0.36582   0.00000  Uiso   1.00
H518   H     0.93688   0.69087   0.37282   0.00000  Uiso   1.00
H519   H     0.94226   0.84996   0.22513   0.00000  Uiso   1.00
H520   H     0.96238   0.90156   0.19837   0.00000  Uiso   1.00
H521   H     0.80370   0.60719   0.17901   0.00000  Uiso   1.00
H522   H     0.95356   0.86390   0.11924   0.00000  Uiso   1.00
H523   H     0.99835   0.83455   0.16332   0.00000  Uiso   1.00
H524   H     0.93330   0.81282   0.14620   0.00000  Uiso   1.00
H525   H     0.99283   0.78867   0.01631   0.00000  Uiso   1.00
H526   H     0.94669   0.87036   0.47542   0.00000  Uiso   1.00
H527   H     0.80844   0.89237   0.31618   0.00000  Uiso   1.00
H528   H     0.81496   0.52629   0.17961   0.00000  Uiso   1.00
H529   H     0.81980   0.97335   0.31831   0.00000  Uiso   1.00
H530   H     0.75589   0.77312   0.11431   0.00000  Uiso   1.00
H531   H     0.88359   0.80586   0.38190   0.00000  Uiso   1.00
H532   H     0.91090   0.72743   0.12909   0.00000  Uiso   1.00
N533   N     0.83333   0.74999   0.12623   0.00000  Uiso   1.00
N534   N     0.83333   0.75001   0.37376   0.00000  Uiso   1.00
O535   O     0.83334   0.68453   0.28974   0.00000  Uiso   1.00
O536   O     0.67808   0.77205   0.31158   0.00000  Uiso   1.00
O537   O     0.89003   0.61911   0.33208   0.00000  Uiso   1.00
O538   O     0.88479   0.88218   0.17860   0.00000  Uiso   1.00
O539   O     0.73659   0.79427   0.47835   0.00000  Uiso   1.00
O540   O     0.69063   0.77786   0.03901   0.00000  Uiso   1.00
O541   O     0.88357   0.83292   0.01623   0.00000  Uiso   1.00
O542   O     0.92894   0.84579   0.45439   0.00000  Uiso   1.00
O543   O     0.83333   0.81546   0.21026   0.00000  Uiso   1.00
O544   O     0.83334   0.68453   0.21026   0.00000  Uiso   1.00
O545   O     0.83333   0.81547   0.28974   0.00000  Uiso   1.00
O546   O     0.75725   0.75000   0.28044   0.00000  Uiso   1.00
O547   O     0.90942   0.75000   0.21955   0.00000  Uiso   1.00
O548   O     0.75725   0.74999   0.20096   0.00000  Uiso   1.00
O549   O     0.90942   0.75000   0.29903   0.00000  Uiso   1.00
O550   O     0.98910   0.71905   0.19284   0.00000  Uiso   1.00
Zn551  Zn    0.83333   0.75000   0.30307   0.00000  Uiso   1.00
Zn552  Zn    0.83333   0.74999   0.19693   0.00000  Uiso   1.00
C553   C     0.16820   0.16379   0.75031   0.00000  Uiso   1.00
C554   C     0.13735   0.22024   0.94465   0.00000  Uiso   1.00
C555   C     0.16462   0.25240   0.52627   0.00000  Uiso   1.00
C556   C     0.16580   0.25295   0.97314   0.00000  Uiso   1.00
C557   C     0.06730   0.24881   0.73803   0.00000  Uiso   1.00
C558   C     0.26606   0.25021   0.76217   0.00000  Uiso   1.00
C559   C     0.01314   0.24155   0.73295   0.00000  Uiso   1.00
C560   C     0.32042   0.25519   0.76833   0.00000  Uiso   1.00
C561   C     0.20911   0.04892   0.79206   0.00000  Uiso   1.00
C562   C     0.20670   0.45189   0.71684   0.00000  Uiso   1.00
C563   C     0.20361   0.09509   0.79186   0.00000  Uiso   1.00
C564   C     0.16833   0.33627   0.75007   0.00000  Uiso   1.00
C565   C     0.20108   0.40569   0.71555   0.00000  Uiso   1.00
C566   C     0.17589   0.11603   0.75134   0.00000  Uiso   1.00
C567   C     0.17598   0.38418   0.75082   0.00000  Uiso   1.00
C568   C     0.15762   0.09126   0.71055   0.00000  Uiso   1.00
C569   C     0.16037   0.40861   0.78852   0.00000  Uiso   1.00
C570   C     0.16435   0.04546   0.71071   0.00000  Uiso   1.00
C571   C     0.16720   0.45449   0.79003   0.00000  Uiso   1.00
C572   C     0.18919   0.02431   0.75173   0.00000  Uiso   1.00
C573   C     0.18942   0.47609   0.75372   0.00000  Uiso   1.00
C574   C     0.00330   0.17333   0.69638   0.00000  Uiso   1.00
C575   C     0.11990   0.26461   0.54736   0.00000  Uiso   1.00
C576   C     0.29931   0.14615   0.66127   0.00000  Uiso   1.00
C577   C     0.00826   0.31923   0.81068   0.00000  Uiso   1.00
C578   C     0.03976   0.33774   0.85578   0.00000  Uiso   1.00
C579   C     0.27461   0.13308   0.82724   0.00000  Uiso   1.00
C580   C     0.29596   0.16164   0.87001   0.00000  Uiso   1.00
C581   C     0.27098   0.37090   0.69222   0.00000  Uiso   1.00
C582   C     0.29022   0.34387   0.65269   0.00000  Uiso   1.00
C583   C     0.07041   0.27970   0.51888   0.00000  Uiso   1.00
C584   C     0.22507   0.32214   0.97625   0.00000  Uiso   1.00
C585   C     0.19523   0.28484   0.95021   0.00000  Uiso   1.00
C586   C     0.12252   0.26305   0.59769   0.00000  Uiso   1.00
C587   C     0.19506   0.28193   0.90022   0.00000  Uiso   1.00
C588   C     0.20949   0.23770   0.60640   0.00000  Uiso   1.00
C589   C     0.13803   0.21949   0.89508   0.00000  Uiso   1.00
C590   C     0.20931   0.23875   0.55673   0.00000  Uiso   1.00
H591   H     0.22850   0.03229   0.82369   0.00000  Uiso   1.00
H592   H     0.11550   0.19447   0.87355   0.00000  Uiso   1.00
H593   H     0.24410   0.22900   0.54205   0.00000  Uiso   1.00
H594   H     0.11447   0.19543   0.96080   0.00000  Uiso   1.00
H595   H     0.00132   0.15950   0.73282   0.00000  Uiso   1.00
H596   H     0.04352   0.16895   0.68744   0.00000  Uiso   1.00
H597   H     0.30093   0.15814   0.62426   0.00000  Uiso   1.00
H598   H     0.31042   0.11026   0.66372   0.00000  Uiso   1.00
H599   H     0.25885   0.14945   0.66978   0.00000  Uiso   1.00
H600   H     0.30041   0.33023   0.80968   0.00000  Uiso   1.00
H601   H     0.02484   0.33342   0.77941   0.00000  Uiso   1.00
H602   H     0.22400   0.46890   0.68885   0.00000  Uiso   1.00
H603   H     0.08106   0.32702   0.85803   0.00000  Uiso   1.00
H604   H     0.03831   0.37491   0.85523   0.00000  Uiso   1.00
H605   H     0.02332   0.32527   0.88768   0.00000  Uiso   1.00
H606   H     0.27525   0.15372   0.79441   0.00000  Uiso   1.00
H607   H     0.30064   0.10365   0.82591   0.00000  Uiso   1.00
H608   H     0.29810   0.14148   0.90330   0.00000  Uiso   1.00
H609   H     0.00235   0.17395   0.86582   0.00000  Uiso   1.00
H610   H     0.27022   0.19087   0.87282   0.00000  Uiso   1.00
H611   H     0.27559   0.34996   0.72513   0.00000  Uiso   1.00
H612   H     0.29571   0.40156   0.69837   0.00000  Uiso   1.00
H613   H     0.13703   0.10719   0.67901   0.00000  Uiso   1.00
H614   H     0.28689   0.36390   0.61924   0.00000  Uiso   1.00
H615   H     0.33168   0.33455   0.66332   0.00000  Uiso   1.00
H616   H     0.26663   0.31282   0.64620   0.00000  Uiso   1.00
H617   H     0.32616   0.28867   0.51631   0.00000  Uiso   1.00
H618   H     0.28002   0.37036   0.97542   0.00000  Uiso   1.00
H619   H     0.14178   0.39237   0.81618   0.00000  Uiso   1.00
H620   H     0.14830   0.02629   0.67961   0.00000  Uiso   1.00
H621   H     0.15314   0.47335   0.81831   0.00000  Uiso   1.00
H622   H     0.08922   0.27312   0.61431   0.00000  Uiso   1.00
H623   H     0.21692   0.30586   0.88190   0.00000  Uiso   1.00
H624   H     0.24423   0.22743   0.62909   0.00000  Uiso   1.00
N625   N     0.16667   0.24999   0.62623   0.00000  Uiso   1.00
N626   N     0.16667   0.25001   0.87376   0.00000  Uiso   1.00
O627   O     0.16667   0.18453   0.78974   0.00000  Uiso   1.00
O628   O     0.01141   0.27205   0.81158   0.00000  Uiso   1.00
O629   O     0.22336   0.11911   0.83208   0.00000  Uiso   1.00
O630   O     0.21812   0.38218   0.67860   0.00000  Uiso   1.00
O631   O     0.06992   0.29427   0.97835   0.00000  Uiso   1.00
O632   O     0.02397   0.27786   0.53901   0.00000  Uiso   1.00
O633   O     0.21691   0.33292   0.51623   0.00000  Uiso   1.00
O634   O     0.26227   0.34579   0.95439   0.00000  Uiso   1.00
O635   O     0.16666   0.31546   0.71026   0.00000  Uiso   1.00
O636   O     0.16667   0.18453   0.71026   0.00000  Uiso   1.00
O637   O     0.16666   0.31547   0.78974   0.00000  Uiso   1.00
O638   O     0.09058   0.25000   0.78044   0.00000  Uiso   1.00
O639   O     0.24275   0.25000   0.71955   0.00000  Uiso   1.00
O640   O     0.09058   0.24999   0.70096   0.00000  Uiso   1.00
O641   O     0.24275   0.25000   0.79903   0.00000  Uiso   1.00
O642   O     0.32244   0.21905   0.69284   0.00000  Uiso   1.00
Zn643  Zn    0.16667   0.25000   0.80307   0.00000  Uiso   1.00
Zn644  Zn    0.16667   0.24999   0.69693   0.00000  Uiso   1.00
C645   C     0.50154   0.16379   0.75031   0.00000  Uiso   1.00
C646   C     0.47068   0.22024   0.94465   0.00000  Uiso   1.00
C647   C     0.49795   0.25240   0.52627   0.00000  Uiso   1.00
C648   C     0.49914   0.25295   0.97314   0.00000  Uiso   1.00
C649   C     0.40063   0.24881   0.73803   0.00000  Uiso   1.00
C650   C     0.59939   0.25021   0.76217   0.00000  Uiso   1.00
C651   C     0.34647   0.24155   0.73295   0.00000  Uiso   1.00
C652   C     0.65376   0.25519   0.76833   0.00000  Uiso   1.00
C653   C     0.54244   0.04892   0.79206   0.00000  Uiso   1.00
C654   C     0.54003   0.45189   0.71684   0.00000  Uiso   1.00
C655   C     0.53694   0.09509   0.79186   0.00000  Uiso   1.00
C656   C     0.50166   0.33627   0.75007   0.00000  Uiso   1.00
C657   C     0.53441   0.40569   0.71555   0.00000  Uiso   1.00
C658   C     0.50923   0.11603   0.75134   0.00000  Uiso   1.00
C659   C     0.50931   0.38418   0.75082   0.00000  Uiso   1.00
C660   C     0.49095   0.09126   0.71055   0.00000  Uiso   1.00
C661   C     0.49370   0.40861   0.78852   0.00000  Uiso   1.00
C662   C     0.49768   0.04546   0.71071   0.00000  Uiso   1.00
C663   C     0.50053   0.45449   0.79003   0.00000  Uiso   1.00
C664   C     0.52252   0.02431   0.75173   0.00000  Uiso   1.00
C665   C     0.52275   0.47609   0.75372   0.00000  Uiso   1.00
C666   C     0.33664   0.17333   0.69638   0.00000  Uiso   1.00
C667   C     0.45323   0.26461   0.54736   0.00000  Uiso   1.00
C668   C     0.63265   0.14615   0.66127   0.00000  Uiso   1.00
C669   C     0.34160   0.31923   0.81068   0.00000  Uiso   1.00
C670   C     0.37309   0.33774   0.85578   0.00000  Uiso   1.00
C671   C     0.60794   0.13308   0.82724   0.00000  Uiso   1.00
C672   C     0.62929   0.16164   0.87001   0.00000  Uiso   1.00
C673   C     0.60431   0.37090   0.69222   0.00000  Uiso   1.00
C674   C     0.62355   0.34387   0.65269   0.00000  Uiso   1.00
C675   C     0.40374   0.27970   0.51888   0.00000  Uiso   1.00
C676   C     0.55841   0.32214   0.97625   0.00000  Uiso   1.00
C677   C     0.52856   0.28484   0.95021   0.00000  Uiso   1.00
C678   C     0.45586   0.26305   0.59769   0.00000  Uiso   1.00
C679   C     0.52839   0.28193   0.90022   0.00000  Uiso   1.00
C680   C     0.54282   0.23770   0.60640   0.00000  Uiso   1.00
C681   C     0.47137   0.21949   0.89508   0.00000  Uiso   1.00
C682   C     0.54265   0.23875   0.55673   0.00000  Uiso   1.00
H683   H     0.56184   0.03229   0.82369   0.00000  Uiso   1.00
H684   H     0.44883   0.19447   0.87355   0.00000  Uiso   1.00
H685   H     0.57743   0.22900   0.54205   0.00000  Uiso   1.00
H686   H     0.44781   0.19543   0.96080   0.00000  Uiso   1.00
H687   H     0.33465   0.15950   0.73282   0.00000  Uiso   1.00
H688   H     0.37686   0.16895   0.68744   0.00000  Uiso   1.00
H689   H     0.63427   0.15814   0.62426   0.00000  Uiso   1.00
H690   H     0.64375   0.11026   0.66372   0.00000  Uiso   1.00
H691   H     0.59218   0.14945   0.66978   0.00000  Uiso   1.00
H692   H     0.63375   0.33023   0.80968   0.00000  Uiso   1.00
H693   H     0.35817   0.33342   0.77941   0.00000  Uiso   1.00
H694   H     0.55733   0.46890   0.68885   0.00000  Uiso   1.00
H695   H     0.41440   0.32702   0.85803   0.00000  Uiso   1.00
H696   H     0.37164   0.37491   0.85523   0.00000  Uiso   1.00
H697   H     0.35665   0.32527   0.88768   0.00000  Uiso   1.00
H698   H     0.60858   0.15372   0.79441   0.00000  Uiso   1.00
H699   H     0.63398   0.10365   0.82591   0.00000  Uiso   1.00
H700   H     0.63143   0.14148   0.90330   0.00000  Uiso   1.00
H701   H     0.33568   0.17395   0.86582   0.00000  Uiso   1.00
H702   H     0.60355   0.19087   0.87282   0.00000  Uiso   1.00
H703   H     0.60892   0.34996   0.72513   0.00000  Uiso   1.00
H704   H     0.62905   0.40156   0.69837   0.00000  Uiso   1.00
H705   H     0.47037   0.10719   0.67901   0.00000  Uiso   1.00
H706   H     0.62023   0.36390   0.61924   0.00000  Uiso   1.00
H707   H     0.66502   0.33455   0.66332   0.00000  Uiso   1.00
H708   H     0.59997   0.31282   0.64620   0.00000  Uiso   1.00
H709   H     0.65950   0.28867   0.51631   0.00000  Uiso   1.00
H710   H     0.61336   0.37036   0.97542   0.00000  Uiso   1.00
H711   H     0.47511   0.39237   0.81618   0.00000  Uiso   1.00
H712   H     0.48163   0.02629   0.67961   0.00000  Uiso   1.00
H713   H     0.48647   0.47335   0.81831   0.00000  Uiso   1.00
H714   H     0.42255   0.27312   0.61431   0.00000  Uiso   1.00
H715   H     0.55025   0.30586   0.88190   0.00000  Uiso   1.00
H716   H     0.57756   0.22743   0.62909   0.00000  Uiso   1.00
N717   N     0.50000   0.24999   0.62623   0.00000  Uiso   1.00
N718   N     0.50000   0.25001   0.87376   0.00000  Uiso   1.00
O719   O     0.50000   0.18453   0.78974   0.00000  Uiso   1.00
O720   O     0.34475   0.27205   0.81158   0.00000  Uiso   1.00
O721   O     0.55669   0.11911   0.83208   0.00000  Uiso   1.00
O722   O     0.55145   0.38218   0.67860   0.00000  Uiso   1.00
O723   O     0.40325   0.29427   0.97835   0.00000  Uiso   1.00
O724   O     0.35730   0.27786   0.53901   0.00000  Uiso   1.00
O725   O     0.55024   0.33292   0.51623   0.00000  Uiso   1.00
O726   O     0.59560   0.34579   0.95439   0.00000  Uiso   1.00
O727   O     0.50000   0.31546   0.71026   0.00000  Uiso   1.00
O728   O     0.50000   0.18453   0.71026   0.00000  Uiso   1.00
O729   O     0.50000   0.31547   0.78974   0.00000  Uiso   1.00
O730   O     0.42392   0.25000   0.78044   0.00000  Uiso   1.00
O731   O     0.57608   0.25000   0.71955   0.00000  Uiso   1.00
O732   O     0.42392   0.24999   0.70096   0.00000  Uiso   1.00
O733   O     0.57608   0.25000   0.79903   0.00000  Uiso   1.00
O734   O     0.65577   0.21905   0.69284   0.00000  Uiso   1.00
Zn735  Zn    0.50000   0.25000   0.80307   0.00000  Uiso   1.00
Zn736  Zn    0.50000   0.24999   0.69693   0.00000  Uiso   1.00
C737   C     0.83487   0.16379   0.75031   0.00000  Uiso   1.00
C738   C     0.80402   0.22024   0.94465   0.00000  Uiso   1.00
C739   C     0.83128   0.25240   0.52627   0.00000  Uiso   1.00
C740   C     0.83247   0.25295   0.97314   0.00000  Uiso   1.00
C741   C     0.73397   0.24881   0.73803   0.00000  Uiso   1.00
C742   C     0.93273   0.25021   0.76217   0.00000  Uiso   1.00
C743   C     0.67980   0.24155   0.73295   0.00000  Uiso   1.00
C744   C     0.98709   0.25519   0.76833   0.00000  Uiso   1.00
C745   C     0.87578   0.04892   0.79206   0.00000  Uiso   1.00
C746   C     0.87336   0.45189   0.71684   0.00000  Uiso   1.00
C747   C     0.87027   0.09509   0.79186   0.00000  Uiso   1.00
C748   C     0.83500   0.33627   0.75007   0.00000  Uiso   1.00
C749   C     0.86774   0.40569   0.71555   0.00000  Uiso   1.00
C750   C     0.84256   0.11603   0.75134   0.00000  Uiso   1.00
C751   C     0.84265   0.38418   0.75082   0.00000  Uiso   1.00
C752   C     0.82428   0.09126   0.71055   0.00000  Uiso   1.00
C753   C     0.82703   0.40861   0.78852   0.00000  Uiso   1.00
C754   C     0.83102   0.04546   0.71071   0.00000  Uiso   1.00
C755   C     0.83387   0.45449   0.79003   0.00000  Uiso   1.00
C756   C     0.85585   0.02431   0.75173   0.00000  Uiso   1.00
C757   C     0.85608   0.47609   0.75372   0.00000  Uiso   1.00
C758   C     0.66997   0.17333   0.69638   0.00000  Uiso   1.00
C759   C     0.78656   0.26461   0.54736   0.00000  Uiso   1.00
C760   C     0.96598   0.14615   0.66127   0.00000  Uiso   1.00
C761   C     0.67493   0.31923   0.81068   0.00000  Uiso   1.00
C762   C     0.70642   0.33774   0.85578   0.00000  Uiso   1.00
C763   C     0.94128   0.13308   0.82724   0.00000  Uiso   1.00
C764   C     0.96263   0.16164   0.87001   0.00000  Uiso   1.00
C765   C     0.93764   0.37090   0.69222   0.00000  Uiso   1.00
C766   C     0.95689   0.34387   0.65269   0.00000  Uiso   1.00
C767   C     0.73707   0.27970   0.51888   0.00000  Uiso   1.00
C768   C     0.89174   0.32214   0.97625   0.00000  Uiso   1.00
C769   C     0.86189   0.28484   0.95021   0.00000  Uiso   1.00
C770   C     0.78919   0.26305   0.59769   0.00000  Uiso   1.00
C771   C     0.86173   0.28193   0.90022   0.00000  Uiso   1.00
C772   C     0.87615   0.23770   0.60640   0.00000  Uiso   1.00
C773   C     0.80470   0.21949   0.89508   0.00000  Uiso   1.00
C774   C     0.87598   0.23875   0.55673   0.00000  Uiso   1.00
H775   H     0.89517   0.03229   0.82369   0.00000  Uiso   1.00
H776   H     0.78216   0.19447   0.87355   0.00000  Uiso   1.00
H777   H     0.91076   0.22900   0.54205   0.00000  Uiso   1.00
H778   H     0.78114   0.19543   0.96080   0.00000  Uiso   1.00
H779   H     0.66799   0.15950   0.73282   0.00000  Uiso   1.00
H780   H     0.71019   0.16895   0.68744   0.00000  Uiso   1.00
H781   H     0.96760   0.15814   0.62426   0.00000  Uiso   1.00
H782   H     0.97708   0.11026   0.66372   0.00000  Uiso   1.00
H783   H     0.92552   0.14945   0.66978   0.00000  Uiso   1.00
H784   H     0.96708   0.33023   0.80968   0.00000  Uiso   1.00
H785   H     0.69151   0.33342   0.77941   0.00000  Uiso   1.00
H786   H     0.89067   0.46890   0.68885   0.00000  Uiso   1.00
H787   H     0.74773   0.32702   0.85803   0.00000  Uiso   1.00
H788   H     0.70498   0.37491   0.85523   0.00000  Uiso   1.00
H789   H     0.68998   0.32527   0.88768   0.00000  Uiso   1.00
H790   H     0.94191   0.15372   0.79441   0.00000  Uiso   1.00
H791   H     0.96731   0.10365   0.82591   0.00000  Uiso   1.00
H792   H     0.96476   0.14148   0.90330   0.00000  Uiso   1.00
H793   H     0.66901   0.17395   0.86582   0.00000  Uiso   1.00
H794   H     0.93688   0.19087   0.87282   0.00000  Uiso   1.00
H795   H     0.94226   0.34996   0.72513   0.00000  Uiso   1.00
H796   H     0.96238   0.40156   0.69837   0.00000  Uiso   1.00
H797   H     0.80370   0.10719   0.67901   0.00000  Uiso   1.00
H798   H     0.95356   0.36390   0.61924   0.00000  Uiso   1.00
H799   H     0.99835   0.33455   0.66332   0.00000  Uiso   1.00
H800   H     0.93330   0.31282   0.64620   0.00000  Uiso   1.00
H801   H     0.99283   0.28867   0.51631   0.00000  Uiso   1.00
H802   H     0.94669   0.37036   0.97542   0.00000  Uiso   1.00
H803   H     0.80844   0.39237   0.81618   0.00000  Uiso   1.00
H804   H     0.81496   0.02629   0.67961   0.00000  Uiso   1.00
H805   H     0.81980   0.47335   0.81831   0.00000  Uiso   1.00
H806   H     0.75589   0.27312   0.61431   0.00000  Uiso   1.00
H807   H     0.88359   0.30586   0.88190   0.00000  Uiso   1.00
H808   H     0.91090   0.22743   0.62909   0.00000  Uiso   1.00
N809   N     0.83333   0.24999   0.62623   0.00000  Uiso   1.00
N810   N     0.83333   0.25001   0.87376   0.00000  Uiso   1.00
O811   O     0.83334   0.18453   0.78974   0.00000  Uiso   1.00
O812   O     0.67808   0.27205   0.81158   0.00000  Uiso   1.00
O813   O     0.89003   0.11911   0.83208   0.00000  Uiso   1.00
O814   O     0.88479   0.38218   0.67860   0.00000  Uiso   1.00
O815   O     0.73659   0.29427   0.97835   0.00000  Uiso   1.00
O816   O     0.69063   0.27786   0.53901   0.00000  Uiso   1.00
O817   O     0.88357   0.33292   0.51623   0.00000  Uiso   1.00
O818   O     0.92894   0.34579   0.95439   0.00000  Uiso   1.00
O819   O     0.83333   0.31546   0.71026   0.00000  Uiso   1.00
O820   O     0.83334   0.18453   0.71026   0.00000  Uiso   1.00
O821   O     0.83333   0.31547   0.78974   0.00000  Uiso   1.00
O822   O     0.75725   0.25000   0.78044   0.00000  Uiso   1.00
O823   O     0.90942   0.25000   0.71955   0.00000  Uiso   1.00
O824   O     0.75725   0.24999   0.70096   0.00000  Uiso   1.00
O825   O     0.90942   0.25000   0.79903   0.00000  Uiso   1.00
O826   O     0.98910   0.21905   0.69284   0.00000  Uiso   1.00
Zn827  Zn    0.83333   0.25000   0.80307   0.00000  Uiso   1.00
Zn828  Zn    0.83333   0.24999   0.69693   0.00000  Uiso   1.00
C829   C     0.16820   0.66379   0.75031   0.00000  Uiso   1.00
C830   C     0.13735   0.72024   0.94465   0.00000  Uiso   1.00
C831   C     0.16462   0.75240   0.52627   0.00000  Uiso   1.00
C832   C     0.16580   0.75295   0.97314   0.00000  Uiso   1.00
C833   C     0.06730   0.74881   0.73803   0.00000  Uiso   1.00
C834   C     0.26606   0.75021   0.76217   0.00000  Uiso   1.00
C835   C     0.01314   0.74155   0.73295   0.00000  Uiso   1.00
C836   C     0.32042   0.75519   0.76833   0.00000  Uiso   1.00
C837   C     0.20911   0.54892   0.79206   0.00000  Uiso   1.00
C838   C     0.20670   0.95189   0.71684   0.00000  Uiso   1.00
C839   C     0.20361   0.59509   0.79186   0.00000  Uiso   1.00
C840   C     0.16833   0.83627   0.75007   0.00000  Uiso   1.00
C841   C     0.20108   0.90569   0.71555   0.00000  Uiso   1.00
C842   C     0.17589   0.61603   0.75134   0.00000  Uiso   1.00
C843   C     0.17598   0.88418   0.75082   0.00000  Uiso   1.00
C844   C     0.15762   0.59126   0.71055   0.00000  Uiso   1.00
C845   C     0.16037   0.90861   0.78852   0.00000  Uiso   1.00
C846   C     0.16435   0.54546   0.71071   0.00000  Uiso   1.00
C847   C     0.16720   0.95449   0.79003   0.00000  Uiso   1.00
C848   C     0.18919   0.52431   0.75173   0.00000  Uiso   1.00
C849   C     0.18942   0.97609   0.75372   0.00000  Uiso   1.00
C850   C     0.00330   0.67333   0.69638   0.00000  Uiso   1.00
C851   C     0.11990   0.76461   0.54736   0.00000  Uiso   1.00
C852   C     0.29931   0.64615   0.66127   0.00000  Uiso   1.00
C853   C     0.00826   0.81923   0.81068   0.00000  Uiso   1.00
C854   C     0.03976   0.83774   0.85578   0.00000  Uiso   1.00
C855   C     0.27461   0.63308   0.82724   0.00000  Uiso   1.00
C856   C     0.29596   0.66164   0.87001   0.00000  Uiso   1.00
C857   C     0.27098   0.87090   0.69222   0.00000  Uiso   1.00
C858   C     0.29022   0.84387   0.65269   0.00000  Uiso   1.00
C859   C     0.07041   0.77970   0.51888   0.00000  Uiso   1.00
C860   C     0.22507   0.82214   0.97625   0.00000  Uiso   1.00
C861   C     0.19523   0.78484   0.95021   0.00000  Uiso   1.00
C862   C     0.12252   0.76305   0.59769   0.00000  Uiso   1.00
C863   C     0.19506   0.78193   0.90022   0.00000  Uiso   1.00
C864   C     0.20949   0.73770   0.60640   0.00000  Uiso   1.00
C865   C     0.13803   0.71949   0.89508   0.00000  Uiso   1.00
C866   C     0.20931   0.73875   0.55673   0.00000  Uiso   1.00
H867   H     0.22850   0.53229   0.82369   0.00000  Uiso   1.00
H868   H     0.11550   0.69447   0.87355   0.00000  Uiso   1.00
H869   H     0.24410   0.72900   0.54205   0.00000  Uiso   1.00
H870   H     0.11447   0.69543   0.96080   0.00000  Uiso   1.00
H871   H     0.00132   0.65950   0.73282   0.00000  Uiso   1.00
H872   H     0.04352   0.66895   0.68744   0.00000  Uiso   1.00
H873   H     0.30093   0.65814   0.62426   0.00000  Uiso   1.00
H874   H     0.31042   0.61026   0.66372   0.00000  Uiso   1.00
H875   H     0.25885   0.64945   0.66978   0.00000  Uiso   1.00
H876   H     0.30041   0.83023   0.80968   0.00000  Uiso   1.00
H877   H     0.02484   0.83342   0.77941   0.00000  Uiso   1.00
H878   H     0.22400   0.96890   0.68885   0.00000  Uiso   1.00
H879   H     0.08106   0.82702   0.85803   0.00000  Uiso   1.00
H880   H     0.03831   0.87491   0.85523   0.00000  Uiso   1.00
H881   H     0.02332   0.82527   0.88768   0.00000  Uiso   1.00
H882   H     0.27525   0.65372   0.79441   0.00000  Uiso   1.00
H883   H     0.30064   0.60365   0.82591   0.00000  Uiso   1.00
H884   H     0.29810   0.64148   0.90330   0.00000  Uiso   1.00
H885   H     0.00235   0.67395   0.86582   0.00000  Uiso   1.00
H886   H     0.27022   0.69087   0.87282   0.00000  Uiso   1.00
H887   H     0.27559   0.84996   0.72513   0.00000  Uiso   1.00
H888   H     0.29571   0.90156   0.69837   0.00000  Uiso   1.00
H889   H     0.13703   0.60719   0.67901   0.00000  Uiso   1.00
H890   H     0.28689   0.86390   0.61924   0.00000  Uiso   1.00
H891   H     0.33168   0.83455   0.66332   0.00000  Uiso   1.00
H892   H     0.26663   0.81282   0.64620   0.00000  Uiso   1.00
H893   H     0.32616   0.78867   0.51631   0.00000  Uiso   1.00
H894   H     0.28002   0.87036   0.97542   0.00000  Uiso   1.00
H895   H     0.14178   0.89237   0.81618   0.00000  Uiso   1.00
H896   H     0.14830   0.52629   0.67961   0.00000  Uiso   1.00
H897   H     0.15314   0.97335   0.81831   0.00000  Uiso   1.00
H898   H     0.08922   0.77312   0.61431   0.00000  Uiso   1.00
H899   H     0.21692   0.80586   0.88190   0.00000  Uiso   1.00
H900   H     0.24423   0.72743   0.62909   0.00000  Uiso   1.00
N901   N     0.16667   0.74999   0.62623   0.00000  Uiso   1.00
N902   N     0.16667   0.75001   0.87376   0.00000  Uiso   1.00
O903   O     0.16667   0.68453   0.78974   0.00000  Uiso   1.00
O904   O     0.01141   0.77205   0.81158   0.00000  Uiso   1.00
O905   O     0.22336   0.61911   0.83208   0.00000  Uiso   1.00
O906   O     0.21812   0.88218   0.67860   0.00000  Uiso   1.00
O907   O     0.06992   0.79427   0.97835   0.00000  Uiso   1.00
O908   O     0.02397   0.77786   0.53901   0.00000  Uiso   1.00
O909   O     0.21691   0.83292   0.51623   0.00000  Uiso   1.00
O910   O     0.26227   0.84579   0.95439   0.00000  Uiso   1.00
O911   O     0.16666   0.81546   0.71026   0.00000  Uiso   1.00
O912   O     0.16667   0.68453   0.71026   0.00000  Uiso   1.00
O913   O     0.16666   0.81547   0.78974   0.00000  Uiso   1.00
O914   O     0.09058   0.75000   0.78044   0.00000  Uiso   1.00
O915   O     0.24275   0.75000   0.71955   0.00000  Uiso   1.00
O916   O     0.09058   0.74999   0.70096   0.00000  Uiso   1.00
O917   O     0.24275   0.75000   0.79903   0.00000  Uiso   1.00
O918   O     0.32244   0.71905   0.69284   0.00000  Uiso   1.00
Zn919  Zn    0.16667   0.75000   0.80307   0.00000  Uiso   1.00
Zn920  Zn    0.16667   0.74999   0.69693   0.00000  Uiso   1.00
C921   C     0.50154   0.66379   0.75031   0.00000  Uiso   1.00
C922   C     0.47068   0.72024   0.94465   0.00000  Uiso   1.00
C923   C     0.49795   0.75240   0.52627   0.00000  Uiso   1.00
C924   C     0.49914   0.75295   0.97314   0.00000  Uiso   1.00
C925   C     0.40063   0.74881   0.73803   0.00000  Uiso   1.00
C926   C     0.59939   0.75021   0.76217   0.00000  Uiso   1.00
C927   C     0.34647   0.74155   0.73295   0.00000  Uiso   1.00
C928   C     0.65376   0.75519   0.76833   0.00000  Uiso   1.00
C929   C     0.54244   0.54892   0.79206   0.00000  Uiso   1.00
C930   C     0.54003   0.95189   0.71684   0.00000  Uiso   1.00
C931   C     0.53694   0.59509   0.79186   0.00000  Uiso   1.00
C932   C     0.50166   0.83627   0.75007   0.00000  Uiso   1.00
C933   C     0.53441   0.90569   0.71555   0.00000  Uiso   1.00
C934   C     0.50923   0.61603   0.75134   0.00000  Uiso   1.00
C935   C     0.50931   0.88418   0.75082   0.00000  Uiso   1.00
C936   C     0.49095   0.59126   0.71055   0.00000  Uiso   1.00
C937   C     0.49370   0.90861   0.78852   0.00000  Uiso   1.00
C938   C     0.49768   0.54546   0.71071   0.00000  Uiso   1.00
C939   C     0.50053   0.95449   0.79003   0.00000  Uiso   1.00
C940   C     0.52252   0.52431   0.75173   0.00000  Uiso   1.00
C941   C     0.52275   0.97609   0.75372   0.00000  Uiso   1.00
C942   C     0.33664   0.67333   0.69638   0.00000  Uiso   1.00
C943   C     0.45323   0.76461   0.54736   0.00000  Uiso   1.00
C944   C     0.63265   0.64615   0.66127   0.00000  Uiso   1.00
C945   C     0.34160   0.81923   0.81068   0.00000  Uiso   1.00
C946   C     0.37309   0.83774   0.85578   0.00000  Uiso   1.00
C947   C     0.60794   0.63308   0.82724   0.00000  Uiso   1.00
C948   C     0.62929   0.66164   0.87001   0.00000  Uiso   1.00
C949   C     0.60431   0.87090   0.69222   0.00000  Uiso   1.00
C950   C     0.62355   0.84387   0.65269   0.00000  Uiso   1.00
C951   C     0.40374   0.77970   0.51888   0.00000  Uiso   1.00
C952   C     0.55841   0.82214   0.97625   0.00000  Uiso   1.00
C953   C     0.52856   0.78484   0.95021   0.00000  Uiso   1.00
C954   C     0.45586   0.76305   0.59769   0.00000  Uiso   1.00
C955   C     0.52839   0.78193   0.90022   0.00000  Uiso   1.00
C956   C     0.54282   0.73770   0.60640   0.00000  Uiso   1.00
C957   C     0.47137   0.71949   0.89508   0.00000  Uiso   1.00
C958   C     0.54265   0.73875   0.55673   0.00000  Uiso   1.00
H959   H     0.56184   0.53229   0.82369   0.00000  Uiso   1.00
H960   H     0.44883   0.69447   0.87355   0.00000  Uiso   1.00
H961   H     0.57743   0.72900   0.54205   0.00000  Uiso   1.00
H962   H     0.44781   0.69543   0.96080   0.00000  Uiso   1.00
H963   H     0.33465   0.65950   0.73282   0.00000  Uiso   1.00
H964   H     0.37686   0.66895   0.68744   0.00000  Uiso   1.00
H965   H     0.63427   0.65814   0.62426   0.00000  Uiso   1.00
H966   H     0.64375   0.61026   0.66372   0.00000  Uiso   1.00
H967   H     0.59218   0.64945   0.66978   0.00000  Uiso   1.00
H968   H     0.63375   0.83023   0.80968   0.00000  Uiso   1.00
H969   H     0.35817   0.83342   0.77941   0.00000  Uiso   1.00
H970   H     0.55733   0.96890   0.68885   0.00000  Uiso   1.00
H971   H     0.41440   0.82702   0.85803   0.00000  Uiso   1.00
H972   H     0.37164   0.87491   0.85523   0.00000  Uiso   1.00
H973   H     0.35665   0.82527   0.88768   0.00000  Uiso   1.00
H974   H     0.60858   0.65372   0.79441   0.00000  Uiso   1.00
H975   H     0.63398   0.60365   0.82591   0.00000  Uiso   1.00
H976   H     0.63143   0.64148   0.90330   0.00000  Uiso   1.00
H977   H     0.33568   0.67395   0.86582   0.00000  Uiso   1.00
H978   H     0.60355   0.69087   0.87282   0.00000  Uiso   1.00
H979   H     0.60892   0.84996   0.72513   0.00000  Uiso   1.00
H980   H     0.62905   0.90156   0.69837   0.00000  Uiso   1.00
H981   H     0.47037   0.60719   0.67901   0.00000  Uiso   1.00
H982   H     0.62023   0.86390   0.61924   0.00000  Uiso   1.00
H983   H     0.66502   0.83455   0.66332   0.00000  Uiso   1.00
H984   H     0.59997   0.81282   0.64620   0.00000  Uiso   1.00
H985   H     0.65950   0.78867   0.51631   0.00000  Uiso   1.00
H986   H     0.61336   0.87036   0.97542   0.00000  Uiso   1.00
H987   H     0.47511   0.89237   0.81618   0.00000  Uiso   1.00
H988   H     0.48163   0.52629   0.67961   0.00000  Uiso   1.00
H989   H     0.48647   0.97335   0.81831   0.00000  Uiso   1.00
H990   H     0.42255   0.77312   0.61431   0.00000  Uiso   1.00
H991   H     0.55025   0.80586   0.88190   0.00000  Uiso   1.00
H992   H     0.57756   0.72743   0.62909   0.00000  Uiso   1.00
N993   N     0.50000   0.74999   0.62623   0.00000  Uiso   1.00
N994   N     0.50000   0.75001   0.87376   0.00000  Uiso   1.00
O995   O     0.50000   0.68453   0.78974   0.00000  Uiso   1.00
O996   O     0.34475   0.77205   0.81158   0.00000  Uiso   1.00
O997   O     0.55669   0.61911   0.83208   0.00000  Uiso   1.00
O998   O     0.55145   0.88218   0.67860   0.00000  Uiso   1.00
O999   O     0.40325   0.79427   0.97835   0.00000  Uiso   1.00
O1000  O     0.35730   0.77786   0.53901   0.00000  Uiso   1.00
O1001  O     0.55024   0.83292   0.51623   0.00000  Uiso   1.00
O1002  O     0.59560   0.84579   0.95439   0.00000  Uiso   1.00
O1003  O     0.50000   0.81546   0.71026   0.00000  Uiso   1.00
O1004  O     0.50000   0.68453   0.71026   0.00000  Uiso   1.00
O1005  O     0.50000   0.81547   0.78974   0.00000  Uiso   1.00
O1006  O     0.42392   0.75000   0.78044   0.00000  Uiso   1.00
O1007  O     0.57608   0.75000   0.71955   0.00000  Uiso   1.00
O1008  O     0.42392   0.74999   0.70096   0.00000  Uiso   1.00
O1009  O     0.57608   0.75000   0.79903   0.00000  Uiso   1.00
O1010  O     0.65577   0.71905   0.69284   0.00000  Uiso   1.00
Zn1011 Zn    0.50000   0.75000   0.80307   0.00000  Uiso   1.00
Zn1012 Zn    0.50000   0.74999   0.69693   0.00000  Uiso   1.00
C1013  C     0.83487   0.66379   0.75031   0.00000  Uiso   1.00
C1014  C     0.80402   0.72024   0.94465   0.00000  Uiso   1.00
C1015  C     0.83128   0.75240   0.52627   0.00000  Uiso   1.00
C1016  C     0.83247   0.75295   0.97314   0.00000  Uiso   1.00
C1017  C     0.73397   0.74881   0.73803   0.00000  Uiso   1.00
C1018  C     0.93273   0.75021   0.76217   0.00000  Uiso   1.00
C1019  C     0.67980   0.74155   0.73295   0.00000  Uiso   1.00
C1020  C     0.98709   0.75519   0.76833   0.00000  Uiso   1.00
C1021  C     0.87578   0.54892   0.79206   0.00000  Uiso   1.00
C1022  C     0.87336   0.95189   0.71684   0.00000  Uiso   1.00
C1023  C     0.87027   0.59509   0.79186   0.00000  Uiso   1.00
C1024  C     0.83500   0.83627   0.75007   0.00000  Uiso   1.00
C1025  C     0.86774   0.90569   0.71555   0.00000  Uiso   1.00
C1026  C     0.84256   0.61603   0.75134   0.00000  Uiso   1.00
C1027  C     0.84265   0.88418   0.75082   0.00000  Uiso   1.00
C1028  C     0.82428   0.59126   0.71055   0.00000  Uiso   1.00
C1029  C     0.82703   0.90861   0.78852   0.00000  Uiso   1.00
C1030  C     0.83102   0.54546   0.71071   0.00000  Uiso   1.00
C1031  C     0.83387   0.95449   0.79003   0.00000  Uiso   1.00
C1032  C     0.85585   0.52431   0.75173   0.00000  Uiso   1.00
C1033  C     0.85608   0.97609   0.75372   0.00000  Uiso   1.00
C1034  C     0.66997   0.67333   0.69638   0.00000  Uiso   1.00
C1035  C     0.78656   0.76461   0.54736   0.00000  Uiso   1.00
C1036  C     0.96598   0.64615   0.66127   0.00000  Uiso   1.00
C1037  C     0.67493   0.81923   0.81068   0.00000  Uiso   1.00
C1038  C     0.70642   0.83774   0.85578   0.00000  Uiso   1.00
C1039  C     0.94128   0.63308   0.82724   0.00000  Uiso   1.00
C1040  C     0.96263   0.66164   0.87001   0.00000  Uiso   1.00
C1041  C     0.93764   0.87090   0.69222   0.00000  Uiso   1.00
C1042  C     0.95689   0.84387   0.65269   0.00000  Uiso   1.00
C1043  C     0.73707   0.77970   0.51888   0.00000  Uiso   1.00
C1044  C     0.89174   0.82214   0.97625   0.00000  Uiso   1.00
C1045  C     0.86189   0.78484   0.95021   0.00000  Uiso   1.00
C1046  C     0.78919   0.76305   0.59769   0.00000  Uiso   1.00
C1047  C     0.86173   0.78193   0.90022   0.00000  Uiso   1.00
C1048  C     0.87615   0.73770   0.60640   0.00000  Uiso   1.00
C1049  C     0.80470   0.71949   0.89508   0.00000  Uiso   1.00
C1050  C     0.87598   0.73875   0.55673   0.00000  Uiso   1.00
H1051  H     0.89517   0.53229   0.82369   0.00000  Uiso   1.00
H1052  H     0.78216   0.69447   0.87355   0.00000  Uiso   1.00
H1053  H     0.91076   0.72900   0.54205   0.00000  Uiso   1.00
H1054  H     0.78114   0.69543   0.96080   0.00000  Uiso   1.00
H1055  H     0.66799   0.65950   0.73282   0.00000  Uiso   1.00
H1056  H     0.71019   0.66895   0.68744   0.00000  Uiso   1.00
H1057  H     0.96760   0.65814   0.62426   0.00000  Uiso   1.00
H1058  H     0.97708   0.61026   0.66372   0.00000  Uiso   1.00
H1059  H     0.92552   0.64945   0.66978   0.00000  Uiso   1.00
H1060  H     0.96708   0.83023   0.80968   0.00000  Uiso   1.00
H1061  H     0.69151   0.83342   0.77941   0.00000  Uiso   1.00
H1062  H     0.89067   0.96890   0.68885   0.00000  Uiso   1.00
H1063  H     0.74773   0.82702   0.85803   0.00000  Uiso   1.00
H1064  H     0.70498   0.87491   0.85523   0.00000  Uiso   1.00
H1065  H     0.68998   0.82527   0.88768   0.00000  Uiso   1.00
H1066  H     0.94191   0.65372   0.79441   0.00000  Uiso   1.00
H1067  H     0.96731   0.60365   0.82591   0.00000  Uiso   1.00
H1068  H     0.96476   0.64148   0.90330   0.00000  Uiso   1.00
H1069  H     0.66901   0.67395   0.86582   0.00000  Uiso   1.00
H1070  H     0.93688   0.69087   0.87282   0.00000  Uiso   1.00
H1071  H     0.94226   0.84996   0.72513   0.00000  Uiso   1.00
H1072  H     0.96238   0.90156   0.69837   0.00000  Uiso   1.00
H1073  H     0.80370   0.60719   0.67901   0.00000  Uiso   1.00
H1074  H     0.95356   0.86390   0.61924   0.00000  Uiso   1.00
H1075  H     0.99835   0.83455   0.66332   0.00000  Uiso   1.00
H1076  H     0.93330   0.81282   0.64620   0.00000  Uiso   1.00
H1077  H     0.99283   0.78867   0.51631   0.00000  Uiso   1.00
H1078  H     0.94669   0.87036   0.97542   0.00000  Uiso   1.00
H1079  H     0.80844   0.89237   0.81618   0.00000  Uiso   1.00
H1080  H     0.81496   0.52629   0.67961   0.00000  Uiso   1.00
H1081  H     0.81980   0.97335   0.81831   0.00000  Uiso   1.00
H1082  H     0.75589   0.77312   0.61431   0.00000  Uiso   1.00
H1083  H     0.88359   0.80586   0.88190   0.00000  Uiso   1.00
H1084  H     0.91090   0.72743   0.62909   0.00000  Uiso   1.00
N1085  N     0.83333   0.74999   0.62623   0.00000  Uiso   1.00
N1086  N     0.83333   0.75001   0.87376   0.00000  Uiso   1.00
O1087  O     0.83334   0.68453   0.78974   0.00000  Uiso   1.00
O1088  O     0.67808   0.77205   0.81158   0.00000  Uiso   1.00
O1089  O     0.89003   0.61911   0.83208   0.00000  Uiso   1.00
O1090  O     0.88479   0.88218   0.67860   0.00000  Uiso   1.00
O1091  O     0.73659   0.79427   0.97835   0.00000  Uiso   1.00
O1092  O     0.69063   0.77786   0.53901   0.00000  Uiso   1.00
O1093  O     0.88357   0.83292   0.51623   0.00000  Uiso   1.00
O1094  O     0.92894   0.84579   0.95439   0.00000  Uiso   1.00
O1095  O     0.83333   0.81546   0.71026   0.00000  Uiso   1.00
O1096  O     0.83334   0.68453   0.71026   0.00000  Uiso   1.00
O1097  O     0.83333   0.81547   0.78974   0.00000  Uiso   1.00
O1098  O     0.75725   0.75000   0.78044   0.00000  Uiso   1.00
O1099  O     0.90942   0.75000   0.71955   0.00000  Uiso   1.00
O1100  O     0.75725   0.74999   0.70096   0.00000  Uiso   1.00
O1101  O     0.90942   0.75000   0.79903   0.00000  Uiso   1.00
O1102  O     0.98910   0.71905   0.69284   0.00000  Uiso   1.00
Zn1103 Zn    0.83333   0.75000   0.80307   0.00000  Uiso   1.00
Zn1104 Zn    0.83333   0.74999   0.69693   0.00000  Uiso   1.00
loop_
_geom_bond_atom_site_label_1
_geom_bond_atom_site_label_2
_geom_bond_distance
_geom_bond_site_symmetry_2
_ccdc_geom_bond_type
C1     O84     1.284   .     A
C1     O75     1.283   .     A
C1     C14     1.440   .     S
C2     C4      1.407   .     A
C2     C37     1.404   .     A
C2     H42     1.083   .     S
C3     C23     1.422   .     A
C3     C38     1.406   .     A
C3     C556    1.507   1_554 S
C4     C33     1.424   .     A
C4     C555    1.507   .     S
C5     O88     1.278   .     A
C5     C7      1.405   .     S
C5     O86     1.267   .     A
C6     C8      1.401   .     S
C6     O87     1.272   .     A
C6     O89     1.274   .     A
C7     C192    1.346   1_455 S
C7     O274    1.390   1_455 S
C8     C99     1.346   .     S
C8     O168    1.391   .     S
C9     H39     1.084   .     S
C9     C20     1.396   .     A
C9     C11     1.386   .     A
C10    C21     1.395   .     A
C10    H50     1.084   .     S
C10    C13     1.386   .     A
C11    C14     1.411   .     A
C11    O77     1.383   .     S
C12    O85     1.286   .     A
C12    C15     1.443   .     S
C12    O83     1.283   .     A
C13    C15     1.412   .     A
C13    O78     1.383   .     S
C14    C16     1.398   .     A
C15    C17     1.399   .     A
C16    H61     1.084   .     S
C16    C18     1.379   .     A
C17    C19     1.380   .     A
C17    H67     1.084   .     S
C18    H68     1.084   .     S
C18    C20     1.397   .     A
C19    C21     1.397   .     A
C19    H69     1.084   .     S
C20    C297    1.440   1_545 S
C21    C296    1.440   .     S
C22    H44     1.113   .     S
C22    H43     1.116   .     S
C22    C208    1.521   1_455 S
C22    O274    1.415   1_455 S
C23    C31     1.488   .     S
C23    C34     1.416   .     A
C24    H45     1.111   .     S
C24    H47     1.111   .     S
C24    H46     1.110   .     S
C24    C114    1.521   .     S
C25    C26     1.521   .     S
C25    O76     1.411   .     S
C25    H49     1.115   .     S
C25    H232    1.114   1_455 S
C26    H52     1.110   .     S
C26    H53     1.111   .     S
C26    H51     1.111   .     S
C27    H54     1.114   .     S
C27    H55     1.114   .     S
C27    O77     1.412   .     S
C27    C28     1.522   .     S
C28    H56     1.110   .     S
C28    H58     1.111   .     S
C28    H149    1.111   .     S
C29    O78     1.412   .     S
C29    H59     1.112   .     S
C29    C30     1.521   .     S
C29    H60     1.114   .     S
C30    H64     1.109   .     S
C30    H62     1.111   .     S
C30    H63     1.111   .     S
C31    O80     1.399   .     S
C31    O631    1.222   1_554 S
C32    O82     1.399   .     S
C32    C33     1.490   .     S
C32    O633    1.223   .     S
C33    C35     1.416   .     A
C34    H70     1.081   .     S
C34    N73     1.364   .     A
C35    N74     1.362   .     A
C35    H71     1.082   .     S
C36    C38     1.404   .     A
C36    N73     1.361   .     A
C36    H72     1.076   .     S
C37    N74     1.361   .     A
C37    H40     1.082   .     S
C38    H41     1.083   .     S
H48    C117    1.114   .     S
H57    C212    1.111   1_455 S
H65    O172    1.013   .     S
H66    O82     1.014   .     S
N73    Zn92    1.999   .     S
N74    Zn91    1.999   .     S
O75    Zn91    1.992   .     S
O76    C192    1.391   1_455 S
O79    C583    1.222   .     S
O80    H249    1.013   1_455 S
O81    C584    1.223   1_554 S
O83    Zn92    1.992   .     S
O84    Zn92    1.989   .     S
O85    Zn91    1.989   .     S
O86    Zn91    1.985   .     S
O87    Zn92    1.985   .     S
O88    Zn92    1.988   .     S
O89    Zn91    1.988   .     S
O90    C99     1.390   .     S
O90    C114    1.415   .     S
C93    O176    1.284   .     A
C93    O167    1.283   .     A
C93    C106    1.440   .     S
C94    C96     1.407   .     A
C94    C129    1.404   .     A
C94    H134    1.083   .     S
C95    C115    1.422   .     A
C95    C130    1.406   .     A
C95    C648    1.507   1_554 S
C96    C125    1.424   .     A
C96    C647    1.507   .     S
C97    O180    1.278   .     A
C97    C99     1.405   .     S
C97    O178    1.267   .     A
C98    C100    1.401   .     S
C98    O179    1.272   .     A
C98    O181    1.274   .     A
C100   C191    1.346   .     S
C100   O260    1.391   .     S
C101   H131    1.084   .     S
C101   C112    1.396   .     A
C101   C103    1.386   .     A
C102   C113    1.395   .     A
C102   H142    1.084   .     S
C102   C105    1.386   .     A
C103   C106    1.411   .     A
C103   O169    1.383   .     S
C104   O177    1.286   .     A
C104   C107    1.443   .     S
C104   O175    1.283   .     A
C105   C107    1.412   .     A
C105   O170    1.383   .     S
C106   C108    1.398   .     A
C107   C109    1.399   .     A
C108   H153    1.084   .     S
C108   C110    1.379   .     A
C109   C111    1.380   .     A
C109   H159    1.084   .     S
C110   H160    1.084   .     S
C110   C112    1.397   .     A
C111   C113    1.397   .     A
C111   H161    1.084   .     S
C112   C389    1.440   1_545 S
C113   C388    1.440   .     S
C114   H136    1.113   .     S
C114   H135    1.116   .     S
C115   C123    1.488   .     S
C115   C126    1.416   .     A
C116   H137    1.111   .     S
C116   H139    1.111   .     S
C116   H138    1.110   .     S
C116   C206    1.521   .     S
C117   C118    1.521   .     S
C117   O168    1.411   .     S
C117   H141    1.115   .     S
C118   H144    1.110   .     S
C118   H145    1.111   .     S
C118   H143    1.111   .     S
C119   H146    1.114   .     S
C119   H147    1.114   .     S
C119   O169    1.412   .     S
C119   C120    1.522   .     S
C120   H148    1.110   .     S
C120   H150    1.111   .     S
C120   H241    1.111   .     S
C121   O170    1.412   .     S
C121   H151    1.112   .     S
C121   C122    1.521   .     S
C121   H152    1.114   .     S
C122   H156    1.109   .     S
C122   H154    1.111   .     S
C122   H155    1.111   .     S
C123   O172    1.399   .     S
C123   O723    1.222   1_554 S
C124   O174    1.399   .     S
C124   C125    1.490   .     S
C124   O725    1.223   .     S
C125   C127    1.416   .     A
C126   H162    1.081   .     S
C126   N165    1.364   .     A
C127   N166    1.362   .     A
C127   H163    1.082   .     S
C128   C130    1.404   .     A
C128   N165    1.361   .     A
C128   H164    1.076   .     S
C129   N166    1.361   .     A
C129   H132    1.082   .     S
C130   H133    1.083   .     S
H140   C209    1.114   .     S
H157   O264    1.013   .     S
H158   O174    1.014   .     S
N165   Zn184   1.999   .     S
N166   Zn183   1.999   .     S
O167   Zn183   1.992   .     S
O171   C675    1.222   .     S
O173   C676    1.223   1_554 S
O175   Zn184   1.992   .     S
O176   Zn184   1.989   .     S
O177   Zn183   1.989   .     S
O178   Zn183   1.985   .     S
O179   Zn184   1.985   .     S
O180   Zn184   1.988   .     S
O181   Zn183   1.988   .     S
O182   C191    1.390   .     S
O182   C206    1.415   .     S
C185   O268    1.284   .     A
C185   O259    1.283   .     A
C185   C198    1.440   .     S
C186   C188    1.407   .     A
C186   C221    1.404   .     A
C186   H226    1.083   .     S
C187   C207    1.422   .     A
C187   C222    1.406   .     A
C187   C740    1.507   1_554 S
C188   C217    1.424   .     A
C188   C739    1.507   .     S
C189   O272    1.278   .     A
C189   C191    1.405   .     S
C189   O270    1.267   .     A
C190   C192    1.401   .     S
C190   O271    1.272   .     A
C190   O273    1.274   .     A
C192   C7      1.346   1_655 S
C192   O76     1.391   1_655 S
C193   H223    1.084   .     S
C193   C204    1.396   .     A
C193   C195    1.386   .     A
C194   C205    1.395   .     A
C194   H234    1.084   .     S
C194   C197    1.386   .     A
C195   C198    1.411   .     A
C195   O261    1.383   .     S
C196   O269    1.286   .     A
C196   C199    1.443   .     S
C196   O267    1.283   .     A
C197   C199    1.412   .     A
C197   O262    1.383   .     S
C198   C200    1.398   .     A
C199   C201    1.399   .     A
C200   H245    1.084   .     S
C200   C202    1.379   .     A
C201   C203    1.380   .     A
C201   H251    1.084   .     S
C202   H252    1.084   .     S
C202   C204    1.397   .     A
C203   C205    1.397   .     A
C203   H253    1.084   .     S
C204   C481    1.440   1_545 S
C205   C480    1.440   .     S
C206   H228    1.113   .     S
C206   H227    1.116   .     S
C207   C215    1.488   .     S
C207   C218    1.416   .     A
C208   H229    1.111   .     S
C208   H231    1.111   .     S
C208   H230    1.110   .     S
C208   C22     1.521   1_655 S
C209   C210    1.521   .     S
C209   O260    1.411   .     S
C209   H233    1.115   .     S
C210   H236    1.110   .     S
C210   H237    1.111   .     S
C210   H235    1.111   .     S
C211   H238    1.114   .     S
C211   H239    1.114   .     S
C211   O261    1.412   .     S
C211   C212    1.522   .     S
C212   H240    1.110   .     S
C212   H242    1.111   .     S
C212   H57     1.111   1_655 S
C213   O262    1.412   .     S
C213   H243    1.112   .     S
C213   C214    1.521   .     S
C213   H244    1.114   .     S
C214   H248    1.109   .     S
C214   H246    1.111   .     S
C214   H247    1.111   .     S
C215   O264    1.399   .     S
C215   O815    1.222   1_554 S
C216   O266    1.399   .     S
C216   C217    1.490   .     S
C216   O817    1.223   .     S
C217   C219    1.416   .     A
C218   H254    1.081   .     S
C218   N257    1.364   .     A
C219   N258    1.362   .     A
C219   H255    1.082   .     S
C220   C222    1.404   .     A
C220   N257    1.361   .     A
C220   H256    1.076   .     S
C221   N258    1.361   .     A
C221   H224    1.082   .     S
C222   H225    1.083   .     S
H232   C25     1.114   1_655 S
H249   O80     1.013   1_655 S
H250   O266    1.014   .     S
N257   Zn276   1.999   .     S
N258   Zn275   1.999   .     S
O259   Zn275   1.992   .     S
O263   C767    1.222   .     S
O265   C768    1.223   1_554 S
O267   Zn276   1.992   .     S
O268   Zn276   1.989   .     S
O269   Zn275   1.989   .     S
O270   Zn275   1.985   .     S
O271   Zn276   1.985   .     S
O272   Zn276   1.988   .     S
O273   Zn275   1.988   .     S
O274   C7      1.390   1_655 S
O274   C22     1.415   1_655 S
C277   O360    1.284   .     A
C277   O351    1.283   .     A
C277   C290    1.440   .     S
C278   C280    1.407   .     A
C278   C313    1.404   .     A
C278   H318    1.083   .     S
C279   C299    1.422   .     A
C279   C314    1.406   .     A
C279   C832    1.507   1_554 S
C280   C309    1.424   .     A
C280   C831    1.507   .     S
C281   O364    1.278   .     A
C281   C283    1.405   .     S
C281   O362    1.267   .     A
C282   C284    1.401   .     S
C282   O363    1.272   .     A
C282   O365    1.274   .     A
C283   C468    1.346   1_455 S
C283   O550    1.390   1_455 S
C284   C375    1.346   .     S
C284   O444    1.391   .     S
C285   H315    1.084   .     S
C285   C296    1.396   .     A
C285   C287    1.386   .     A
C286   C297    1.395   .     A
C286   H326    1.084   .     S
C286   C289    1.386   .     A
C287   C290    1.411   .     A
C287   O353    1.383   .     S
C288   O361    1.286   .     A
C288   C291    1.443   .     S
C288   O359    1.283   .     A
C289   C291    1.412   .     A
C289   O354    1.383   .     S
C290   C292    1.398   .     A
C291   C293    1.399   .     A
C292   H337    1.084   .     S
C292   C294    1.379   .     A
C293   C295    1.380   .     A
C293   H343    1.084   .     S
C294   H344    1.084   .     S
C294   C296    1.397   .     A
C295   C297    1.397   .     A
C295   H345    1.084   .     S
C297   C20     1.440   1_565 S
C298   H320    1.113   .     S
C298   H319    1.116   .     S
C298   C484    1.521   1_455 S
C298   O550    1.415   1_455 S
C299   C307    1.488   .     S
C299   C310    1.416   .     A
C300   H321    1.111   .     S
C300   H323    1.111   .     S
C300   H322    1.110   .     S
C300   C390    1.521   .     S
C301   C302    1.521   .     S
C301   O352    1.411   .     S
C301   H325    1.115   .     S
C301   H508    1.114   1_455 S
C302   H328    1.110   .     S
C302   H329    1.111   .     S
C302   H327    1.111   .     S
C303   H330    1.114   .     S
C303   H331    1.114   .     S
C303   O353    1.412   .     S
C303   C304    1.522   .     S
C304   H332    1.110   .     S
C304   H334    1.111   .     S
C304   H425    1.111   .     S
C305   O354    1.412   .     S
C305   H335    1.112   .     S
C305   C306    1.521   .     S
C305   H336    1.114   .     S
C306   H340    1.109   .     S
C306   H338    1.111   .     S
C306   H339    1.111   .     S
C307   O356    1.399   .     S
C307   O907    1.222   1_554 S
C308   O358    1.399   .     S
C308   C309    1.490   .     S
C308   O909    1.223   .     S
C309   C311    1.416   .     A
C310   H346    1.081   .     S
C310   N349    1.364   .     A
C311   N350    1.362   .     A
C311   H347    1.082   .     S
C312   C314    1.404   .     A
C312   N349    1.361   .     A
C312   H348    1.076   .     S
C313   N350    1.361   .     A
C313   H316    1.082   .     S
C314   H317    1.083   .     S
H324   C393    1.114   .     S
H333   C488    1.111   1_455 S
H341   O448    1.013   .     S
H342   O358    1.014   .     S
N349   Zn368   1.999   .     S
N350   Zn367   1.999   .     S
O351   Zn367   1.992   .     S
O352   C468    1.391   1_455 S
O355   C859    1.222   .     S
O356   H525    1.013   1_455 S
O357   C860    1.223   1_554 S
O359   Zn368   1.992   .     S
O360   Zn368   1.989   .     S
O361   Zn367   1.989   .     S
O362   Zn367   1.985   .     S
O363   Zn368   1.985   .     S
O364   Zn368   1.988   .     S
O365   Zn367   1.988   .     S
O366   C375    1.390   .     S
O366   C390    1.415   .     S
C369   O452    1.284   .     A
C369   O443    1.283   .     A
C369   C382    1.440   .     S
C370   C372    1.407   .     A
C370   C405    1.404   .     A
C370   H410    1.083   .     S
C371   C391    1.422   .     A
C371   C406    1.406   .     A
C371   C924    1.507   1_554 S
C372   C401    1.424   .     A
C372   C923    1.507   .     S
C373   O456    1.278   .     A
C373   C375    1.405   .     S
C373   O454    1.267   .     A
C374   C376    1.401   .     S
C374   O455    1.272   .     A
C374   O457    1.274   .     A
C376   C467    1.346   .     S
C376   O536    1.391   .     S
C377   H407    1.084   .     S
C377   C388    1.396   .     A
C377   C379    1.386   .     A
C378   C389    1.395   .     A
C378   H418    1.084   .     S
C378   C381    1.386   .     A
C379   C382    1.411   .     A
C379   O445    1.383   .     S
C380   O453    1.286   .     A
C380   C383    1.443   .     S
C380   O451    1.283   .     A
C381   C383    1.412   .     A
C381   O446    1.383   .     S
C382   C384    1.398   .     A
C383   C385    1.399   .     A
C384   H429    1.084   .     S
C384   C386    1.379   .     A
C385   C387    1.380   .     A
C385   H435    1.084   .     S
C386   H436    1.084   .     S
C386   C388    1.397   .     A
C387   C389    1.397   .     A
C387   H437    1.084   .     S
C389   C112    1.440   1_565 S
C390   H412    1.113   .     S
C390   H411    1.116   .     S
C391   C399    1.488   .     S
C391   C402    1.416   .     A
C392   H413    1.111   .     S
C392   H415    1.111   .     S
C392   H414    1.110   .     S
C392   C482    1.521   .     S
C393   C394    1.521   .     S
C393   O444    1.411   .     S
C393   H417    1.115   .     S
C394   H420    1.110   .     S
C394   H421    1.111   .     S
C394   H419    1.111   .     S
C395   H422    1.114   .     S
C395   H423    1.114   .     S
C395   O445    1.412   .     S
C395   C396    1.522   .     S
C396   H424    1.110   .     S
C396   H426    1.111   .     S
C396   H517    1.111   .     S
C397   O446    1.412   .     S
C397   H427    1.112   .     S
C397   C398    1.521   .     S
C397   H428    1.114   .     S
C398   H432    1.109   .     S
C398   H430    1.111   .     S
C398   H431    1.111   .     S
C399   O448    1.399   .     S
C399   O999    1.222   1_554 S
C400   O450    1.399   .     S
C400   C401    1.490   .     S
C400   O1001   1.223   .     S
C401   C403    1.416   .     A
C402   H438    1.081   .     S
C402   N441    1.364   .     A
C403   N442    1.362   .     A
C403   H439    1.082   .     S
C404   C406    1.404   .     A
C404   N441    1.361   .     A
C404   H440    1.076   .     S
C405   N442    1.361   .     A
C405   H408    1.082   .     S
C406   H409    1.083   .     S
H416   C485    1.114   .     S
H433   O540    1.013   .     S
H434   O450    1.014   .     S
N441   Zn460   1.999   .     S
N442   Zn459   1.999   .     S
O443   Zn459   1.992   .     S
O447   C951    1.222   .     S
O449   C952    1.223   1_554 S
O451   Zn460   1.992   .     S
O452   Zn460   1.989   .     S
O453   Zn459   1.989   .     S
O454   Zn459   1.985   .     S
O455   Zn460   1.985   .     S
O456   Zn460   1.988   .     S
O457   Zn459   1.988   .     S
O458   C467    1.390   .     S
O458   C482    1.415   .     S
C461   O544    1.284   .     A
C461   O535    1.283   .     A
C461   C474    1.440   .     S
C462   C464    1.407   .     A
C462   C497    1.404   .     A
C462   H502    1.083   .     S
C463   C483    1.422   .     A
C463   C498    1.406   .     A
C463   C1016   1.507   1_554 S
C464   C493    1.424   .     A
C464   C1015   1.507   .     S
C465   O548    1.278   .     A
C465   C467    1.405   .     S
C465   O546    1.267   .     A
C466   C468    1.401   .     S
C466   O547    1.272   .     A
C466   O549    1.274   .     A
C468   C283    1.346   1_655 S
C468   O352    1.391   1_655 S
C469   H499    1.084   .     S
C469   C480    1.396   .     A
C469   C471    1.386   .     A
C470   C481    1.395   .     A
C470   H510    1.084   .     S
C470   C473    1.386   .     A
C471   C474    1.411   .     A
C471   O537    1.383   .     S
C472   O545    1.286   .     A
C472   C475    1.443   .     S
C472   O543    1.283   .     A
C473   C475    1.412   .     A
C473   O538    1.383   .     S
C474   C476    1.398   .     A
C475   C477    1.399   .     A
C476   H521    1.084   .     S
C476   C478    1.379   .     A
C477   C479    1.380   .     A
C477   H527    1.084   .     S
C478   H528    1.084   .     S
C478   C480    1.397   .     A
C479   C481    1.397   .     A
C479   H529    1.084   .     S
C481   C204    1.440   1_565 S
C482   H504    1.113   .     S
C482   H503    1.116   .     S
C483   C491    1.488   .     S
C483   C494    1.416   .     A
C484   H505    1.111   .     S
C484   H507    1.111   .     S
C484   H506    1.110   .     S
C484   C298    1.521   1_655 S
C485   C486    1.521   .     S
C485   O536    1.411   .     S
C485   H509    1.115   .     S
C486   H512    1.110   .     S
C486   H513    1.111   .     S
C486   H511    1.111   .     S
C487   H514    1.114   .     S
C487   H515    1.114   .     S
C487   O537    1.412   .     S
C487   C488    1.522   .     S
C488   H516    1.110   .     S
C488   H518    1.111   .     S
C488   H333    1.111   1_655 S
C489   O538    1.412   .     S
C489   H519    1.112   .     S
C489   C490    1.521   .     S
C489   H520    1.114   .     S
C490   H524    1.109   .     S
C490   H522    1.111   .     S
C490   H523    1.111   .     S
C491   O540    1.399   .     S
C491   O1091   1.222   1_554 S
C492   O542    1.399   .     S
C492   C493    1.490   .     S
C492   O1093   1.223   .     S
C493   C495    1.416   .     A
C494   H530    1.081   .     S
C494   N533    1.364   .     A
C495   N534    1.362   .     A
C495   H531    1.082   .     S
C496   C498    1.404   .     A
C496   N533    1.361   .     A
C496   H532    1.076   .     S
C497   N534    1.361   .     A
C497   H500    1.082   .     S
C498   H501    1.083   .     S
H508   C301    1.114   1_655 S
H525   O356    1.013   1_655 S
H526   O542    1.014   .     S
N533   Zn552   1.999   .     S
N534   Zn551   1.999   .     S
O535   Zn551   1.992   .     S
O539   C1043   1.222   .     S
O541   C1044   1.223   1_554 S
O543   Zn552   1.992   .     S
O544   Zn552   1.989   .     S
O545   Zn551   1.989   .     S
O546   Zn551   1.985   .     S
O547   Zn552   1.985   .     S
O548   Zn552   1.988   .     S
O549   Zn551   1.988   .     S
O550   C283    1.390   1_655 S
O550   C298    1.415   1_655 S
C553   O636    1.284   .     A
C553   O627    1.283   .     A
C553   C566    1.440   .     S
C554   C556    1.407   .     A
C554   C589    1.404   .     A
C554   H594    1.083   .     S
C555   C575    1.422   .     A
C555   C590    1.406   .     A
C556   C585    1.424   .     A
C556   C3      1.507   1_556 S
C557   O640    1.278   .     A
C557   C559    1.405   .     S
C557   O638    1.267   .     A
C558   C560    1.401   .     S
C558   O639    1.272   .     A
C558   O641    1.274   .     A
C559   C744    1.346   1_455 S
C559   O826    1.390   1_455 S
C560   C651    1.346   .     S
C560   O720    1.391   .     S
C561   H591    1.084   .     S
C561   C572    1.396   .     A
C561   C563    1.386   .     A
C562   C573    1.395   .     A
C562   H602    1.084   .     S
C562   C565    1.386   .     A
C563   C566    1.411   .     A
C563   O629    1.383   .     S
C564   O637    1.286   .     A
C564   C567    1.443   .     S
C564   O635    1.283   .     A
C565   C567    1.412   .     A
C565   O630    1.383   .     S
C566   C568    1.398   .     A
C567   C569    1.399   .     A
C568   H613    1.084   .     S
C568   C570    1.379   .     A
C569   C571    1.380   .     A
C569   H619    1.084   .     S
C570   H620    1.084   .     S
C570   C572    1.397   .     A
C571   C573    1.397   .     A
C571   H621    1.084   .     S
C572   C849    1.440   1_545 S
C573   C848    1.440   .     S
C574   H596    1.113   .     S
C574   H595    1.116   .     S
C574   C760    1.521   1_455 S
C574   O826    1.415   1_455 S
C575   C583    1.488   .     S
C575   C586    1.416   .     A
C576   H597    1.111   .     S
C576   H599    1.111   .     S
C576   H598    1.110   .     S
C576   C666    1.521   .     S
C577   C578    1.521   .     S
C577   O628    1.411   .     S
C577   H601    1.115   .     S
C577   H784    1.114   1_455 S
C578   H604    1.110   .     S
C578   H605    1.111   .     S
C578   H603    1.111   .     S
C579   H606    1.114   .     S
C579   H607    1.114   .     S
C579   O629    1.412   .     S
C579   C580    1.522   .     S
C580   H608    1.110   .     S
C580   H610    1.111   .     S
C580   H701    1.111   .     S
C581   O630    1.412   .     S
C581   H611    1.112   .     S
C581   C582    1.521   .     S
C581   H612    1.114   .     S
C582   H616    1.109   .     S
C582   H614    1.111   .     S
C582   H615    1.111   .     S
C583   O632    1.399   .     S
C584   O634    1.399   .     S
C584   C585    1.490   .     S
C584   O81     1.223   1_556 S
C585   C587    1.416   .     A
C586   H622    1.081   .     S
C586   N625    1.364   .     A
C587   N626    1.362   .     A
C587   H623    1.082   .     S
C588   C590    1.404   .     A
C588   N625    1.361   .     A
C588   H624    1.076   .     S
C589   N626    1.361   .     A
C589   H592    1.082   .     S
C590   H593    1.083   .     S
H600   C669    1.114   .     S
H609   C764    1.111   1_455 S
H617   O724    1.013   .     S
H618   O634    1.014   .     S
N625   Zn644   1.999   .     S
N626   Zn643   1.999   .     S
O627   Zn643   1.992   .     S
O628   C744    1.391   1_455 S
O631   C31     1.222   1_556 S
O632   H801    1.013   1_455 S
O635   Zn644   1.992   .     S
O636   Zn644   1.989   .     S
O637   Zn643   1.989   .     S
O638   Zn643   1.985   .     S
O639   Zn644   1.985   .     S
O640   Zn644   1.988   .     S
O641   Zn643   1.988   .     S
O642   C651    1.390   .     S
O642   C666    1.415   .     S
C645   O728    1.284   .     A
C645   O719    1.283   .     A
C645   C658    1.440   .     S
C646   C648    1.407   .     A
C646   C681    1.404   .     A
C646   H686    1.083   .     S
C647   C667    1.422   .     A
C647   C682    1.406   .     A
C648   C677    1.424   .     A
C648   C95     1.507   1_556 S
C649   O732    1.278   .     A
C649   C651    1.405   .     S
C649   O730    1.267   .     A
C650   C652    1.401   .     S
C650   O731    1.272   .     A
C650   O733    1.274   .     A
C652   C743    1.346   .     S
C652   O812    1.391   .     S
C653   H683    1.084   .     S
C653   C664    1.396   .     A
C653   C655    1.386   .     A
C654   C665    1.395   .     A
C654   H694    1.084   .     S
C654   C657    1.386   .     A
C655   C658    1.411   .     A
C655   O721    1.383   .     S
C656   O729    1.286   .     A
C656   C659    1.443   .     S
C656   O727    1.283   .     A
C657   C659    1.412   .     A
C657   O722    1.383   .     S
C658   C660    1.398   .     A
C659   C661    1.399   .     A
C660   H705    1.084   .     S
C660   C662    1.379   .     A
C661   C663    1.380   .     A
C661   H711    1.084   .     S
C662   H712    1.084   .     S
C662   C664    1.397   .     A
C663   C665    1.397   .     A
C663   H713    1.084   .     S
C664   C941    1.440   1_545 S
C665   C940    1.440   .     S
C666   H688    1.113   .     S
C666   H687    1.116   .     S
C667   C675    1.488   .     S
C667   C678    1.416   .     A
C668   H689    1.111   .     S
C668   H691    1.111   .     S
C668   H690    1.110   .     S
C668   C758    1.521   .     S
C669   C670    1.521   .     S
C669   O720    1.411   .     S
C669   H693    1.115   .     S
C670   H696    1.110   .     S
C670   H697    1.111   .     S
C670   H695    1.111   .     S
C671   H698    1.114   .     S
C671   H699    1.114   .     S
C671   O721    1.412   .     S
C671   C672    1.522   .     S
C672   H700    1.110   .     S
C672   H702    1.111   .     S
C672   H793    1.111   .     S
C673   O722    1.412   .     S
C673   H703    1.112   .     S
C673   C674    1.521   .     S
C673   H704    1.114   .     S
C674   H708    1.109   .     S
C674   H706    1.111   .     S
C674   H707    1.111   .     S
C675   O724    1.399   .     S
C676   O726    1.399   .     S
C676   C677    1.490   .     S
C676   O173    1.223   1_556 S
C677   C679    1.416   .     A
C678   H714    1.081   .     S
C678   N717    1.364   .     A
C679   N718    1.362   .     A
C679   H715    1.082   .     S
C680   C682    1.404   .     A
C680   N717    1.361   .     A
C680   H716    1.076   .     S
C681   N718    1.361   .     A
C681   H684    1.082   .     S
C682   H685    1.083   .     S
H692   C761    1.114   .     S
H709   O816    1.013   .     S
H710   O726    1.014   .     S
N717   Zn736   1.999   .     S
N718   Zn735   1.999   .     S
O719   Zn735   1.992   .     S
O723   C123    1.222   1_556 S
O727   Zn736   1.992   .     S
O728   Zn736   1.989   .     S
O729   Zn735   1.989   .     S
O730   Zn735   1.985   .     S
O731   Zn736   1.985   .     S
O732   Zn736   1.988   .     S
O733   Zn735   1.988   .     S
O734   C743    1.390   .     S
O734   C758    1.415   .     S
C737   O820    1.284   .     A
C737   O811    1.283   .     A
C737   C750    1.440   .     S
C738   C740    1.407   .     A
C738   C773    1.404   .     A
C738   H778    1.083   .     S
C739   C759    1.422   .     A
C739   C774    1.406   .     A
C740   C769    1.424   .     A
C740   C187    1.507   1_556 S
C741   O824    1.278   .     A
C741   C743    1.405   .     S
C741   O822    1.267   .     A
C742   C744    1.401   .     S
C742   O823    1.272   .     A
C742   O825    1.274   .     A
C744   C559    1.346   1_655 S
C744   O628    1.391   1_655 S
C745   H775    1.084   .     S
C745   C756    1.396   .     A
C745   C747    1.386   .     A
C746   C757    1.395   .     A
C746   H786    1.084   .     S
C746   C749    1.386   .     A
C747   C750    1.411   .     A
C747   O813    1.383   .     S
C748   O821    1.286   .     A
C748   C751    1.443   .     S
C748   O819    1.283   .     A
C749   C751    1.412   .     A
C749   O814    1.383   .     S
C750   C752    1.398   .     A
C751   C753    1.399   .     A
C752   H797    1.084   .     S
C752   C754    1.379   .     A
C753   C755    1.380   .     A
C753   H803    1.084   .     S
C754   H804    1.084   .     S
C754   C756    1.397   .     A
C755   C757    1.397   .     A
C755   H805    1.084   .     S
C756   C1033   1.440   1_545 S
C757   C1032   1.440   .     S
C758   H780    1.113   .     S
C758   H779    1.116   .     S
C759   C767    1.488   .     S
C759   C770    1.416   .     A
C760   H781    1.111   .     S
C760   H783    1.111   .     S
C760   H782    1.110   .     S
C760   C574    1.521   1_655 S
C761   C762    1.521   .     S
C761   O812    1.411   .     S
C761   H785    1.115   .     S
C762   H788    1.110   .     S
C762   H789    1.111   .     S
C762   H787    1.111   .     S
C763   H790    1.114   .     S
C763   H791    1.114   .     S
C763   O813    1.412   .     S
C763   C764    1.522   .     S
C764   H792    1.110   .     S
C764   H794    1.111   .     S
C764   H609    1.111   1_655 S
C765   O814    1.412   .     S
C765   H795    1.112   .     S
C765   C766    1.521   .     S
C765   H796    1.114   .     S
C766   H800    1.109   .     S
C766   H798    1.111   .     S
C766   H799    1.111   .     S
C767   O816    1.399   .     S
C768   O818    1.399   .     S
C768   C769    1.490   .     S
C768   O265    1.223   1_556 S
C769   C771    1.416   .     A
C770   H806    1.081   .     S
C770   N809    1.364   .     A
C771   N810    1.362   .     A
C771   H807    1.082   .     S
C772   C774    1.404   .     A
C772   N809    1.361   .     A
C772   H808    1.076   .     S
C773   N810    1.361   .     A
C773   H776    1.082   .     S
C774   H777    1.083   .     S
H784   C577    1.114   1_655 S
H801   O632    1.013   1_655 S
H802   O818    1.014   .     S
N809   Zn828   1.999   .     S
N810   Zn827   1.999   .     S
O811   Zn827   1.992   .     S
O815   C215    1.222   1_556 S
O819   Zn828   1.992   .     S
O820   Zn828   1.989   .     S
O821   Zn827   1.989   .     S
O822   Zn827   1.985   .     S
O823   Zn828   1.985   .     S
O824   Zn828   1.988   .     S
O825   Zn827   1.988   .     S
O826   C559    1.390   1_655 S
O826   C574    1.415   1_655 S
C829   O912    1.284   .     A
C829   O903    1.283   .     A
C829   C842    1.440   .     S
C830   C832    1.407   .     A
C830   C865    1.404   .     A
C830   H870    1.083   .     S
C831   C851    1.422   .     A
C831   C866    1.406   .     A
C832   C861    1.424   .     A
C832   C279    1.507   1_556 S
C833   O916    1.278   .     A
C833   C835    1.405   .     S
C833   O914    1.267   .     A
C834   C836    1.401   .     S
C834   O915    1.272   .     A
C834   O917    1.274   .     A
C835   C1020   1.346   1_455 S
C835   O1102   1.390   1_455 S
C836   C927    1.346   .     S
C836   O996    1.391   .     S
C837   H867    1.084   .     S
C837   C848    1.396   .     A
C837   C839    1.386   .     A
C838   C849    1.395   .     A
C838   H878    1.084   .     S
C838   C841    1.386   .     A
C839   C842    1.411   .     A
C839   O905    1.383   .     S
C840   O913    1.286   .     A
C840   C843    1.443   .     S
C840   O911    1.283   .     A
C841   C843    1.412   .     A
C841   O906    1.383   .     S
C842   C844    1.398   .     A
C843   C845    1.399   .     A
C844   H889    1.084   .     S
C844   C846    1.379   .     A
C845   C847    1.380   .     A
C845   H895    1.084   .     S
C846   H896    1.084   .     S
C846   C848    1.397   .     A
C847   C849    1.397   .     A
C847   H897    1.084   .     S
C849   C572    1.440   1_565 S
C850   H872    1.113   .     S
C850   H871    1.116   .     S
C850   C1036   1.521   1_455 S
C850   O1102   1.415   1_455 S
C851   C859    1.488   .     S
C851   C862    1.416   .     A
C852   H873    1.111   .     S
C852   H875    1.111   .     S
C852   H874    1.110   .     S
C852   C942    1.521   .     S
C853   C854    1.521   .     S
C853   O904    1.411   .     S
C853   H877    1.115   .     S
C853   H1060   1.114   1_455 S
C854   H880    1.110   .     S
C854   H881    1.111   .     S
C854   H879    1.111   .     S
C855   H882    1.114   .     S
C855   H883    1.114   .     S
C855   O905    1.412   .     S
C855   C856    1.522   .     S
C856   H884    1.110   .     S
C856   H886    1.111   .     S
C856   H977    1.111   .     S
C857   O906    1.412   .     S
C857   H887    1.112   .     S
C857   C858    1.521   .     S
C857   H888    1.114   .     S
C858   H892    1.109   .     S
C858   H890    1.111   .     S
C858   H891    1.111   .     S
C859   O908    1.399   .     S
C860   O910    1.399   .     S
C860   C861    1.490   .     S
C860   O357    1.223   1_556 S
C861   C863    1.416   .     A
C862   H898    1.081   .     S
C862   N901    1.364   .     A
C863   N902    1.362   .     A
C863   H899    1.082   .     S
C864   C866    1.404   .     A
C864   N901    1.361   .     A
C864   H900    1.076   .     S
C865   N902    1.361   .     A
C865   H868    1.082   .     S
C866   H869    1.083   .     S
H876   C945    1.114   .     S
H885   C1040   1.111   1_455 S
H893   O1000   1.013   .     S
H894   O910    1.014   .     S
N901   Zn920   1.999   .     S
N902   Zn919   1.999   .     S
O903   Zn919   1.992   .     S
O904   C1020   1.391   1_455 S
O907   C307    1.222   1_556 S
O908   H1077   1.013   1_455 S
O911   Zn920   1.992   .     S
O912   Zn920   1.989   .     S
O913   Zn919   1.989   .     S
O914   Zn919   1.985   .     S
O915   Zn920   1.985   .     S
O916   Zn920   1.988   .     S
O917   Zn919   1.988   .     S
O918   C927    1.390   .     S
O918   C942    1.415   .     S
C921   O1004   1.284   .     A
C921   O995    1.283   .     A
C921   C934    1.440   .     S
C922   C924    1.407   .     A
C922   C957    1.404   .     A
C922   H962    1.083   .     S
C923   C943    1.422   .     A
C923   C958    1.406   .     A
C924   C953    1.424   .     A
C924   C371    1.507   1_556 S
C925   O1008   1.278   .     A
C925   C927    1.405   .     S
C925   O1006   1.267   .     A
C926   C928    1.401   .     S
C926   O1007   1.272   .     A
C926   O1009   1.274   .     A
C928   C1019   1.346   .     S
C928   O1088   1.391   .     S
C929   H959    1.084   .     S
C929   C940    1.396   .     A
C929   C931    1.386   .     A
C930   C941    1.395   .     A
C930   H970    1.084   .     S
C930   C933    1.386   .     A
C931   C934    1.411   .     A
C931   O997    1.383   .     S
C932   O1005   1.286   .     A
C932   C935    1.443   .     S
C932   O1003   1.283   .     A
C933   C935    1.412   .     A
C933   O998    1.383   .     S
C934   C936    1.398   .     A
C935   C937    1.399   .     A
C936   H981    1.084   .     S
C936   C938    1.379   .     A
C937   C939    1.380   .     A
C937   H987    1.084   .     S
C938   H988    1.084   .     S
C938   C940    1.397   .     A
C939   C941    1.397   .     A
C939   H989    1.084   .     S
C941   C664    1.440   1_565 S
C942   H964    1.113   .     S
C942   H963    1.116   .     S
C943   C951    1.488   .     S
C943   C954    1.416   .     A
C944   H965    1.111   .     S
C944   H967    1.111   .     S
C944   H966    1.110   .     S
C944   C1034   1.521   .     S
C945   C946    1.521   .     S
C945   O996    1.411   .     S
C945   H969    1.115   .     S
C946   H972    1.110   .     S
C946   H973    1.111   .     S
C946   H971    1.111   .     S
C947   H974    1.114   .     S
C947   H975    1.114   .     S
C947   O997    1.412   .     S
C947   C948    1.522   .     S
C948   H976    1.110   .     S
C948   H978    1.111   .     S
C948   H1069   1.111   .     S
C949   O998    1.412   .     S
C949   H979    1.112   .     S
C949   C950    1.521   .     S
C949   H980    1.114   .     S
C950   H984    1.109   .     S
C950   H982    1.111   .     S
C950   H983    1.111   .     S
C951   O1000   1.399   .     S
C952   O1002   1.399   .     S
C952   C953    1.490   .     S
C952   O449    1.223   1_556 S
C953   C955    1.416   .     A
C954   H990    1.081   .     S
C954   N993    1.364   .     A
C955   N994    1.362   .     A
C955   H991    1.082   .     S
C956   C958    1.404   .     A
C956   N993    1.361   .     A
C956   H992    1.076   .     S
C957   N994    1.361   .     A
C957   H960    1.082   .     S
C958   H961    1.083   .     S
H968   C1037   1.114   .     S
H985   O1092   1.013   .     S
H986   O1002   1.014   .     S
N993   Zn1012  1.999   .     S
N994   Zn1011  1.999   .     S
O995   Zn1011  1.992   .     S
O999   C399    1.222   1_556 S
O1003  Zn1012  1.992   .     S
O1004  Zn1012  1.989   .     S
O1005  Zn1011  1.989   .     S
O1006  Zn1011  1.985   .     S
O1007  Zn1012  1.985   .     S
O1008  Zn1012  1.988   .     S
O1009  Zn1011  1.988   .     S
O1010  C1019   1.390   .     S
O1010  C1034   1.415   .     S
C1013  O1096   1.284   .     A
C1013  O1087   1.283   .     A
C1013  C1026   1.440   .     S
C1014  C1016   1.407   .     A
C1014  C1049   1.404   .     A
C1014  H1054   1.083   .     S
C1015  C1035   1.422   .     A
C1015  C1050   1.406   .     A
C1016  C1045   1.424   .     A
C1016  C463    1.507   1_556 S
C1017  O1100   1.278   .     A
C1017  C1019   1.405   .     S
C1017  O1098   1.267   .     A
C1018  C1020   1.401   .     S
C1018  O1099   1.272   .     A
C1018  O1101   1.274   .     A
C1020  C835    1.346   1_655 S
C1020  O904    1.391   1_655 S
C1021  H1051   1.084   .     S
C1021  C1032   1.396   .     A
C1021  C1023   1.386   .     A
C1022  C1033   1.395   .     A
C1022  H1062   1.084   .     S
C1022  C1025   1.386   .     A
C1023  C1026   1.411   .     A
C1023  O1089   1.383   .     S
C1024  O1097   1.286   .     A
C1024  C1027   1.443   .     S
C1024  O1095   1.283   .     A
C1025  C1027   1.412   .     A
C1025  O1090   1.383   .     S
C1026  C1028   1.398   .     A
C1027  C1029   1.399   .     A
C1028  H1073   1.084   .     S
C1028  C1030   1.379   .     A
C1029  C1031   1.380   .     A
C1029  H1079   1.084   .     S
C1030  H1080   1.084   .     S
C1030  C1032   1.397   .     A
C1031  C1033   1.397   .     A
C1031  H1081   1.084   .     S
C1033  C756    1.440   1_565 S
C1034  H1056   1.113   .     S
C1034  H1055   1.116   .     S
C1035  C1043   1.488   .     S
C1035  C1046   1.416   .     A
C1036  H1057   1.111   .     S
C1036  H1059   1.111   .     S
C1036  H1058   1.110   .     S
C1036  C850    1.521   1_655 S
C1037  C1038   1.521   .     S
C1037  O1088   1.411   .     S
C1037  H1061   1.115   .     S
C1038  H1064   1.110   .     S
C1038  H1065   1.111   .     S
C1038  H1063   1.111   .     S
C1039  H1066   1.114   .     S
C1039  H1067   1.114   .     S
C1039  O1089   1.412   .     S
C1039  C1040   1.522   .     S
C1040  H1068   1.110   .     S
C1040  H1070   1.111   .     S
C1040  H885    1.111   1_655 S
C1041  O1090   1.412   .     S
C1041  H1071   1.112   .     S
C1041  C1042   1.521   .     S
C1041  H1072   1.114   .     S
C1042  H1076   1.109   .     S
C1042  H1074   1.111   .     S
C1042  H1075   1.111   .     S
C1043  O1092   1.399   .     S
C1044  O1094   1.399   .     S
C1044  C1045   1.490   .     S
C1044  O541    1.223   1_556 S
C1045  C1047   1.416   .     A
C1046  H1082   1.081   .     S
C1046  N1085   1.364   .     A
C1047  N1086   1.362   .     A
C1047  H1083   1.082   .     S
C1048  C1050   1.404   .     A
C1048  N1085   1.361   .     A
C1048  H1084   1.076   .     S
C1049  N1086   1.361   .     A
C1049  H1052   1.082   .     S
C1050  H1053   1.083   .     S
H1060  C853    1.114   1_655 S
H1077  O908    1.013   1_655 S
H1078  O1094   1.014   .     S
N1085  Zn1104  1.999   .     S
N1086  Zn1103  1.999   .     S
O1087  Zn1103  1.992   .     S
O1091  C491    1.222   1_556 S
O1095  Zn1104  1.992   .     S
O1096  Zn1104  1.989   .     S
O1097  Zn1103  1.989   .     S
O1098  Zn1103  1.985   .     S
O1099  Zn1104  1.985   .     S
O1100  Zn1104  1.988   .     S
O1101  Zn1103  1.988   .     S
O1102  C835    1.390   1_655 S
O1102  C850    1.415   1_655 S
