data_str_m3_o1_o2_pcu_sym.51
_audit_creation_date              2020-01-03
_audit_creation_method            'Materials Studio'
_symmetry_space_group_name_H-M    'P1'
_symmetry_Int_Tables_number       1
_symmetry_cell_setting            triclinic
loop_
_symmetry_equiv_pos_as_xyz
  x,y,z
_cell_length_a                    32.0680
_cell_length_b                    29.9336
_cell_length_c                    29.9559
_cell_angle_alpha                 89.9504
_cell_angle_beta                  92.4563
_cell_angle_gamma                 90.0214
loop_
_atom_site_label
_atom_site_type_symbol
_atom_site_fract_x
_atom_site_fract_y
_atom_site_fract_z
_atom_site_U_iso_or_equiv
_atom_site_adp_type
_atom_site_occupancy
C1     C     0.08678   0.16666   0.24986   0.00000  Uiso   1.00
C2     C     0.31258   0.20467   0.26473   0.00000  Uiso   1.00
C3     C     0.31133   0.12862   0.23546   0.00000  Uiso   1.00
C4     C     0.02199   0.20469   0.26459   0.00000  Uiso   1.00
C5     C     0.13128   0.17725   0.04502   0.00000  Uiso   1.00
C6     C     0.13160   0.14789   0.45060   0.00000  Uiso   1.00
C7     C     0.20257   0.17659   0.45486   0.00000  Uiso   1.00
C8     C     0.20181   0.14744   0.04947   0.00000  Uiso   1.00
C9     C     0.13071   0.17890   0.09124   0.00000  Uiso   1.00
C10    C     0.13084   0.15043   0.40432   0.00000  Uiso   1.00
C11    C     0.20306   0.17823   0.40863   0.00000  Uiso   1.00
C12    C     0.24655   0.16667   0.25015   0.00000  Uiso   1.00
C13    C     0.20251   0.14994   0.09576   0.00000  Uiso   1.00
C14    C     0.16680   0.16596   0.11645   0.00000  Uiso   1.00
C15    C     0.16672   0.16588   0.38353   0.00000  Uiso   1.00
C16    C     0.16659   0.16157   0.02420   0.00000  Uiso   1.00
C17    C     0.16707   0.16150   0.47578   0.00000  Uiso   1.00
C18    C     0.29077   0.16665   0.25014   0.00000  Uiso   1.00
C19    C     0.04256   0.16666   0.24991   0.00000  Uiso   1.00
C20    C     0.09143   0.19377   0.11286   0.00000  Uiso   1.00
C21    C     0.09167   0.13725   0.37775   0.00000  Uiso   1.00
C22    C     0.24248   0.19249   0.38685   0.00000  Uiso   1.00
C23    C     0.16650   0.16661   0.16428   0.00000  Uiso   1.00
C24    C     0.24143   0.13609   0.12242   0.00000  Uiso   1.00
C25    C     0.16690   0.16658   0.33571   0.00000  Uiso   1.00
C26    C     0.19613   0.02368   0.27479   0.00000  Uiso   1.00
C27    C     0.13715   0.30975   0.22533   0.00000  Uiso   1.00
C28    C     0.13722   0.02368   0.22520   0.00000  Uiso   1.00
C29    C     0.19617   0.30974   0.27470   0.00000  Uiso   1.00
C30    C     0.02074   0.12862   0.23537   0.00000  Uiso   1.00
H31    H     0.10434   0.18877   0.02516   0.00000  Uiso   1.00
H32    H     0.11476   0.25787   0.19568   0.00000  Uiso   1.00
H33    H     0.11511   0.07552   0.19436   0.00000  Uiso   1.00
H34    H     0.21854   0.25782   0.30437   0.00000  Uiso   1.00
H35    H     0.09682   0.22659   0.12899   0.00000  Uiso   1.00
H36    H     0.06493   0.19753   0.08802   0.00000  Uiso   1.00
H37    H     0.08218   0.16888   0.13811   0.00000  Uiso   1.00
H38    H     0.09801   0.10807   0.35623   0.00000  Uiso   1.00
H39    H     0.06604   0.12796   0.39977   0.00000  Uiso   1.00
H40    H     0.08070   0.16564   0.35644   0.00000  Uiso   1.00
H41    H     0.23743   0.22520   0.37033   0.00000  Uiso   1.00
H42    H     0.10451   0.13545   0.46712   0.00000  Uiso   1.00
H43    H     0.26902   0.19618   0.41164   0.00000  Uiso   1.00
H44    H     0.25145   0.16726   0.36185   0.00000  Uiso   1.00
H45    H     0.23465   0.10692   0.14383   0.00000  Uiso   1.00
H46    H     0.26700   0.12652   0.10046   0.00000  Uiso   1.00
H47    H     0.25273   0.16424   0.14383   0.00000  Uiso   1.00
H48    H     0.22971   0.18767   0.47465   0.00000  Uiso   1.00
H49    H     0.22876   0.13457   0.03302   0.00000  Uiso   1.00
H50    H     0.03659   0.09923   0.22356   0.00000  Uiso   1.00
H51    H     0.29674   0.23405   0.27657   0.00000  Uiso   1.00
H52    H     0.29446   0.09923   0.22369   0.00000  Uiso   1.00
H53    H     0.03886   0.23410   0.27632   0.00000  Uiso   1.00
H54    H     0.21822   0.07546   0.30566   0.00000  Uiso   1.00
N55    N     0.16667   0.28573   0.25000   0.00000  Uiso   1.00
N56    N     0.16667   0.04760   0.25000   0.00000  Uiso   1.00
O57    O     0.10559   0.20487   0.25000   0.00000  Uiso   1.00
O58    O     0.10665   0.28912   0.19918   0.00000  Uiso   1.00
O59    O     0.10687   0.04434   0.19873   0.00000  Uiso   1.00
O60    O     0.22659   0.28912   0.30097   0.00000  Uiso   1.00
O61    O     0.22774   0.12846   0.25000   0.00000  Uiso   1.00
O62    O     0.22774   0.20487   0.25001   0.00000  Uiso   1.00
O63    O     0.10559   0.12846   0.25000   0.00000  Uiso   1.00
O64    O     0.16666   0.20489   0.18453   0.00000  Uiso   1.00
O65    O     0.16667   0.12845   0.31547   0.00000  Uiso   1.00
O66    O     0.16667   0.20489   0.31547   0.00000  Uiso   1.00
O67    O     0.16666   0.12845   0.18453   0.00000  Uiso   1.00
O68    O     0.22654   0.04434   0.30116   0.00000  Uiso   1.00
Zn69   Zn    0.16667   0.21771   0.25000   0.00000  Uiso   1.00
Zn70   Zn    0.16667   0.11563   0.25000   0.00000  Uiso   1.00
C71    C     0.42011   0.16666   0.24986   0.00000  Uiso   1.00
C72    C     0.64592   0.20467   0.26473   0.00000  Uiso   1.00
C73    C     0.64467   0.12862   0.23546   0.00000  Uiso   1.00
C74    C     0.35533   0.20469   0.26459   0.00000  Uiso   1.00
C75    C     0.46461   0.17725   0.04502   0.00000  Uiso   1.00
C76    C     0.46494   0.14789   0.45060   0.00000  Uiso   1.00
C77    C     0.53590   0.17659   0.45486   0.00000  Uiso   1.00
C78    C     0.53515   0.14744   0.04947   0.00000  Uiso   1.00
C79    C     0.46404   0.17890   0.09124   0.00000  Uiso   1.00
C80    C     0.46418   0.15043   0.40432   0.00000  Uiso   1.00
C81    C     0.53639   0.17823   0.40863   0.00000  Uiso   1.00
C82    C     0.57989   0.16667   0.25015   0.00000  Uiso   1.00
C83    C     0.53584   0.14994   0.09576   0.00000  Uiso   1.00
C84    C     0.50013   0.16596   0.11645   0.00000  Uiso   1.00
C85    C     0.50006   0.16588   0.38353   0.00000  Uiso   1.00
C86    C     0.49992   0.16157   0.02420   0.00000  Uiso   1.00
C87    C     0.50040   0.16150   0.47578   0.00000  Uiso   1.00
C88    C     0.62410   0.16665   0.25014   0.00000  Uiso   1.00
C89    C     0.37590   0.16666   0.24991   0.00000  Uiso   1.00
C90    C     0.42477   0.19377   0.11286   0.00000  Uiso   1.00
C91    C     0.42500   0.13725   0.37775   0.00000  Uiso   1.00
C92    C     0.57581   0.19249   0.38685   0.00000  Uiso   1.00
C93    C     0.49983   0.16661   0.16428   0.00000  Uiso   1.00
C94    C     0.57477   0.13609   0.12242   0.00000  Uiso   1.00
C95    C     0.50023   0.16658   0.33571   0.00000  Uiso   1.00
C96    C     0.52946   0.02368   0.27479   0.00000  Uiso   1.00
C97    C     0.47048   0.30975   0.22533   0.00000  Uiso   1.00
C98    C     0.47055   0.02368   0.22520   0.00000  Uiso   1.00
C99    C     0.52950   0.30974   0.27470   0.00000  Uiso   1.00
C100   C     0.35408   0.12862   0.23537   0.00000  Uiso   1.00
H101   H     0.43767   0.18877   0.02516   0.00000  Uiso   1.00
H102   H     0.44809   0.25787   0.19568   0.00000  Uiso   1.00
H103   H     0.44844   0.07552   0.19436   0.00000  Uiso   1.00
H104   H     0.55187   0.25782   0.30437   0.00000  Uiso   1.00
H105   H     0.43016   0.22659   0.12899   0.00000  Uiso   1.00
H106   H     0.39827   0.19753   0.08802   0.00000  Uiso   1.00
H107   H     0.41552   0.16888   0.13811   0.00000  Uiso   1.00
H108   H     0.43134   0.10807   0.35623   0.00000  Uiso   1.00
H109   H     0.39937   0.12796   0.39977   0.00000  Uiso   1.00
H110   H     0.41403   0.16564   0.35644   0.00000  Uiso   1.00
H111   H     0.57076   0.22520   0.37033   0.00000  Uiso   1.00
H112   H     0.43784   0.13545   0.46712   0.00000  Uiso   1.00
H113   H     0.60235   0.19618   0.41164   0.00000  Uiso   1.00
H114   H     0.58478   0.16726   0.36185   0.00000  Uiso   1.00
H115   H     0.56799   0.10692   0.14383   0.00000  Uiso   1.00
H116   H     0.60034   0.12652   0.10046   0.00000  Uiso   1.00
H117   H     0.58606   0.16424   0.14383   0.00000  Uiso   1.00
H118   H     0.56304   0.18767   0.47465   0.00000  Uiso   1.00
H119   H     0.56209   0.13457   0.03302   0.00000  Uiso   1.00
H120   H     0.36992   0.09923   0.22356   0.00000  Uiso   1.00
H121   H     0.63007   0.23405   0.27657   0.00000  Uiso   1.00
H122   H     0.62780   0.09923   0.22369   0.00000  Uiso   1.00
H123   H     0.37219   0.23410   0.27632   0.00000  Uiso   1.00
H124   H     0.55155   0.07546   0.30566   0.00000  Uiso   1.00
N125   N     0.50000   0.28573   0.25000   0.00000  Uiso   1.00
N126   N     0.50000   0.04760   0.25000   0.00000  Uiso   1.00
O127   O     0.43892   0.20487   0.25000   0.00000  Uiso   1.00
O128   O     0.43998   0.28912   0.19918   0.00000  Uiso   1.00
O129   O     0.44020   0.04434   0.19873   0.00000  Uiso   1.00
O130   O     0.55992   0.28912   0.30097   0.00000  Uiso   1.00
O131   O     0.56108   0.12846   0.25000   0.00000  Uiso   1.00
O132   O     0.56108   0.20487   0.25001   0.00000  Uiso   1.00
O133   O     0.43892   0.12846   0.25000   0.00000  Uiso   1.00
O134   O     0.50000   0.20489   0.18453   0.00000  Uiso   1.00
O135   O     0.50000   0.12845   0.31547   0.00000  Uiso   1.00
O136   O     0.50000   0.20489   0.31547   0.00000  Uiso   1.00
O137   O     0.50000   0.12845   0.18453   0.00000  Uiso   1.00
O138   O     0.55987   0.04434   0.30116   0.00000  Uiso   1.00
Zn139  Zn    0.50000   0.21771   0.25000   0.00000  Uiso   1.00
Zn140  Zn    0.50000   0.11563   0.25000   0.00000  Uiso   1.00
C141   C     0.75345   0.16666   0.24986   0.00000  Uiso   1.00
C142   C     0.97925   0.20467   0.26473   0.00000  Uiso   1.00
C143   C     0.97800   0.12862   0.23546   0.00000  Uiso   1.00
C144   C     0.68866   0.20469   0.26459   0.00000  Uiso   1.00
C145   C     0.79794   0.17725   0.04502   0.00000  Uiso   1.00
C146   C     0.79827   0.14789   0.45060   0.00000  Uiso   1.00
C147   C     0.86924   0.17659   0.45486   0.00000  Uiso   1.00
C148   C     0.86848   0.14744   0.04947   0.00000  Uiso   1.00
C149   C     0.79737   0.17890   0.09124   0.00000  Uiso   1.00
C150   C     0.79751   0.15043   0.40432   0.00000  Uiso   1.00
C151   C     0.86973   0.17823   0.40863   0.00000  Uiso   1.00
C152   C     0.91322   0.16667   0.25015   0.00000  Uiso   1.00
C153   C     0.86917   0.14994   0.09576   0.00000  Uiso   1.00
C154   C     0.83346   0.16596   0.11645   0.00000  Uiso   1.00
C155   C     0.83339   0.16588   0.38353   0.00000  Uiso   1.00
C156   C     0.83325   0.16157   0.02420   0.00000  Uiso   1.00
C157   C     0.83374   0.16150   0.47578   0.00000  Uiso   1.00
C158   C     0.95743   0.16665   0.25014   0.00000  Uiso   1.00
C159   C     0.70923   0.16666   0.24991   0.00000  Uiso   1.00
C160   C     0.75810   0.19377   0.11286   0.00000  Uiso   1.00
C161   C     0.75833   0.13725   0.37775   0.00000  Uiso   1.00
C162   C     0.90914   0.19249   0.38685   0.00000  Uiso   1.00
C163   C     0.83316   0.16661   0.16428   0.00000  Uiso   1.00
C164   C     0.90810   0.13609   0.12242   0.00000  Uiso   1.00
C165   C     0.83357   0.16658   0.33571   0.00000  Uiso   1.00
C166   C     0.86279   0.02368   0.27479   0.00000  Uiso   1.00
C167   C     0.80382   0.30975   0.22533   0.00000  Uiso   1.00
C168   C     0.80388   0.02368   0.22520   0.00000  Uiso   1.00
C169   C     0.86283   0.30974   0.27470   0.00000  Uiso   1.00
C170   C     0.68741   0.12862   0.23537   0.00000  Uiso   1.00
H171   H     0.77101   0.18877   0.02516   0.00000  Uiso   1.00
H172   H     0.78142   0.25787   0.19568   0.00000  Uiso   1.00
H173   H     0.78177   0.07552   0.19436   0.00000  Uiso   1.00
H174   H     0.88520   0.25782   0.30437   0.00000  Uiso   1.00
H175   H     0.76349   0.22659   0.12899   0.00000  Uiso   1.00
H176   H     0.73160   0.19753   0.08802   0.00000  Uiso   1.00
H177   H     0.74885   0.16888   0.13811   0.00000  Uiso   1.00
H178   H     0.76468   0.10807   0.35623   0.00000  Uiso   1.00
H179   H     0.73271   0.12796   0.39977   0.00000  Uiso   1.00
H180   H     0.74736   0.16564   0.35644   0.00000  Uiso   1.00
H181   H     0.90409   0.22520   0.37033   0.00000  Uiso   1.00
H182   H     0.77118   0.13545   0.46712   0.00000  Uiso   1.00
H183   H     0.93569   0.19618   0.41164   0.00000  Uiso   1.00
H184   H     0.91812   0.16726   0.36185   0.00000  Uiso   1.00
H185   H     0.90132   0.10692   0.14383   0.00000  Uiso   1.00
H186   H     0.93367   0.12652   0.10046   0.00000  Uiso   1.00
H187   H     0.91939   0.16424   0.14383   0.00000  Uiso   1.00
H188   H     0.89637   0.18767   0.47465   0.00000  Uiso   1.00
H189   H     0.89542   0.13457   0.03302   0.00000  Uiso   1.00
H190   H     0.70326   0.09923   0.22356   0.00000  Uiso   1.00
H191   H     0.96340   0.23405   0.27657   0.00000  Uiso   1.00
H192   H     0.96113   0.09923   0.22369   0.00000  Uiso   1.00
H193   H     0.70552   0.23410   0.27632   0.00000  Uiso   1.00
H194   H     0.88488   0.07546   0.30566   0.00000  Uiso   1.00
N195   N     0.83333   0.28573   0.25000   0.00000  Uiso   1.00
N196   N     0.83333   0.04760   0.25000   0.00000  Uiso   1.00
O197   O     0.77226   0.20487   0.25000   0.00000  Uiso   1.00
O198   O     0.77332   0.28912   0.19918   0.00000  Uiso   1.00
O199   O     0.77354   0.04434   0.19873   0.00000  Uiso   1.00
O200   O     0.89325   0.28912   0.30097   0.00000  Uiso   1.00
O201   O     0.89441   0.12846   0.25000   0.00000  Uiso   1.00
O202   O     0.89441   0.20487   0.25001   0.00000  Uiso   1.00
O203   O     0.77226   0.12846   0.25000   0.00000  Uiso   1.00
O204   O     0.83333   0.20489   0.18453   0.00000  Uiso   1.00
O205   O     0.83334   0.12845   0.31547   0.00000  Uiso   1.00
O206   O     0.83334   0.20489   0.31547   0.00000  Uiso   1.00
O207   O     0.83333   0.12845   0.18453   0.00000  Uiso   1.00
O208   O     0.89321   0.04434   0.30116   0.00000  Uiso   1.00
Zn209  Zn    0.83333   0.21771   0.25000   0.00000  Uiso   1.00
Zn210  Zn    0.83333   0.11563   0.25000   0.00000  Uiso   1.00
C211   C     0.08678   0.49999   0.24986   0.00000  Uiso   1.00
C212   C     0.31258   0.53801   0.26473   0.00000  Uiso   1.00
C213   C     0.31133   0.46195   0.23546   0.00000  Uiso   1.00
C214   C     0.02199   0.53803   0.26459   0.00000  Uiso   1.00
C215   C     0.13128   0.51058   0.04502   0.00000  Uiso   1.00
C216   C     0.13160   0.48122   0.45060   0.00000  Uiso   1.00
C217   C     0.20257   0.50992   0.45486   0.00000  Uiso   1.00
C218   C     0.20181   0.48077   0.04947   0.00000  Uiso   1.00
C219   C     0.13071   0.51223   0.09124   0.00000  Uiso   1.00
C220   C     0.13084   0.48376   0.40432   0.00000  Uiso   1.00
C221   C     0.20306   0.51156   0.40863   0.00000  Uiso   1.00
C222   C     0.24655   0.50000   0.25015   0.00000  Uiso   1.00
C223   C     0.20251   0.48328   0.09576   0.00000  Uiso   1.00
C224   C     0.16680   0.49930   0.11645   0.00000  Uiso   1.00
C225   C     0.16672   0.49921   0.38353   0.00000  Uiso   1.00
C226   C     0.16659   0.49491   0.02420   0.00000  Uiso   1.00
C227   C     0.16707   0.49483   0.47578   0.00000  Uiso   1.00
C228   C     0.29077   0.49998   0.25014   0.00000  Uiso   1.00
C229   C     0.04256   0.49999   0.24991   0.00000  Uiso   1.00
C230   C     0.09143   0.52711   0.11286   0.00000  Uiso   1.00
C231   C     0.09167   0.47058   0.37775   0.00000  Uiso   1.00
C232   C     0.24248   0.52582   0.38685   0.00000  Uiso   1.00
C233   C     0.16650   0.49994   0.16428   0.00000  Uiso   1.00
C234   C     0.24143   0.46943   0.12242   0.00000  Uiso   1.00
C235   C     0.16690   0.49991   0.33571   0.00000  Uiso   1.00
C236   C     0.19613   0.35701   0.27479   0.00000  Uiso   1.00
C237   C     0.13715   0.64308   0.22533   0.00000  Uiso   1.00
C238   C     0.13722   0.35702   0.22520   0.00000  Uiso   1.00
C239   C     0.19617   0.64307   0.27470   0.00000  Uiso   1.00
C240   C     0.02074   0.46195   0.23537   0.00000  Uiso   1.00
H241   H     0.10434   0.52210   0.02516   0.00000  Uiso   1.00
H242   H     0.11476   0.59120   0.19568   0.00000  Uiso   1.00
H243   H     0.11511   0.40885   0.19436   0.00000  Uiso   1.00
H244   H     0.21854   0.59116   0.30437   0.00000  Uiso   1.00
H245   H     0.09682   0.55993   0.12899   0.00000  Uiso   1.00
H246   H     0.06493   0.53086   0.08802   0.00000  Uiso   1.00
H247   H     0.08218   0.50221   0.13811   0.00000  Uiso   1.00
H248   H     0.09801   0.44140   0.35623   0.00000  Uiso   1.00
H249   H     0.06604   0.46129   0.39977   0.00000  Uiso   1.00
H250   H     0.08070   0.49897   0.35644   0.00000  Uiso   1.00
H251   H     0.23743   0.55853   0.37033   0.00000  Uiso   1.00
H252   H     0.10451   0.46879   0.46712   0.00000  Uiso   1.00
H253   H     0.26902   0.52951   0.41164   0.00000  Uiso   1.00
H254   H     0.25145   0.50059   0.36185   0.00000  Uiso   1.00
H255   H     0.23465   0.44026   0.14383   0.00000  Uiso   1.00
H256   H     0.26700   0.45985   0.10046   0.00000  Uiso   1.00
H257   H     0.25273   0.49757   0.14383   0.00000  Uiso   1.00
H258   H     0.22971   0.52101   0.47465   0.00000  Uiso   1.00
H259   H     0.22876   0.46791   0.03302   0.00000  Uiso   1.00
H260   H     0.03659   0.43256   0.22356   0.00000  Uiso   1.00
H261   H     0.29674   0.56739   0.27657   0.00000  Uiso   1.00
H262   H     0.29446   0.43256   0.22369   0.00000  Uiso   1.00
H263   H     0.03886   0.56743   0.27632   0.00000  Uiso   1.00
H264   H     0.21822   0.40879   0.30566   0.00000  Uiso   1.00
N265   N     0.16667   0.61907   0.25000   0.00000  Uiso   1.00
N266   N     0.16667   0.38093   0.25000   0.00000  Uiso   1.00
O267   O     0.10559   0.53821   0.25000   0.00000  Uiso   1.00
O268   O     0.10665   0.62246   0.19918   0.00000  Uiso   1.00
O269   O     0.10687   0.37768   0.19873   0.00000  Uiso   1.00
O270   O     0.22659   0.62245   0.30097   0.00000  Uiso   1.00
O271   O     0.22774   0.46179   0.25000   0.00000  Uiso   1.00
O272   O     0.22774   0.53821   0.25001   0.00000  Uiso   1.00
O273   O     0.10559   0.46179   0.25000   0.00000  Uiso   1.00
O274   O     0.16666   0.53822   0.18453   0.00000  Uiso   1.00
O275   O     0.16667   0.46178   0.31547   0.00000  Uiso   1.00
O276   O     0.16667   0.53822   0.31547   0.00000  Uiso   1.00
O277   O     0.16666   0.46178   0.18453   0.00000  Uiso   1.00
O278   O     0.22654   0.37768   0.30116   0.00000  Uiso   1.00
Zn279  Zn    0.16667   0.55104   0.25000   0.00000  Uiso   1.00
Zn280  Zn    0.16667   0.44896   0.25000   0.00000  Uiso   1.00
C281   C     0.42011   0.49999   0.24986   0.00000  Uiso   1.00
C282   C     0.64592   0.53801   0.26473   0.00000  Uiso   1.00
C283   C     0.64467   0.46195   0.23546   0.00000  Uiso   1.00
C284   C     0.35533   0.53803   0.26459   0.00000  Uiso   1.00
C285   C     0.46461   0.51058   0.04502   0.00000  Uiso   1.00
C286   C     0.46494   0.48122   0.45060   0.00000  Uiso   1.00
C287   C     0.53590   0.50992   0.45486   0.00000  Uiso   1.00
C288   C     0.53515   0.48077   0.04947   0.00000  Uiso   1.00
C289   C     0.46404   0.51223   0.09124   0.00000  Uiso   1.00
C290   C     0.46418   0.48376   0.40432   0.00000  Uiso   1.00
C291   C     0.53639   0.51156   0.40863   0.00000  Uiso   1.00
C292   C     0.57989   0.50000   0.25015   0.00000  Uiso   1.00
C293   C     0.53584   0.48328   0.09576   0.00000  Uiso   1.00
C294   C     0.50013   0.49930   0.11645   0.00000  Uiso   1.00
C295   C     0.50006   0.49921   0.38353   0.00000  Uiso   1.00
C296   C     0.49992   0.49491   0.02420   0.00000  Uiso   1.00
C297   C     0.50040   0.49483   0.47578   0.00000  Uiso   1.00
C298   C     0.62410   0.49998   0.25014   0.00000  Uiso   1.00
C299   C     0.37590   0.49999   0.24991   0.00000  Uiso   1.00
C300   C     0.42477   0.52711   0.11286   0.00000  Uiso   1.00
C301   C     0.42500   0.47058   0.37775   0.00000  Uiso   1.00
C302   C     0.57581   0.52582   0.38685   0.00000  Uiso   1.00
C303   C     0.49983   0.49994   0.16428   0.00000  Uiso   1.00
C304   C     0.57477   0.46943   0.12242   0.00000  Uiso   1.00
C305   C     0.50023   0.49991   0.33571   0.00000  Uiso   1.00
C306   C     0.52946   0.35701   0.27479   0.00000  Uiso   1.00
C307   C     0.47048   0.64308   0.22533   0.00000  Uiso   1.00
C308   C     0.47055   0.35702   0.22520   0.00000  Uiso   1.00
C309   C     0.52950   0.64307   0.27470   0.00000  Uiso   1.00
C310   C     0.35408   0.46195   0.23537   0.00000  Uiso   1.00
H311   H     0.43767   0.52210   0.02516   0.00000  Uiso   1.00
H312   H     0.44809   0.59120   0.19568   0.00000  Uiso   1.00
H313   H     0.44844   0.40885   0.19436   0.00000  Uiso   1.00
H314   H     0.55187   0.59116   0.30437   0.00000  Uiso   1.00
H315   H     0.43016   0.55993   0.12899   0.00000  Uiso   1.00
H316   H     0.39827   0.53086   0.08802   0.00000  Uiso   1.00
H317   H     0.41552   0.50221   0.13811   0.00000  Uiso   1.00
H318   H     0.43134   0.44140   0.35623   0.00000  Uiso   1.00
H319   H     0.39937   0.46129   0.39977   0.00000  Uiso   1.00
H320   H     0.41403   0.49897   0.35644   0.00000  Uiso   1.00
H321   H     0.57076   0.55853   0.37033   0.00000  Uiso   1.00
H322   H     0.43784   0.46879   0.46712   0.00000  Uiso   1.00
H323   H     0.60235   0.52951   0.41164   0.00000  Uiso   1.00
H324   H     0.58478   0.50059   0.36185   0.00000  Uiso   1.00
H325   H     0.56799   0.44026   0.14383   0.00000  Uiso   1.00
H326   H     0.60034   0.45985   0.10046   0.00000  Uiso   1.00
H327   H     0.58606   0.49757   0.14383   0.00000  Uiso   1.00
H328   H     0.56304   0.52101   0.47465   0.00000  Uiso   1.00
H329   H     0.56209   0.46791   0.03302   0.00000  Uiso   1.00
H330   H     0.36992   0.43256   0.22356   0.00000  Uiso   1.00
H331   H     0.63007   0.56739   0.27657   0.00000  Uiso   1.00
H332   H     0.62780   0.43256   0.22369   0.00000  Uiso   1.00
H333   H     0.37219   0.56743   0.27632   0.00000  Uiso   1.00
H334   H     0.55155   0.40879   0.30566   0.00000  Uiso   1.00
N335   N     0.50000   0.61907   0.25000   0.00000  Uiso   1.00
N336   N     0.50000   0.38093   0.25000   0.00000  Uiso   1.00
O337   O     0.43892   0.53821   0.25000   0.00000  Uiso   1.00
O338   O     0.43998   0.62246   0.19918   0.00000  Uiso   1.00
O339   O     0.44020   0.37768   0.19873   0.00000  Uiso   1.00
O340   O     0.55992   0.62245   0.30097   0.00000  Uiso   1.00
O341   O     0.56108   0.46179   0.25000   0.00000  Uiso   1.00
O342   O     0.56108   0.53821   0.25001   0.00000  Uiso   1.00
O343   O     0.43892   0.46179   0.25000   0.00000  Uiso   1.00
O344   O     0.50000   0.53822   0.18453   0.00000  Uiso   1.00
O345   O     0.50000   0.46178   0.31547   0.00000  Uiso   1.00
O346   O     0.50000   0.53822   0.31547   0.00000  Uiso   1.00
O347   O     0.50000   0.46178   0.18453   0.00000  Uiso   1.00
O348   O     0.55987   0.37768   0.30116   0.00000  Uiso   1.00
Zn349  Zn    0.50000   0.55104   0.25000   0.00000  Uiso   1.00
Zn350  Zn    0.50000   0.44896   0.25000   0.00000  Uiso   1.00
C351   C     0.75345   0.49999   0.24986   0.00000  Uiso   1.00
C352   C     0.97925   0.53801   0.26473   0.00000  Uiso   1.00
C353   C     0.97800   0.46195   0.23546   0.00000  Uiso   1.00
C354   C     0.68866   0.53803   0.26459   0.00000  Uiso   1.00
C355   C     0.79794   0.51058   0.04502   0.00000  Uiso   1.00
C356   C     0.79827   0.48122   0.45060   0.00000  Uiso   1.00
C357   C     0.86924   0.50992   0.45486   0.00000  Uiso   1.00
C358   C     0.86848   0.48077   0.04947   0.00000  Uiso   1.00
C359   C     0.79737   0.51223   0.09124   0.00000  Uiso   1.00
C360   C     0.79751   0.48376   0.40432   0.00000  Uiso   1.00
C361   C     0.86973   0.51156   0.40863   0.00000  Uiso   1.00
C362   C     0.91322   0.50000   0.25015   0.00000  Uiso   1.00
C363   C     0.86917   0.48328   0.09576   0.00000  Uiso   1.00
C364   C     0.83346   0.49930   0.11645   0.00000  Uiso   1.00
C365   C     0.83339   0.49921   0.38353   0.00000  Uiso   1.00
C366   C     0.83325   0.49491   0.02420   0.00000  Uiso   1.00
C367   C     0.83374   0.49483   0.47578   0.00000  Uiso   1.00
C368   C     0.95743   0.49998   0.25014   0.00000  Uiso   1.00
C369   C     0.70923   0.49999   0.24991   0.00000  Uiso   1.00
C370   C     0.75810   0.52711   0.11286   0.00000  Uiso   1.00
C371   C     0.75833   0.47058   0.37775   0.00000  Uiso   1.00
C372   C     0.90914   0.52582   0.38685   0.00000  Uiso   1.00
C373   C     0.83316   0.49994   0.16428   0.00000  Uiso   1.00
C374   C     0.90810   0.46943   0.12242   0.00000  Uiso   1.00
C375   C     0.83357   0.49991   0.33571   0.00000  Uiso   1.00
C376   C     0.86279   0.35701   0.27479   0.00000  Uiso   1.00
C377   C     0.80382   0.64308   0.22533   0.00000  Uiso   1.00
C378   C     0.80388   0.35702   0.22520   0.00000  Uiso   1.00
C379   C     0.86283   0.64307   0.27470   0.00000  Uiso   1.00
C380   C     0.68741   0.46195   0.23537   0.00000  Uiso   1.00
H381   H     0.77101   0.52210   0.02516   0.00000  Uiso   1.00
H382   H     0.78142   0.59120   0.19568   0.00000  Uiso   1.00
H383   H     0.78177   0.40885   0.19436   0.00000  Uiso   1.00
H384   H     0.88520   0.59116   0.30437   0.00000  Uiso   1.00
H385   H     0.76349   0.55993   0.12899   0.00000  Uiso   1.00
H386   H     0.73160   0.53086   0.08802   0.00000  Uiso   1.00
H387   H     0.74885   0.50221   0.13811   0.00000  Uiso   1.00
H388   H     0.76468   0.44140   0.35623   0.00000  Uiso   1.00
H389   H     0.73271   0.46129   0.39977   0.00000  Uiso   1.00
H390   H     0.74736   0.49897   0.35644   0.00000  Uiso   1.00
H391   H     0.90409   0.55853   0.37033   0.00000  Uiso   1.00
H392   H     0.77118   0.46879   0.46712   0.00000  Uiso   1.00
H393   H     0.93569   0.52951   0.41164   0.00000  Uiso   1.00
H394   H     0.91812   0.50059   0.36185   0.00000  Uiso   1.00
H395   H     0.90132   0.44026   0.14383   0.00000  Uiso   1.00
H396   H     0.93367   0.45985   0.10046   0.00000  Uiso   1.00
H397   H     0.91939   0.49757   0.14383   0.00000  Uiso   1.00
H398   H     0.89637   0.52101   0.47465   0.00000  Uiso   1.00
H399   H     0.89542   0.46791   0.03302   0.00000  Uiso   1.00
H400   H     0.70326   0.43256   0.22356   0.00000  Uiso   1.00
H401   H     0.96340   0.56739   0.27657   0.00000  Uiso   1.00
H402   H     0.96113   0.43256   0.22369   0.00000  Uiso   1.00
H403   H     0.70552   0.56743   0.27632   0.00000  Uiso   1.00
H404   H     0.88488   0.40879   0.30566   0.00000  Uiso   1.00
N405   N     0.83333   0.61907   0.25000   0.00000  Uiso   1.00
N406   N     0.83333   0.38093   0.25000   0.00000  Uiso   1.00
O407   O     0.77226   0.53821   0.25000   0.00000  Uiso   1.00
O408   O     0.77332   0.62246   0.19918   0.00000  Uiso   1.00
O409   O     0.77354   0.37768   0.19873   0.00000  Uiso   1.00
O410   O     0.89325   0.62245   0.30097   0.00000  Uiso   1.00
O411   O     0.89441   0.46179   0.25000   0.00000  Uiso   1.00
O412   O     0.89441   0.53821   0.25001   0.00000  Uiso   1.00
O413   O     0.77226   0.46179   0.25000   0.00000  Uiso   1.00
O414   O     0.83333   0.53822   0.18453   0.00000  Uiso   1.00
O415   O     0.83334   0.46178   0.31547   0.00000  Uiso   1.00
O416   O     0.83334   0.53822   0.31547   0.00000  Uiso   1.00
O417   O     0.83333   0.46178   0.18453   0.00000  Uiso   1.00
O418   O     0.89321   0.37768   0.30116   0.00000  Uiso   1.00
Zn419  Zn    0.83333   0.55104   0.25000   0.00000  Uiso   1.00
Zn420  Zn    0.83333   0.44896   0.25000   0.00000  Uiso   1.00
C421   C     0.08678   0.83333   0.24986   0.00000  Uiso   1.00
C422   C     0.31258   0.87134   0.26473   0.00000  Uiso   1.00
C423   C     0.31133   0.79528   0.23546   0.00000  Uiso   1.00
C424   C     0.02199   0.87136   0.26459   0.00000  Uiso   1.00
C425   C     0.13128   0.84392   0.04502   0.00000  Uiso   1.00
C426   C     0.13160   0.81456   0.45060   0.00000  Uiso   1.00
C427   C     0.20257   0.84325   0.45486   0.00000  Uiso   1.00
C428   C     0.20181   0.81411   0.04947   0.00000  Uiso   1.00
C429   C     0.13071   0.84556   0.09124   0.00000  Uiso   1.00
C430   C     0.13084   0.81709   0.40432   0.00000  Uiso   1.00
C431   C     0.20306   0.84490   0.40863   0.00000  Uiso   1.00
C432   C     0.24655   0.83333   0.25015   0.00000  Uiso   1.00
C433   C     0.20251   0.81661   0.09576   0.00000  Uiso   1.00
C434   C     0.16680   0.83263   0.11645   0.00000  Uiso   1.00
C435   C     0.16672   0.83254   0.38353   0.00000  Uiso   1.00
C436   C     0.16659   0.82824   0.02420   0.00000  Uiso   1.00
C437   C     0.16707   0.82816   0.47578   0.00000  Uiso   1.00
C438   C     0.29077   0.83332   0.25014   0.00000  Uiso   1.00
C439   C     0.04256   0.83333   0.24991   0.00000  Uiso   1.00
C440   C     0.09143   0.86044   0.11286   0.00000  Uiso   1.00
C441   C     0.09167   0.80391   0.37775   0.00000  Uiso   1.00
C442   C     0.24248   0.85915   0.38685   0.00000  Uiso   1.00
C443   C     0.16650   0.83328   0.16428   0.00000  Uiso   1.00
C444   C     0.24143   0.80276   0.12242   0.00000  Uiso   1.00
C445   C     0.16690   0.83325   0.33571   0.00000  Uiso   1.00
C446   C     0.19613   0.69034   0.27479   0.00000  Uiso   1.00
C447   C     0.13715   0.97641   0.22533   0.00000  Uiso   1.00
C448   C     0.13722   0.69035   0.22520   0.00000  Uiso   1.00
C449   C     0.19617   0.97641   0.27470   0.00000  Uiso   1.00
C450   C     0.02074   0.79529   0.23537   0.00000  Uiso   1.00
H451   H     0.10434   0.85543   0.02516   0.00000  Uiso   1.00
H452   H     0.11476   0.92454   0.19568   0.00000  Uiso   1.00
H453   H     0.11511   0.74218   0.19436   0.00000  Uiso   1.00
H454   H     0.21854   0.92449   0.30437   0.00000  Uiso   1.00
H455   H     0.09682   0.89326   0.12899   0.00000  Uiso   1.00
H456   H     0.06493   0.86419   0.08802   0.00000  Uiso   1.00
H457   H     0.08218   0.83554   0.13811   0.00000  Uiso   1.00
H458   H     0.09801   0.77474   0.35623   0.00000  Uiso   1.00
H459   H     0.06604   0.79463   0.39977   0.00000  Uiso   1.00
H460   H     0.08070   0.83231   0.35644   0.00000  Uiso   1.00
H461   H     0.23743   0.89187   0.37033   0.00000  Uiso   1.00
H462   H     0.10451   0.80212   0.46712   0.00000  Uiso   1.00
H463   H     0.26902   0.86284   0.41164   0.00000  Uiso   1.00
H464   H     0.25145   0.83393   0.36185   0.00000  Uiso   1.00
H465   H     0.23465   0.77359   0.14383   0.00000  Uiso   1.00
H466   H     0.26700   0.79319   0.10046   0.00000  Uiso   1.00
H467   H     0.25273   0.83091   0.14383   0.00000  Uiso   1.00
H468   H     0.22971   0.85434   0.47465   0.00000  Uiso   1.00
H469   H     0.22876   0.80124   0.03302   0.00000  Uiso   1.00
H470   H     0.03659   0.76589   0.22356   0.00000  Uiso   1.00
H471   H     0.29674   0.90072   0.27657   0.00000  Uiso   1.00
H472   H     0.29446   0.76590   0.22369   0.00000  Uiso   1.00
H473   H     0.03886   0.90076   0.27632   0.00000  Uiso   1.00
H474   H     0.21822   0.74212   0.30566   0.00000  Uiso   1.00
N475   N     0.16667   0.95240   0.25000   0.00000  Uiso   1.00
N476   N     0.16667   0.71427   0.25000   0.00000  Uiso   1.00
O477   O     0.10559   0.87154   0.25000   0.00000  Uiso   1.00
O478   O     0.10665   0.95579   0.19918   0.00000  Uiso   1.00
O479   O     0.10687   0.71101   0.19873   0.00000  Uiso   1.00
O480   O     0.22659   0.95579   0.30097   0.00000  Uiso   1.00
O481   O     0.22774   0.79513   0.25000   0.00000  Uiso   1.00
O482   O     0.22774   0.87154   0.25001   0.00000  Uiso   1.00
O483   O     0.10559   0.79513   0.25000   0.00000  Uiso   1.00
O484   O     0.16666   0.87155   0.18453   0.00000  Uiso   1.00
O485   O     0.16667   0.79511   0.31547   0.00000  Uiso   1.00
O486   O     0.16667   0.87155   0.31547   0.00000  Uiso   1.00
O487   O     0.16666   0.79511   0.18453   0.00000  Uiso   1.00
O488   O     0.22654   0.71101   0.30116   0.00000  Uiso   1.00
Zn489  Zn    0.16667   0.88437   0.25000   0.00000  Uiso   1.00
Zn490  Zn    0.16667   0.78229   0.25000   0.00000  Uiso   1.00
C491   C     0.42011   0.83333   0.24986   0.00000  Uiso   1.00
C492   C     0.64592   0.87134   0.26473   0.00000  Uiso   1.00
C493   C     0.64467   0.79528   0.23546   0.00000  Uiso   1.00
C494   C     0.35533   0.87136   0.26459   0.00000  Uiso   1.00
C495   C     0.46461   0.84392   0.04502   0.00000  Uiso   1.00
C496   C     0.46494   0.81456   0.45060   0.00000  Uiso   1.00
C497   C     0.53590   0.84325   0.45486   0.00000  Uiso   1.00
C498   C     0.53515   0.81411   0.04947   0.00000  Uiso   1.00
C499   C     0.46404   0.84556   0.09124   0.00000  Uiso   1.00
C500   C     0.46418   0.81709   0.40432   0.00000  Uiso   1.00
C501   C     0.53639   0.84490   0.40863   0.00000  Uiso   1.00
C502   C     0.57989   0.83333   0.25015   0.00000  Uiso   1.00
C503   C     0.53584   0.81661   0.09576   0.00000  Uiso   1.00
C504   C     0.50013   0.83263   0.11645   0.00000  Uiso   1.00
C505   C     0.50006   0.83254   0.38353   0.00000  Uiso   1.00
C506   C     0.49992   0.82824   0.02420   0.00000  Uiso   1.00
C507   C     0.50040   0.82816   0.47578   0.00000  Uiso   1.00
C508   C     0.62410   0.83332   0.25014   0.00000  Uiso   1.00
C509   C     0.37590   0.83333   0.24991   0.00000  Uiso   1.00
C510   C     0.42477   0.86044   0.11286   0.00000  Uiso   1.00
C511   C     0.42500   0.80391   0.37775   0.00000  Uiso   1.00
C512   C     0.57581   0.85915   0.38685   0.00000  Uiso   1.00
C513   C     0.49983   0.83328   0.16428   0.00000  Uiso   1.00
C514   C     0.57477   0.80276   0.12242   0.00000  Uiso   1.00
C515   C     0.50023   0.83325   0.33571   0.00000  Uiso   1.00
C516   C     0.52946   0.69034   0.27479   0.00000  Uiso   1.00
C517   C     0.47048   0.97641   0.22533   0.00000  Uiso   1.00
C518   C     0.47055   0.69035   0.22520   0.00000  Uiso   1.00
C519   C     0.52950   0.97641   0.27470   0.00000  Uiso   1.00
C520   C     0.35408   0.79529   0.23537   0.00000  Uiso   1.00
H521   H     0.43767   0.85543   0.02516   0.00000  Uiso   1.00
H522   H     0.44809   0.92454   0.19568   0.00000  Uiso   1.00
H523   H     0.44844   0.74218   0.19436   0.00000  Uiso   1.00
H524   H     0.55187   0.92449   0.30437   0.00000  Uiso   1.00
H525   H     0.43016   0.89326   0.12899   0.00000  Uiso   1.00
H526   H     0.39827   0.86419   0.08802   0.00000  Uiso   1.00
H527   H     0.41552   0.83554   0.13811   0.00000  Uiso   1.00
H528   H     0.43134   0.77474   0.35623   0.00000  Uiso   1.00
H529   H     0.39937   0.79463   0.39977   0.00000  Uiso   1.00
H530   H     0.41403   0.83231   0.35644   0.00000  Uiso   1.00
H531   H     0.57076   0.89187   0.37033   0.00000  Uiso   1.00
H532   H     0.43784   0.80212   0.46712   0.00000  Uiso   1.00
H533   H     0.60235   0.86284   0.41164   0.00000  Uiso   1.00
H534   H     0.58478   0.83393   0.36185   0.00000  Uiso   1.00
H535   H     0.56799   0.77359   0.14383   0.00000  Uiso   1.00
H536   H     0.60034   0.79319   0.10046   0.00000  Uiso   1.00
H537   H     0.58606   0.83091   0.14383   0.00000  Uiso   1.00
H538   H     0.56304   0.85434   0.47465   0.00000  Uiso   1.00
H539   H     0.56209   0.80124   0.03302   0.00000  Uiso   1.00
H540   H     0.36992   0.76589   0.22356   0.00000  Uiso   1.00
H541   H     0.63007   0.90072   0.27657   0.00000  Uiso   1.00
H542   H     0.62780   0.76590   0.22369   0.00000  Uiso   1.00
H543   H     0.37219   0.90076   0.27632   0.00000  Uiso   1.00
H544   H     0.55155   0.74212   0.30566   0.00000  Uiso   1.00
N545   N     0.50000   0.95240   0.25000   0.00000  Uiso   1.00
N546   N     0.50000   0.71427   0.25000   0.00000  Uiso   1.00
O547   O     0.43892   0.87154   0.25000   0.00000  Uiso   1.00
O548   O     0.43998   0.95579   0.19918   0.00000  Uiso   1.00
O549   O     0.44020   0.71101   0.19873   0.00000  Uiso   1.00
O550   O     0.55992   0.95579   0.30097   0.00000  Uiso   1.00
O551   O     0.56108   0.79513   0.25000   0.00000  Uiso   1.00
O552   O     0.56108   0.87154   0.25001   0.00000  Uiso   1.00
O553   O     0.43892   0.79513   0.25000   0.00000  Uiso   1.00
O554   O     0.50000   0.87155   0.18453   0.00000  Uiso   1.00
O555   O     0.50000   0.79511   0.31547   0.00000  Uiso   1.00
O556   O     0.50000   0.87155   0.31547   0.00000  Uiso   1.00
O557   O     0.50000   0.79511   0.18453   0.00000  Uiso   1.00
O558   O     0.55987   0.71101   0.30116   0.00000  Uiso   1.00
Zn559  Zn    0.50000   0.88437   0.25000   0.00000  Uiso   1.00
Zn560  Zn    0.50000   0.78229   0.25000   0.00000  Uiso   1.00
C561   C     0.75345   0.83333   0.24986   0.00000  Uiso   1.00
C562   C     0.97925   0.87134   0.26473   0.00000  Uiso   1.00
C563   C     0.97800   0.79528   0.23546   0.00000  Uiso   1.00
C564   C     0.68866   0.87136   0.26459   0.00000  Uiso   1.00
C565   C     0.79794   0.84392   0.04502   0.00000  Uiso   1.00
C566   C     0.79827   0.81456   0.45060   0.00000  Uiso   1.00
C567   C     0.86924   0.84325   0.45486   0.00000  Uiso   1.00
C568   C     0.86848   0.81411   0.04947   0.00000  Uiso   1.00
C569   C     0.79737   0.84556   0.09124   0.00000  Uiso   1.00
C570   C     0.79751   0.81709   0.40432   0.00000  Uiso   1.00
C571   C     0.86973   0.84490   0.40863   0.00000  Uiso   1.00
C572   C     0.91322   0.83333   0.25015   0.00000  Uiso   1.00
C573   C     0.86917   0.81661   0.09576   0.00000  Uiso   1.00
C574   C     0.83346   0.83263   0.11645   0.00000  Uiso   1.00
C575   C     0.83339   0.83254   0.38353   0.00000  Uiso   1.00
C576   C     0.83325   0.82824   0.02420   0.00000  Uiso   1.00
C577   C     0.83374   0.82816   0.47578   0.00000  Uiso   1.00
C578   C     0.95743   0.83332   0.25014   0.00000  Uiso   1.00
C579   C     0.70923   0.83333   0.24991   0.00000  Uiso   1.00
C580   C     0.75810   0.86044   0.11286   0.00000  Uiso   1.00
C581   C     0.75833   0.80391   0.37775   0.00000  Uiso   1.00
C582   C     0.90914   0.85915   0.38685   0.00000  Uiso   1.00
C583   C     0.83316   0.83328   0.16428   0.00000  Uiso   1.00
C584   C     0.90810   0.80276   0.12242   0.00000  Uiso   1.00
C585   C     0.83357   0.83325   0.33571   0.00000  Uiso   1.00
C586   C     0.86279   0.69034   0.27479   0.00000  Uiso   1.00
C587   C     0.80382   0.97641   0.22533   0.00000  Uiso   1.00
C588   C     0.80388   0.69035   0.22520   0.00000  Uiso   1.00
C589   C     0.86283   0.97641   0.27470   0.00000  Uiso   1.00
C590   C     0.68741   0.79529   0.23537   0.00000  Uiso   1.00
H591   H     0.77101   0.85543   0.02516   0.00000  Uiso   1.00
H592   H     0.78142   0.92454   0.19568   0.00000  Uiso   1.00
H593   H     0.78177   0.74218   0.19436   0.00000  Uiso   1.00
H594   H     0.88520   0.92449   0.30437   0.00000  Uiso   1.00
H595   H     0.76349   0.89326   0.12899   0.00000  Uiso   1.00
H596   H     0.73160   0.86419   0.08802   0.00000  Uiso   1.00
H597   H     0.74885   0.83554   0.13811   0.00000  Uiso   1.00
H598   H     0.76468   0.77474   0.35623   0.00000  Uiso   1.00
H599   H     0.73271   0.79463   0.39977   0.00000  Uiso   1.00
H600   H     0.74736   0.83231   0.35644   0.00000  Uiso   1.00
H601   H     0.90409   0.89187   0.37033   0.00000  Uiso   1.00
H602   H     0.77118   0.80212   0.46712   0.00000  Uiso   1.00
H603   H     0.93569   0.86284   0.41164   0.00000  Uiso   1.00
H604   H     0.91812   0.83393   0.36185   0.00000  Uiso   1.00
H605   H     0.90132   0.77359   0.14383   0.00000  Uiso   1.00
H606   H     0.93367   0.79319   0.10046   0.00000  Uiso   1.00
H607   H     0.91939   0.83091   0.14383   0.00000  Uiso   1.00
H608   H     0.89637   0.85434   0.47465   0.00000  Uiso   1.00
H609   H     0.89542   0.80124   0.03302   0.00000  Uiso   1.00
H610   H     0.70326   0.76589   0.22356   0.00000  Uiso   1.00
H611   H     0.96340   0.90072   0.27657   0.00000  Uiso   1.00
H612   H     0.96113   0.76590   0.22369   0.00000  Uiso   1.00
H613   H     0.70552   0.90076   0.27632   0.00000  Uiso   1.00
H614   H     0.88488   0.74212   0.30566   0.00000  Uiso   1.00
N615   N     0.83333   0.95240   0.25000   0.00000  Uiso   1.00
N616   N     0.83333   0.71427   0.25000   0.00000  Uiso   1.00
O617   O     0.77226   0.87154   0.25000   0.00000  Uiso   1.00
O618   O     0.77332   0.95579   0.19918   0.00000  Uiso   1.00
O619   O     0.77354   0.71101   0.19873   0.00000  Uiso   1.00
O620   O     0.89325   0.95579   0.30097   0.00000  Uiso   1.00
O621   O     0.89441   0.79513   0.25000   0.00000  Uiso   1.00
O622   O     0.89441   0.87154   0.25001   0.00000  Uiso   1.00
O623   O     0.77226   0.79513   0.25000   0.00000  Uiso   1.00
O624   O     0.83333   0.87155   0.18453   0.00000  Uiso   1.00
O625   O     0.83334   0.79511   0.31547   0.00000  Uiso   1.00
O626   O     0.83334   0.87155   0.31547   0.00000  Uiso   1.00
O627   O     0.83333   0.79511   0.18453   0.00000  Uiso   1.00
O628   O     0.89321   0.71101   0.30116   0.00000  Uiso   1.00
Zn629  Zn    0.83333   0.88437   0.25000   0.00000  Uiso   1.00
Zn630  Zn    0.83333   0.78229   0.25000   0.00000  Uiso   1.00
C631   C     0.08678   0.16666   0.74986   0.00000  Uiso   1.00
C632   C     0.31258   0.20467   0.76473   0.00000  Uiso   1.00
C633   C     0.31133   0.12862   0.73546   0.00000  Uiso   1.00
C634   C     0.02199   0.20469   0.76459   0.00000  Uiso   1.00
C635   C     0.13128   0.17725   0.54502   0.00000  Uiso   1.00
C636   C     0.13160   0.14789   0.95060   0.00000  Uiso   1.00
C637   C     0.20257   0.17659   0.95486   0.00000  Uiso   1.00
C638   C     0.20181   0.14744   0.54947   0.00000  Uiso   1.00
C639   C     0.13071   0.17890   0.59124   0.00000  Uiso   1.00
C640   C     0.13084   0.15043   0.90432   0.00000  Uiso   1.00
C641   C     0.20306   0.17823   0.90863   0.00000  Uiso   1.00
C642   C     0.24655   0.16667   0.75015   0.00000  Uiso   1.00
C643   C     0.20251   0.14994   0.59576   0.00000  Uiso   1.00
C644   C     0.16680   0.16596   0.61645   0.00000  Uiso   1.00
C645   C     0.16672   0.16588   0.88353   0.00000  Uiso   1.00
C646   C     0.16659   0.16157   0.52420   0.00000  Uiso   1.00
C647   C     0.16707   0.16150   0.97578   0.00000  Uiso   1.00
C648   C     0.29077   0.16665   0.75014   0.00000  Uiso   1.00
C649   C     0.04256   0.16666   0.74991   0.00000  Uiso   1.00
C650   C     0.09143   0.19377   0.61286   0.00000  Uiso   1.00
C651   C     0.09167   0.13725   0.87775   0.00000  Uiso   1.00
C652   C     0.24248   0.19249   0.88685   0.00000  Uiso   1.00
C653   C     0.16650   0.16661   0.66428   0.00000  Uiso   1.00
C654   C     0.24143   0.13609   0.62242   0.00000  Uiso   1.00
C655   C     0.16690   0.16658   0.83571   0.00000  Uiso   1.00
C656   C     0.19613   0.02368   0.77479   0.00000  Uiso   1.00
C657   C     0.13715   0.30975   0.72533   0.00000  Uiso   1.00
C658   C     0.13722   0.02368   0.72520   0.00000  Uiso   1.00
C659   C     0.19617   0.30974   0.77470   0.00000  Uiso   1.00
C660   C     0.02074   0.12862   0.73537   0.00000  Uiso   1.00
H661   H     0.10434   0.18877   0.52516   0.00000  Uiso   1.00
H662   H     0.11476   0.25787   0.69568   0.00000  Uiso   1.00
H663   H     0.11511   0.07552   0.69436   0.00000  Uiso   1.00
H664   H     0.21854   0.25782   0.80437   0.00000  Uiso   1.00
H665   H     0.09682   0.22659   0.62899   0.00000  Uiso   1.00
H666   H     0.06493   0.19753   0.58802   0.00000  Uiso   1.00
H667   H     0.08218   0.16888   0.63811   0.00000  Uiso   1.00
H668   H     0.09801   0.10807   0.85623   0.00000  Uiso   1.00
H669   H     0.06604   0.12796   0.89977   0.00000  Uiso   1.00
H670   H     0.08070   0.16564   0.85644   0.00000  Uiso   1.00
H671   H     0.23743   0.22520   0.87033   0.00000  Uiso   1.00
H672   H     0.10451   0.13545   0.96712   0.00000  Uiso   1.00
H673   H     0.26902   0.19618   0.91164   0.00000  Uiso   1.00
H674   H     0.25145   0.16726   0.86185   0.00000  Uiso   1.00
H675   H     0.23465   0.10692   0.64383   0.00000  Uiso   1.00
H676   H     0.26700   0.12652   0.60046   0.00000  Uiso   1.00
H677   H     0.25273   0.16424   0.64383   0.00000  Uiso   1.00
H678   H     0.22971   0.18767   0.97465   0.00000  Uiso   1.00
H679   H     0.22876   0.13457   0.53302   0.00000  Uiso   1.00
H680   H     0.03659   0.09923   0.72356   0.00000  Uiso   1.00
H681   H     0.29674   0.23405   0.77657   0.00000  Uiso   1.00
H682   H     0.29446   0.09923   0.72369   0.00000  Uiso   1.00
H683   H     0.03886   0.23410   0.77632   0.00000  Uiso   1.00
H684   H     0.21822   0.07546   0.80566   0.00000  Uiso   1.00
N685   N     0.16667   0.28573   0.75000   0.00000  Uiso   1.00
N686   N     0.16667   0.04760   0.75000   0.00000  Uiso   1.00
O687   O     0.10559   0.20487   0.75000   0.00000  Uiso   1.00
O688   O     0.10665   0.28912   0.69918   0.00000  Uiso   1.00
O689   O     0.10687   0.04434   0.69873   0.00000  Uiso   1.00
O690   O     0.22659   0.28912   0.80097   0.00000  Uiso   1.00
O691   O     0.22774   0.12846   0.75000   0.00000  Uiso   1.00
O692   O     0.22774   0.20487   0.75001   0.00000  Uiso   1.00
O693   O     0.10559   0.12846   0.75000   0.00000  Uiso   1.00
O694   O     0.16666   0.20489   0.68453   0.00000  Uiso   1.00
O695   O     0.16667   0.12845   0.81547   0.00000  Uiso   1.00
O696   O     0.16667   0.20489   0.81547   0.00000  Uiso   1.00
O697   O     0.16666   0.12845   0.68453   0.00000  Uiso   1.00
O698   O     0.22654   0.04434   0.80116   0.00000  Uiso   1.00
Zn699  Zn    0.16667   0.21771   0.75000   0.00000  Uiso   1.00
Zn700  Zn    0.16667   0.11563   0.75000   0.00000  Uiso   1.00
C701   C     0.42011   0.16666   0.74986   0.00000  Uiso   1.00
C702   C     0.64592   0.20467   0.76473   0.00000  Uiso   1.00
C703   C     0.64467   0.12862   0.73546   0.00000  Uiso   1.00
C704   C     0.35533   0.20469   0.76459   0.00000  Uiso   1.00
C705   C     0.46461   0.17725   0.54502   0.00000  Uiso   1.00
C706   C     0.46494   0.14789   0.95060   0.00000  Uiso   1.00
C707   C     0.53590   0.17659   0.95486   0.00000  Uiso   1.00
C708   C     0.53515   0.14744   0.54947   0.00000  Uiso   1.00
C709   C     0.46404   0.17890   0.59124   0.00000  Uiso   1.00
C710   C     0.46418   0.15043   0.90432   0.00000  Uiso   1.00
C711   C     0.53639   0.17823   0.90863   0.00000  Uiso   1.00
C712   C     0.57989   0.16667   0.75015   0.00000  Uiso   1.00
C713   C     0.53584   0.14994   0.59576   0.00000  Uiso   1.00
C714   C     0.50013   0.16596   0.61645   0.00000  Uiso   1.00
C715   C     0.50006   0.16588   0.88353   0.00000  Uiso   1.00
C716   C     0.49992   0.16157   0.52420   0.00000  Uiso   1.00
C717   C     0.50040   0.16150   0.97578   0.00000  Uiso   1.00
C718   C     0.62410   0.16665   0.75014   0.00000  Uiso   1.00
C719   C     0.37590   0.16666   0.74991   0.00000  Uiso   1.00
C720   C     0.42477   0.19377   0.61286   0.00000  Uiso   1.00
C721   C     0.42500   0.13725   0.87775   0.00000  Uiso   1.00
C722   C     0.57581   0.19249   0.88685   0.00000  Uiso   1.00
C723   C     0.49983   0.16661   0.66428   0.00000  Uiso   1.00
C724   C     0.57477   0.13609   0.62242   0.00000  Uiso   1.00
C725   C     0.50023   0.16658   0.83571   0.00000  Uiso   1.00
C726   C     0.52946   0.02368   0.77479   0.00000  Uiso   1.00
C727   C     0.47048   0.30975   0.72533   0.00000  Uiso   1.00
C728   C     0.47055   0.02368   0.72520   0.00000  Uiso   1.00
C729   C     0.52950   0.30974   0.77470   0.00000  Uiso   1.00
C730   C     0.35408   0.12862   0.73537   0.00000  Uiso   1.00
H731   H     0.43767   0.18877   0.52516   0.00000  Uiso   1.00
H732   H     0.44809   0.25787   0.69568   0.00000  Uiso   1.00
H733   H     0.44844   0.07552   0.69436   0.00000  Uiso   1.00
H734   H     0.55187   0.25782   0.80437   0.00000  Uiso   1.00
H735   H     0.43016   0.22659   0.62899   0.00000  Uiso   1.00
H736   H     0.39827   0.19753   0.58802   0.00000  Uiso   1.00
H737   H     0.41552   0.16888   0.63811   0.00000  Uiso   1.00
H738   H     0.43134   0.10807   0.85623   0.00000  Uiso   1.00
H739   H     0.39937   0.12796   0.89977   0.00000  Uiso   1.00
H740   H     0.41403   0.16564   0.85644   0.00000  Uiso   1.00
H741   H     0.57076   0.22520   0.87033   0.00000  Uiso   1.00
H742   H     0.43784   0.13545   0.96712   0.00000  Uiso   1.00
H743   H     0.60235   0.19618   0.91164   0.00000  Uiso   1.00
H744   H     0.58478   0.16726   0.86185   0.00000  Uiso   1.00
H745   H     0.56799   0.10692   0.64383   0.00000  Uiso   1.00
H746   H     0.60034   0.12652   0.60046   0.00000  Uiso   1.00
H747   H     0.58606   0.16424   0.64383   0.00000  Uiso   1.00
H748   H     0.56304   0.18767   0.97465   0.00000  Uiso   1.00
H749   H     0.56209   0.13457   0.53302   0.00000  Uiso   1.00
H750   H     0.36992   0.09923   0.72356   0.00000  Uiso   1.00
H751   H     0.63007   0.23405   0.77657   0.00000  Uiso   1.00
H752   H     0.62780   0.09923   0.72369   0.00000  Uiso   1.00
H753   H     0.37219   0.23410   0.77632   0.00000  Uiso   1.00
H754   H     0.55155   0.07546   0.80566   0.00000  Uiso   1.00
N755   N     0.50000   0.28573   0.75000   0.00000  Uiso   1.00
N756   N     0.50000   0.04760   0.75000   0.00000  Uiso   1.00
O757   O     0.43892   0.20487   0.75000   0.00000  Uiso   1.00
O758   O     0.43998   0.28912   0.69918   0.00000  Uiso   1.00
O759   O     0.44020   0.04434   0.69873   0.00000  Uiso   1.00
O760   O     0.55992   0.28912   0.80097   0.00000  Uiso   1.00
O761   O     0.56108   0.12846   0.75000   0.00000  Uiso   1.00
O762   O     0.56108   0.20487   0.75001   0.00000  Uiso   1.00
O763   O     0.43892   0.12846   0.75000   0.00000  Uiso   1.00
O764   O     0.50000   0.20489   0.68453   0.00000  Uiso   1.00
O765   O     0.50000   0.12845   0.81547   0.00000  Uiso   1.00
O766   O     0.50000   0.20489   0.81547   0.00000  Uiso   1.00
O767   O     0.50000   0.12845   0.68453   0.00000  Uiso   1.00
O768   O     0.55987   0.04434   0.80116   0.00000  Uiso   1.00
Zn769  Zn    0.50000   0.21771   0.75000   0.00000  Uiso   1.00
Zn770  Zn    0.50000   0.11563   0.75000   0.00000  Uiso   1.00
C771   C     0.75345   0.16666   0.74986   0.00000  Uiso   1.00
C772   C     0.97925   0.20467   0.76473   0.00000  Uiso   1.00
C773   C     0.97800   0.12862   0.73546   0.00000  Uiso   1.00
C774   C     0.68866   0.20469   0.76459   0.00000  Uiso   1.00
C775   C     0.79794   0.17725   0.54502   0.00000  Uiso   1.00
C776   C     0.79827   0.14789   0.95060   0.00000  Uiso   1.00
C777   C     0.86924   0.17659   0.95486   0.00000  Uiso   1.00
C778   C     0.86848   0.14744   0.54947   0.00000  Uiso   1.00
C779   C     0.79737   0.17890   0.59124   0.00000  Uiso   1.00
C780   C     0.79751   0.15043   0.90432   0.00000  Uiso   1.00
C781   C     0.86973   0.17823   0.90863   0.00000  Uiso   1.00
C782   C     0.91322   0.16667   0.75015   0.00000  Uiso   1.00
C783   C     0.86917   0.14994   0.59576   0.00000  Uiso   1.00
C784   C     0.83346   0.16596   0.61645   0.00000  Uiso   1.00
C785   C     0.83339   0.16588   0.88353   0.00000  Uiso   1.00
C786   C     0.83325   0.16157   0.52420   0.00000  Uiso   1.00
C787   C     0.83374   0.16150   0.97578   0.00000  Uiso   1.00
C788   C     0.95743   0.16665   0.75014   0.00000  Uiso   1.00
C789   C     0.70923   0.16666   0.74991   0.00000  Uiso   1.00
C790   C     0.75810   0.19377   0.61286   0.00000  Uiso   1.00
C791   C     0.75833   0.13725   0.87775   0.00000  Uiso   1.00
C792   C     0.90914   0.19249   0.88685   0.00000  Uiso   1.00
C793   C     0.83316   0.16661   0.66428   0.00000  Uiso   1.00
C794   C     0.90810   0.13609   0.62242   0.00000  Uiso   1.00
C795   C     0.83357   0.16658   0.83571   0.00000  Uiso   1.00
C796   C     0.86279   0.02368   0.77479   0.00000  Uiso   1.00
C797   C     0.80382   0.30975   0.72533   0.00000  Uiso   1.00
C798   C     0.80388   0.02368   0.72520   0.00000  Uiso   1.00
C799   C     0.86283   0.30974   0.77470   0.00000  Uiso   1.00
C800   C     0.68741   0.12862   0.73537   0.00000  Uiso   1.00
H801   H     0.77101   0.18877   0.52516   0.00000  Uiso   1.00
H802   H     0.78142   0.25787   0.69568   0.00000  Uiso   1.00
H803   H     0.78177   0.07552   0.69436   0.00000  Uiso   1.00
H804   H     0.88520   0.25782   0.80437   0.00000  Uiso   1.00
H805   H     0.76349   0.22659   0.62899   0.00000  Uiso   1.00
H806   H     0.73160   0.19753   0.58802   0.00000  Uiso   1.00
H807   H     0.74885   0.16888   0.63811   0.00000  Uiso   1.00
H808   H     0.76468   0.10807   0.85623   0.00000  Uiso   1.00
H809   H     0.73271   0.12796   0.89977   0.00000  Uiso   1.00
H810   H     0.74736   0.16564   0.85644   0.00000  Uiso   1.00
H811   H     0.90409   0.22520   0.87033   0.00000  Uiso   1.00
H812   H     0.77118   0.13545   0.96712   0.00000  Uiso   1.00
H813   H     0.93569   0.19618   0.91164   0.00000  Uiso   1.00
H814   H     0.91812   0.16726   0.86185   0.00000  Uiso   1.00
H815   H     0.90132   0.10692   0.64383   0.00000  Uiso   1.00
H816   H     0.93367   0.12652   0.60046   0.00000  Uiso   1.00
H817   H     0.91939   0.16424   0.64383   0.00000  Uiso   1.00
H818   H     0.89637   0.18767   0.97465   0.00000  Uiso   1.00
H819   H     0.89542   0.13457   0.53302   0.00000  Uiso   1.00
H820   H     0.70326   0.09923   0.72356   0.00000  Uiso   1.00
H821   H     0.96340   0.23405   0.77657   0.00000  Uiso   1.00
H822   H     0.96113   0.09923   0.72369   0.00000  Uiso   1.00
H823   H     0.70552   0.23410   0.77632   0.00000  Uiso   1.00
H824   H     0.88488   0.07546   0.80566   0.00000  Uiso   1.00
N825   N     0.83333   0.28573   0.75000   0.00000  Uiso   1.00
N826   N     0.83333   0.04760   0.75000   0.00000  Uiso   1.00
O827   O     0.77226   0.20487   0.75000   0.00000  Uiso   1.00
O828   O     0.77332   0.28912   0.69918   0.00000  Uiso   1.00
O829   O     0.77354   0.04434   0.69873   0.00000  Uiso   1.00
O830   O     0.89325   0.28912   0.80097   0.00000  Uiso   1.00
O831   O     0.89441   0.12846   0.75000   0.00000  Uiso   1.00
O832   O     0.89441   0.20487   0.75001   0.00000  Uiso   1.00
O833   O     0.77226   0.12846   0.75000   0.00000  Uiso   1.00
O834   O     0.83333   0.20489   0.68453   0.00000  Uiso   1.00
O835   O     0.83334   0.12845   0.81547   0.00000  Uiso   1.00
O836   O     0.83334   0.20489   0.81547   0.00000  Uiso   1.00
O837   O     0.83333   0.12845   0.68453   0.00000  Uiso   1.00
O838   O     0.89321   0.04434   0.80116   0.00000  Uiso   1.00
Zn839  Zn    0.83333   0.21771   0.75000   0.00000  Uiso   1.00
Zn840  Zn    0.83333   0.11563   0.75000   0.00000  Uiso   1.00
C841   C     0.08678   0.49999   0.74986   0.00000  Uiso   1.00
C842   C     0.31258   0.53801   0.76473   0.00000  Uiso   1.00
C843   C     0.31133   0.46195   0.73546   0.00000  Uiso   1.00
C844   C     0.02199   0.53803   0.76459   0.00000  Uiso   1.00
C845   C     0.13128   0.51058   0.54502   0.00000  Uiso   1.00
C846   C     0.13160   0.48122   0.95060   0.00000  Uiso   1.00
C847   C     0.20257   0.50992   0.95486   0.00000  Uiso   1.00
C848   C     0.20181   0.48077   0.54947   0.00000  Uiso   1.00
C849   C     0.13071   0.51223   0.59124   0.00000  Uiso   1.00
C850   C     0.13084   0.48376   0.90432   0.00000  Uiso   1.00
C851   C     0.20306   0.51156   0.90863   0.00000  Uiso   1.00
C852   C     0.24655   0.50000   0.75015   0.00000  Uiso   1.00
C853   C     0.20251   0.48328   0.59576   0.00000  Uiso   1.00
C854   C     0.16680   0.49930   0.61645   0.00000  Uiso   1.00
C855   C     0.16672   0.49921   0.88353   0.00000  Uiso   1.00
C856   C     0.16659   0.49491   0.52420   0.00000  Uiso   1.00
C857   C     0.16707   0.49483   0.97578   0.00000  Uiso   1.00
C858   C     0.29077   0.49998   0.75014   0.00000  Uiso   1.00
C859   C     0.04256   0.49999   0.74991   0.00000  Uiso   1.00
C860   C     0.09143   0.52711   0.61286   0.00000  Uiso   1.00
C861   C     0.09167   0.47058   0.87775   0.00000  Uiso   1.00
C862   C     0.24248   0.52582   0.88685   0.00000  Uiso   1.00
C863   C     0.16650   0.49994   0.66428   0.00000  Uiso   1.00
C864   C     0.24143   0.46943   0.62242   0.00000  Uiso   1.00
C865   C     0.16690   0.49991   0.83571   0.00000  Uiso   1.00
C866   C     0.19613   0.35701   0.77479   0.00000  Uiso   1.00
C867   C     0.13715   0.64308   0.72533   0.00000  Uiso   1.00
C868   C     0.13722   0.35702   0.72520   0.00000  Uiso   1.00
C869   C     0.19617   0.64307   0.77470   0.00000  Uiso   1.00
C870   C     0.02074   0.46195   0.73537   0.00000  Uiso   1.00
H871   H     0.10434   0.52210   0.52516   0.00000  Uiso   1.00
H872   H     0.11476   0.59120   0.69568   0.00000  Uiso   1.00
H873   H     0.11511   0.40885   0.69436   0.00000  Uiso   1.00
H874   H     0.21854   0.59116   0.80437   0.00000  Uiso   1.00
H875   H     0.09682   0.55993   0.62899   0.00000  Uiso   1.00
H876   H     0.06493   0.53086   0.58802   0.00000  Uiso   1.00
H877   H     0.08218   0.50221   0.63811   0.00000  Uiso   1.00
H878   H     0.09801   0.44140   0.85623   0.00000  Uiso   1.00
H879   H     0.06604   0.46129   0.89977   0.00000  Uiso   1.00
H880   H     0.08070   0.49897   0.85644   0.00000  Uiso   1.00
H881   H     0.23743   0.55853   0.87033   0.00000  Uiso   1.00
H882   H     0.10451   0.46879   0.96712   0.00000  Uiso   1.00
H883   H     0.26902   0.52951   0.91164   0.00000  Uiso   1.00
H884   H     0.25145   0.50059   0.86185   0.00000  Uiso   1.00
H885   H     0.23465   0.44026   0.64383   0.00000  Uiso   1.00
H886   H     0.26700   0.45985   0.60046   0.00000  Uiso   1.00
H887   H     0.25273   0.49757   0.64383   0.00000  Uiso   1.00
H888   H     0.22971   0.52101   0.97465   0.00000  Uiso   1.00
H889   H     0.22876   0.46791   0.53302   0.00000  Uiso   1.00
H890   H     0.03659   0.43256   0.72356   0.00000  Uiso   1.00
H891   H     0.29674   0.56739   0.77657   0.00000  Uiso   1.00
H892   H     0.29446   0.43256   0.72369   0.00000  Uiso   1.00
H893   H     0.03886   0.56743   0.77632   0.00000  Uiso   1.00
H894   H     0.21822   0.40879   0.80566   0.00000  Uiso   1.00
N895   N     0.16667   0.61907   0.75000   0.00000  Uiso   1.00
N896   N     0.16667   0.38093   0.75000   0.00000  Uiso   1.00
O897   O     0.10559   0.53821   0.75000   0.00000  Uiso   1.00
O898   O     0.10665   0.62246   0.69918   0.00000  Uiso   1.00
O899   O     0.10687   0.37768   0.69873   0.00000  Uiso   1.00
O900   O     0.22659   0.62245   0.80097   0.00000  Uiso   1.00
O901   O     0.22774   0.46179   0.75000   0.00000  Uiso   1.00
O902   O     0.22774   0.53821   0.75001   0.00000  Uiso   1.00
O903   O     0.10559   0.46179   0.75000   0.00000  Uiso   1.00
O904   O     0.16666   0.53822   0.68453   0.00000  Uiso   1.00
O905   O     0.16667   0.46178   0.81547   0.00000  Uiso   1.00
O906   O     0.16667   0.53822   0.81547   0.00000  Uiso   1.00
O907   O     0.16666   0.46178   0.68453   0.00000  Uiso   1.00
O908   O     0.22654   0.37768   0.80116   0.00000  Uiso   1.00
Zn909  Zn    0.16667   0.55104   0.75000   0.00000  Uiso   1.00
Zn910  Zn    0.16667   0.44896   0.75000   0.00000  Uiso   1.00
C911   C     0.42011   0.49999   0.74986   0.00000  Uiso   1.00
C912   C     0.64592   0.53801   0.76473   0.00000  Uiso   1.00
C913   C     0.64467   0.46195   0.73546   0.00000  Uiso   1.00
C914   C     0.35533   0.53803   0.76459   0.00000  Uiso   1.00
C915   C     0.46461   0.51058   0.54502   0.00000  Uiso   1.00
C916   C     0.46494   0.48122   0.95060   0.00000  Uiso   1.00
C917   C     0.53590   0.50992   0.95486   0.00000  Uiso   1.00
C918   C     0.53515   0.48077   0.54947   0.00000  Uiso   1.00
C919   C     0.46404   0.51223   0.59124   0.00000  Uiso   1.00
C920   C     0.46418   0.48376   0.90432   0.00000  Uiso   1.00
C921   C     0.53639   0.51156   0.90863   0.00000  Uiso   1.00
C922   C     0.57989   0.50000   0.75015   0.00000  Uiso   1.00
C923   C     0.53584   0.48328   0.59576   0.00000  Uiso   1.00
C924   C     0.50013   0.49930   0.61645   0.00000  Uiso   1.00
C925   C     0.50006   0.49921   0.88353   0.00000  Uiso   1.00
C926   C     0.49992   0.49491   0.52420   0.00000  Uiso   1.00
C927   C     0.50040   0.49483   0.97578   0.00000  Uiso   1.00
C928   C     0.62410   0.49998   0.75014   0.00000  Uiso   1.00
C929   C     0.37590   0.49999   0.74991   0.00000  Uiso   1.00
C930   C     0.42477   0.52711   0.61286   0.00000  Uiso   1.00
C931   C     0.42500   0.47058   0.87775   0.00000  Uiso   1.00
C932   C     0.57581   0.52582   0.88685   0.00000  Uiso   1.00
C933   C     0.49983   0.49994   0.66428   0.00000  Uiso   1.00
C934   C     0.57477   0.46943   0.62242   0.00000  Uiso   1.00
C935   C     0.50023   0.49991   0.83571   0.00000  Uiso   1.00
C936   C     0.52946   0.35701   0.77479   0.00000  Uiso   1.00
C937   C     0.47048   0.64308   0.72533   0.00000  Uiso   1.00
C938   C     0.47055   0.35702   0.72520   0.00000  Uiso   1.00
C939   C     0.52950   0.64307   0.77470   0.00000  Uiso   1.00
C940   C     0.35408   0.46195   0.73537   0.00000  Uiso   1.00
H941   H     0.43767   0.52210   0.52516   0.00000  Uiso   1.00
H942   H     0.44809   0.59120   0.69568   0.00000  Uiso   1.00
H943   H     0.44844   0.40885   0.69436   0.00000  Uiso   1.00
H944   H     0.55187   0.59116   0.80437   0.00000  Uiso   1.00
H945   H     0.43016   0.55993   0.62899   0.00000  Uiso   1.00
H946   H     0.39827   0.53086   0.58802   0.00000  Uiso   1.00
H947   H     0.41552   0.50221   0.63811   0.00000  Uiso   1.00
H948   H     0.43134   0.44140   0.85623   0.00000  Uiso   1.00
H949   H     0.39937   0.46129   0.89977   0.00000  Uiso   1.00
H950   H     0.41403   0.49897   0.85644   0.00000  Uiso   1.00
H951   H     0.57076   0.55853   0.87033   0.00000  Uiso   1.00
H952   H     0.43784   0.46879   0.96712   0.00000  Uiso   1.00
H953   H     0.60235   0.52951   0.91164   0.00000  Uiso   1.00
H954   H     0.58478   0.50059   0.86185   0.00000  Uiso   1.00
H955   H     0.56799   0.44026   0.64383   0.00000  Uiso   1.00
H956   H     0.60034   0.45985   0.60046   0.00000  Uiso   1.00
H957   H     0.58606   0.49757   0.64383   0.00000  Uiso   1.00
H958   H     0.56304   0.52101   0.97465   0.00000  Uiso   1.00
H959   H     0.56209   0.46791   0.53302   0.00000  Uiso   1.00
H960   H     0.36992   0.43256   0.72356   0.00000  Uiso   1.00
H961   H     0.63007   0.56739   0.77657   0.00000  Uiso   1.00
H962   H     0.62780   0.43256   0.72369   0.00000  Uiso   1.00
H963   H     0.37219   0.56743   0.77632   0.00000  Uiso   1.00
H964   H     0.55155   0.40879   0.80566   0.00000  Uiso   1.00
N965   N     0.50000   0.61907   0.75000   0.00000  Uiso   1.00
N966   N     0.50000   0.38093   0.75000   0.00000  Uiso   1.00
O967   O     0.43892   0.53821   0.75000   0.00000  Uiso   1.00
O968   O     0.43998   0.62246   0.69918   0.00000  Uiso   1.00
O969   O     0.44020   0.37768   0.69873   0.00000  Uiso   1.00
O970   O     0.55992   0.62245   0.80097   0.00000  Uiso   1.00
O971   O     0.56108   0.46179   0.75000   0.00000  Uiso   1.00
O972   O     0.56108   0.53821   0.75001   0.00000  Uiso   1.00
O973   O     0.43892   0.46179   0.75000   0.00000  Uiso   1.00
O974   O     0.50000   0.53822   0.68453   0.00000  Uiso   1.00
O975   O     0.50000   0.46178   0.81547   0.00000  Uiso   1.00
O976   O     0.50000   0.53822   0.81547   0.00000  Uiso   1.00
O977   O     0.50000   0.46178   0.68453   0.00000  Uiso   1.00
O978   O     0.55987   0.37768   0.80116   0.00000  Uiso   1.00
Zn979  Zn    0.50000   0.55104   0.75000   0.00000  Uiso   1.00
Zn980  Zn    0.50000   0.44896   0.75000   0.00000  Uiso   1.00
C981   C     0.75345   0.49999   0.74986   0.00000  Uiso   1.00
C982   C     0.97925   0.53801   0.76473   0.00000  Uiso   1.00
C983   C     0.97800   0.46195   0.73546   0.00000  Uiso   1.00
C984   C     0.68866   0.53803   0.76459   0.00000  Uiso   1.00
C985   C     0.79794   0.51058   0.54502   0.00000  Uiso   1.00
C986   C     0.79827   0.48122   0.95060   0.00000  Uiso   1.00
C987   C     0.86924   0.50992   0.95486   0.00000  Uiso   1.00
C988   C     0.86848   0.48077   0.54947   0.00000  Uiso   1.00
C989   C     0.79737   0.51223   0.59124   0.00000  Uiso   1.00
C990   C     0.79751   0.48376   0.90432   0.00000  Uiso   1.00
C991   C     0.86973   0.51156   0.90863   0.00000  Uiso   1.00
C992   C     0.91322   0.50000   0.75015   0.00000  Uiso   1.00
C993   C     0.86917   0.48328   0.59576   0.00000  Uiso   1.00
C994   C     0.83346   0.49930   0.61645   0.00000  Uiso   1.00
C995   C     0.83339   0.49921   0.88353   0.00000  Uiso   1.00
C996   C     0.83325   0.49491   0.52420   0.00000  Uiso   1.00
C997   C     0.83374   0.49483   0.97578   0.00000  Uiso   1.00
C998   C     0.95743   0.49998   0.75014   0.00000  Uiso   1.00
C999   C     0.70923   0.49999   0.74991   0.00000  Uiso   1.00
C1000  C     0.75810   0.52711   0.61286   0.00000  Uiso   1.00
C1001  C     0.75833   0.47058   0.87775   0.00000  Uiso   1.00
C1002  C     0.90914   0.52582   0.88685   0.00000  Uiso   1.00
C1003  C     0.83316   0.49994   0.66428   0.00000  Uiso   1.00
C1004  C     0.90810   0.46943   0.62242   0.00000  Uiso   1.00
C1005  C     0.83357   0.49991   0.83571   0.00000  Uiso   1.00
C1006  C     0.86279   0.35701   0.77479   0.00000  Uiso   1.00
C1007  C     0.80382   0.64308   0.72533   0.00000  Uiso   1.00
C1008  C     0.80388   0.35702   0.72520   0.00000  Uiso   1.00
C1009  C     0.86283   0.64307   0.77470   0.00000  Uiso   1.00
C1010  C     0.68741   0.46195   0.73537   0.00000  Uiso   1.00
H1011  H     0.77101   0.52210   0.52516   0.00000  Uiso   1.00
H1012  H     0.78142   0.59120   0.69568   0.00000  Uiso   1.00
H1013  H     0.78177   0.40885   0.69436   0.00000  Uiso   1.00
H1014  H     0.88520   0.59116   0.80437   0.00000  Uiso   1.00
H1015  H     0.76349   0.55993   0.62899   0.00000  Uiso   1.00
H1016  H     0.73160   0.53086   0.58802   0.00000  Uiso   1.00
H1017  H     0.74885   0.50221   0.63811   0.00000  Uiso   1.00
H1018  H     0.76468   0.44140   0.85623   0.00000  Uiso   1.00
H1019  H     0.73271   0.46129   0.89977   0.00000  Uiso   1.00
H1020  H     0.74736   0.49897   0.85644   0.00000  Uiso   1.00
H1021  H     0.90409   0.55853   0.87033   0.00000  Uiso   1.00
H1022  H     0.77118   0.46879   0.96712   0.00000  Uiso   1.00
H1023  H     0.93569   0.52951   0.91164   0.00000  Uiso   1.00
H1024  H     0.91812   0.50059   0.86185   0.00000  Uiso   1.00
H1025  H     0.90132   0.44026   0.64383   0.00000  Uiso   1.00
H1026  H     0.93367   0.45985   0.60046   0.00000  Uiso   1.00
H1027  H     0.91939   0.49757   0.64383   0.00000  Uiso   1.00
H1028  H     0.89637   0.52101   0.97465   0.00000  Uiso   1.00
H1029  H     0.89542   0.46791   0.53302   0.00000  Uiso   1.00
H1030  H     0.70326   0.43256   0.72356   0.00000  Uiso   1.00
H1031  H     0.96340   0.56739   0.77657   0.00000  Uiso   1.00
H1032  H     0.96113   0.43256   0.72369   0.00000  Uiso   1.00
H1033  H     0.70552   0.56743   0.77632   0.00000  Uiso   1.00
H1034  H     0.88488   0.40879   0.80566   0.00000  Uiso   1.00
N1035  N     0.83333   0.61907   0.75000   0.00000  Uiso   1.00
N1036  N     0.83333   0.38093   0.75000   0.00000  Uiso   1.00
O1037  O     0.77226   0.53821   0.75000   0.00000  Uiso   1.00
O1038  O     0.77332   0.62246   0.69918   0.00000  Uiso   1.00
O1039  O     0.77354   0.37768   0.69873   0.00000  Uiso   1.00
O1040  O     0.89325   0.62245   0.80097   0.00000  Uiso   1.00
O1041  O     0.89441   0.46179   0.75000   0.00000  Uiso   1.00
O1042  O     0.89441   0.53821   0.75001   0.00000  Uiso   1.00
O1043  O     0.77226   0.46179   0.75000   0.00000  Uiso   1.00
O1044  O     0.83333   0.53822   0.68453   0.00000  Uiso   1.00
O1045  O     0.83334   0.46178   0.81547   0.00000  Uiso   1.00
O1046  O     0.83334   0.53822   0.81547   0.00000  Uiso   1.00
O1047  O     0.83333   0.46178   0.68453   0.00000  Uiso   1.00
O1048  O     0.89321   0.37768   0.80116   0.00000  Uiso   1.00
Zn1049 Zn    0.83333   0.55104   0.75000   0.00000  Uiso   1.00
Zn1050 Zn    0.83333   0.44896   0.75000   0.00000  Uiso   1.00
C1051  C     0.08678   0.83333   0.74986   0.00000  Uiso   1.00
C1052  C     0.31258   0.87134   0.76473   0.00000  Uiso   1.00
C1053  C     0.31133   0.79528   0.73546   0.00000  Uiso   1.00
C1054  C     0.02199   0.87136   0.76459   0.00000  Uiso   1.00
C1055  C     0.13128   0.84392   0.54502   0.00000  Uiso   1.00
C1056  C     0.13160   0.81456   0.95060   0.00000  Uiso   1.00
C1057  C     0.20257   0.84325   0.95486   0.00000  Uiso   1.00
C1058  C     0.20181   0.81411   0.54947   0.00000  Uiso   1.00
C1059  C     0.13071   0.84556   0.59124   0.00000  Uiso   1.00
C1060  C     0.13084   0.81709   0.90432   0.00000  Uiso   1.00
C1061  C     0.20306   0.84490   0.90863   0.00000  Uiso   1.00
C1062  C     0.24655   0.83333   0.75015   0.00000  Uiso   1.00
C1063  C     0.20251   0.81661   0.59576   0.00000  Uiso   1.00
C1064  C     0.16680   0.83263   0.61645   0.00000  Uiso   1.00
C1065  C     0.16672   0.83254   0.88353   0.00000  Uiso   1.00
C1066  C     0.16659   0.82824   0.52420   0.00000  Uiso   1.00
C1067  C     0.16707   0.82816   0.97578   0.00000  Uiso   1.00
C1068  C     0.29077   0.83332   0.75014   0.00000  Uiso   1.00
C1069  C     0.04256   0.83333   0.74991   0.00000  Uiso   1.00
C1070  C     0.09143   0.86044   0.61286   0.00000  Uiso   1.00
C1071  C     0.09167   0.80391   0.87775   0.00000  Uiso   1.00
C1072  C     0.24248   0.85915   0.88685   0.00000  Uiso   1.00
C1073  C     0.16650   0.83328   0.66428   0.00000  Uiso   1.00
C1074  C     0.24143   0.80276   0.62242   0.00000  Uiso   1.00
C1075  C     0.16690   0.83325   0.83571   0.00000  Uiso   1.00
C1076  C     0.19613   0.69034   0.77479   0.00000  Uiso   1.00
C1077  C     0.13715   0.97641   0.72533   0.00000  Uiso   1.00
C1078  C     0.13722   0.69035   0.72520   0.00000  Uiso   1.00
C1079  C     0.19617   0.97641   0.77470   0.00000  Uiso   1.00
C1080  C     0.02074   0.79529   0.73537   0.00000  Uiso   1.00
H1081  H     0.10434   0.85543   0.52516   0.00000  Uiso   1.00
H1082  H     0.11476   0.92454   0.69568   0.00000  Uiso   1.00
H1083  H     0.11511   0.74218   0.69436   0.00000  Uiso   1.00
H1084  H     0.21854   0.92449   0.80437   0.00000  Uiso   1.00
H1085  H     0.09682   0.89326   0.62899   0.00000  Uiso   1.00
H1086  H     0.06493   0.86419   0.58802   0.00000  Uiso   1.00
H1087  H     0.08218   0.83554   0.63811   0.00000  Uiso   1.00
H1088  H     0.09801   0.77474   0.85623   0.00000  Uiso   1.00
H1089  H     0.06604   0.79463   0.89977   0.00000  Uiso   1.00
H1090  H     0.08070   0.83231   0.85644   0.00000  Uiso   1.00
H1091  H     0.23743   0.89187   0.87033   0.00000  Uiso   1.00
H1092  H     0.10451   0.80212   0.96712   0.00000  Uiso   1.00
H1093  H     0.26902   0.86284   0.91164   0.00000  Uiso   1.00
H1094  H     0.25145   0.83393   0.86185   0.00000  Uiso   1.00
H1095  H     0.23465   0.77359   0.64383   0.00000  Uiso   1.00
H1096  H     0.26700   0.79319   0.60046   0.00000  Uiso   1.00
H1097  H     0.25273   0.83091   0.64383   0.00000  Uiso   1.00
H1098  H     0.22971   0.85434   0.97465   0.00000  Uiso   1.00
H1099  H     0.22876   0.80124   0.53302   0.00000  Uiso   1.00
H1100  H     0.03659   0.76589   0.72356   0.00000  Uiso   1.00
H1101  H     0.29674   0.90072   0.77657   0.00000  Uiso   1.00
H1102  H     0.29446   0.76590   0.72369   0.00000  Uiso   1.00
H1103  H     0.03886   0.90076   0.77632   0.00000  Uiso   1.00
H1104  H     0.21822   0.74212   0.80566   0.00000  Uiso   1.00
N1105  N     0.16667   0.95240   0.75000   0.00000  Uiso   1.00
N1106  N     0.16667   0.71427   0.75000   0.00000  Uiso   1.00
O1107  O     0.10559   0.87154   0.75000   0.00000  Uiso   1.00
O1108  O     0.10665   0.95579   0.69918   0.00000  Uiso   1.00
O1109  O     0.10687   0.71101   0.69873   0.00000  Uiso   1.00
O1110  O     0.22659   0.95579   0.80097   0.00000  Uiso   1.00
O1111  O     0.22774   0.79513   0.75000   0.00000  Uiso   1.00
O1112  O     0.22774   0.87154   0.75001   0.00000  Uiso   1.00
O1113  O     0.10559   0.79513   0.75000   0.00000  Uiso   1.00
O1114  O     0.16666   0.87155   0.68453   0.00000  Uiso   1.00
O1115  O     0.16667   0.79511   0.81547   0.00000  Uiso   1.00
O1116  O     0.16667   0.87155   0.81547   0.00000  Uiso   1.00
O1117  O     0.16666   0.79511   0.68453   0.00000  Uiso   1.00
O1118  O     0.22654   0.71101   0.80116   0.00000  Uiso   1.00
Zn1119 Zn    0.16667   0.88437   0.75000   0.00000  Uiso   1.00
Zn1120 Zn    0.16667   0.78229   0.75000   0.00000  Uiso   1.00
C1121  C     0.42011   0.83333   0.74986   0.00000  Uiso   1.00
C1122  C     0.64592   0.87134   0.76473   0.00000  Uiso   1.00
C1123  C     0.64467   0.79528   0.73546   0.00000  Uiso   1.00
C1124  C     0.35533   0.87136   0.76459   0.00000  Uiso   1.00
C1125  C     0.46461   0.84392   0.54502   0.00000  Uiso   1.00
C1126  C     0.46494   0.81456   0.95060   0.00000  Uiso   1.00
C1127  C     0.53590   0.84325   0.95486   0.00000  Uiso   1.00
C1128  C     0.53515   0.81411   0.54947   0.00000  Uiso   1.00
C1129  C     0.46404   0.84556   0.59124   0.00000  Uiso   1.00
C1130  C     0.46418   0.81709   0.90432   0.00000  Uiso   1.00
C1131  C     0.53639   0.84490   0.90863   0.00000  Uiso   1.00
C1132  C     0.57989   0.83333   0.75015   0.00000  Uiso   1.00
C1133  C     0.53584   0.81661   0.59576   0.00000  Uiso   1.00
C1134  C     0.50013   0.83263   0.61645   0.00000  Uiso   1.00
C1135  C     0.50006   0.83254   0.88353   0.00000  Uiso   1.00
C1136  C     0.49992   0.82824   0.52420   0.00000  Uiso   1.00
C1137  C     0.50040   0.82816   0.97578   0.00000  Uiso   1.00
C1138  C     0.62410   0.83332   0.75014   0.00000  Uiso   1.00
C1139  C     0.37590   0.83333   0.74991   0.00000  Uiso   1.00
C1140  C     0.42477   0.86044   0.61286   0.00000  Uiso   1.00
C1141  C     0.42500   0.80391   0.87775   0.00000  Uiso   1.00
C1142  C     0.57581   0.85915   0.88685   0.00000  Uiso   1.00
C1143  C     0.49983   0.83328   0.66428   0.00000  Uiso   1.00
C1144  C     0.57477   0.80276   0.62242   0.00000  Uiso   1.00
C1145  C     0.50023   0.83325   0.83571   0.00000  Uiso   1.00
C1146  C     0.52946   0.69034   0.77479   0.00000  Uiso   1.00
C1147  C     0.47048   0.97641   0.72533   0.00000  Uiso   1.00
C1148  C     0.47055   0.69035   0.72520   0.00000  Uiso   1.00
C1149  C     0.52950   0.97641   0.77470   0.00000  Uiso   1.00
C1150  C     0.35408   0.79529   0.73537   0.00000  Uiso   1.00
H1151  H     0.43767   0.85543   0.52516   0.00000  Uiso   1.00
H1152  H     0.44809   0.92454   0.69568   0.00000  Uiso   1.00
H1153  H     0.44844   0.74218   0.69436   0.00000  Uiso   1.00
H1154  H     0.55187   0.92449   0.80437   0.00000  Uiso   1.00
H1155  H     0.43016   0.89326   0.62899   0.00000  Uiso   1.00
H1156  H     0.39827   0.86419   0.58802   0.00000  Uiso   1.00
H1157  H     0.41552   0.83554   0.63811   0.00000  Uiso   1.00
H1158  H     0.43134   0.77474   0.85623   0.00000  Uiso   1.00
H1159  H     0.39937   0.79463   0.89977   0.00000  Uiso   1.00
H1160  H     0.41403   0.83231   0.85644   0.00000  Uiso   1.00
H1161  H     0.57076   0.89187   0.87033   0.00000  Uiso   1.00
H1162  H     0.43784   0.80212   0.96712   0.00000  Uiso   1.00
H1163  H     0.60235   0.86284   0.91164   0.00000  Uiso   1.00
H1164  H     0.58478   0.83393   0.86185   0.00000  Uiso   1.00
H1165  H     0.56799   0.77359   0.64383   0.00000  Uiso   1.00
H1166  H     0.60034   0.79319   0.60046   0.00000  Uiso   1.00
H1167  H     0.58606   0.83091   0.64383   0.00000  Uiso   1.00
H1168  H     0.56304   0.85434   0.97465   0.00000  Uiso   1.00
H1169  H     0.56209   0.80124   0.53302   0.00000  Uiso   1.00
H1170  H     0.36992   0.76589   0.72356   0.00000  Uiso   1.00
H1171  H     0.63007   0.90072   0.77657   0.00000  Uiso   1.00
H1172  H     0.62780   0.76590   0.72369   0.00000  Uiso   1.00
H1173  H     0.37219   0.90076   0.77632   0.00000  Uiso   1.00
H1174  H     0.55155   0.74212   0.80566   0.00000  Uiso   1.00
N1175  N     0.50000   0.95240   0.75000   0.00000  Uiso   1.00
N1176  N     0.50000   0.71427   0.75000   0.00000  Uiso   1.00
O1177  O     0.43892   0.87154   0.75000   0.00000  Uiso   1.00
O1178  O     0.43998   0.95579   0.69918   0.00000  Uiso   1.00
O1179  O     0.44020   0.71101   0.69873   0.00000  Uiso   1.00
O1180  O     0.55992   0.95579   0.80097   0.00000  Uiso   1.00
O1181  O     0.56108   0.79513   0.75000   0.00000  Uiso   1.00
O1182  O     0.56108   0.87154   0.75001   0.00000  Uiso   1.00
O1183  O     0.43892   0.79513   0.75000   0.00000  Uiso   1.00
O1184  O     0.50000   0.87155   0.68453   0.00000  Uiso   1.00
O1185  O     0.50000   0.79511   0.81547   0.00000  Uiso   1.00
O1186  O     0.50000   0.87155   0.81547   0.00000  Uiso   1.00
O1187  O     0.50000   0.79511   0.68453   0.00000  Uiso   1.00
O1188  O     0.55987   0.71101   0.80116   0.00000  Uiso   1.00
Zn1189 Zn    0.50000   0.88437   0.75000   0.00000  Uiso   1.00
Zn1190 Zn    0.50000   0.78229   0.75000   0.00000  Uiso   1.00
C1191  C     0.75345   0.83333   0.74986   0.00000  Uiso   1.00
C1192  C     0.97925   0.87134   0.76473   0.00000  Uiso   1.00
C1193  C     0.97800   0.79528   0.73546   0.00000  Uiso   1.00
C1194  C     0.68866   0.87136   0.76459   0.00000  Uiso   1.00
C1195  C     0.79794   0.84392   0.54502   0.00000  Uiso   1.00
C1196  C     0.79827   0.81456   0.95060   0.00000  Uiso   1.00
C1197  C     0.86924   0.84325   0.95486   0.00000  Uiso   1.00
C1198  C     0.86848   0.81411   0.54947   0.00000  Uiso   1.00
C1199  C     0.79737   0.84556   0.59124   0.00000  Uiso   1.00
C1200  C     0.79751   0.81709   0.90432   0.00000  Uiso   1.00
C1201  C     0.86973   0.84490   0.90863   0.00000  Uiso   1.00
C1202  C     0.91322   0.83333   0.75015   0.00000  Uiso   1.00
C1203  C     0.86917   0.81661   0.59576   0.00000  Uiso   1.00
C1204  C     0.83346   0.83263   0.61645   0.00000  Uiso   1.00
C1205  C     0.83339   0.83254   0.88353   0.00000  Uiso   1.00
C1206  C     0.83325   0.82824   0.52420   0.00000  Uiso   1.00
C1207  C     0.83374   0.82816   0.97578   0.00000  Uiso   1.00
C1208  C     0.95743   0.83332   0.75014   0.00000  Uiso   1.00
C1209  C     0.70923   0.83333   0.74991   0.00000  Uiso   1.00
C1210  C     0.75810   0.86044   0.61286   0.00000  Uiso   1.00
C1211  C     0.75833   0.80391   0.87775   0.00000  Uiso   1.00
C1212  C     0.90914   0.85915   0.88685   0.00000  Uiso   1.00
C1213  C     0.83316   0.83328   0.66428   0.00000  Uiso   1.00
C1214  C     0.90810   0.80276   0.62242   0.00000  Uiso   1.00
C1215  C     0.83357   0.83325   0.83571   0.00000  Uiso   1.00
C1216  C     0.86279   0.69034   0.77479   0.00000  Uiso   1.00
C1217  C     0.80382   0.97641   0.72533   0.00000  Uiso   1.00
C1218  C     0.80388   0.69035   0.72520   0.00000  Uiso   1.00
C1219  C     0.86283   0.97641   0.77470   0.00000  Uiso   1.00
C1220  C     0.68741   0.79529   0.73537   0.00000  Uiso   1.00
H1221  H     0.77101   0.85543   0.52516   0.00000  Uiso   1.00
H1222  H     0.78142   0.92454   0.69568   0.00000  Uiso   1.00
H1223  H     0.78177   0.74218   0.69436   0.00000  Uiso   1.00
H1224  H     0.88520   0.92449   0.80437   0.00000  Uiso   1.00
H1225  H     0.76349   0.89326   0.62899   0.00000  Uiso   1.00
H1226  H     0.73160   0.86419   0.58802   0.00000  Uiso   1.00
H1227  H     0.74885   0.83554   0.63811   0.00000  Uiso   1.00
H1228  H     0.76468   0.77474   0.85623   0.00000  Uiso   1.00
H1229  H     0.73271   0.79463   0.89977   0.00000  Uiso   1.00
H1230  H     0.74736   0.83231   0.85644   0.00000  Uiso   1.00
H1231  H     0.90409   0.89187   0.87033   0.00000  Uiso   1.00
H1232  H     0.77118   0.80212   0.96712   0.00000  Uiso   1.00
H1233  H     0.93569   0.86284   0.91164   0.00000  Uiso   1.00
H1234  H     0.91812   0.83393   0.86185   0.00000  Uiso   1.00
H1235  H     0.90132   0.77359   0.64383   0.00000  Uiso   1.00
H1236  H     0.93367   0.79319   0.60046   0.00000  Uiso   1.00
H1237  H     0.91939   0.83091   0.64383   0.00000  Uiso   1.00
H1238  H     0.89637   0.85434   0.97465   0.00000  Uiso   1.00
H1239  H     0.89542   0.80124   0.53302   0.00000  Uiso   1.00
H1240  H     0.70326   0.76589   0.72356   0.00000  Uiso   1.00
H1241  H     0.96340   0.90072   0.77657   0.00000  Uiso   1.00
H1242  H     0.96113   0.76590   0.72369   0.00000  Uiso   1.00
H1243  H     0.70552   0.90076   0.77632   0.00000  Uiso   1.00
H1244  H     0.88488   0.74212   0.80566   0.00000  Uiso   1.00
N1245  N     0.83333   0.95240   0.75000   0.00000  Uiso   1.00
N1246  N     0.83333   0.71427   0.75000   0.00000  Uiso   1.00
O1247  O     0.77226   0.87154   0.75000   0.00000  Uiso   1.00
O1248  O     0.77332   0.95579   0.69918   0.00000  Uiso   1.00
O1249  O     0.77354   0.71101   0.69873   0.00000  Uiso   1.00
O1250  O     0.89325   0.95579   0.80097   0.00000  Uiso   1.00
O1251  O     0.89441   0.79513   0.75000   0.00000  Uiso   1.00
O1252  O     0.89441   0.87154   0.75001   0.00000  Uiso   1.00
O1253  O     0.77226   0.79513   0.75000   0.00000  Uiso   1.00
O1254  O     0.83333   0.87155   0.68453   0.00000  Uiso   1.00
O1255  O     0.83334   0.79511   0.81547   0.00000  Uiso   1.00
O1256  O     0.83334   0.87155   0.81547   0.00000  Uiso   1.00
O1257  O     0.83333   0.79511   0.68453   0.00000  Uiso   1.00
O1258  O     0.89321   0.71101   0.80116   0.00000  Uiso   1.00
Zn1259 Zn    0.83333   0.88437   0.75000   0.00000  Uiso   1.00
Zn1260 Zn    0.83333   0.78229   0.75000   0.00000  Uiso   1.00
loop_
_geom_bond_atom_site_label_1
_geom_bond_atom_site_label_2
_geom_bond_distance
_geom_bond_site_symmetry_2
_ccdc_geom_bond_type
C1     O57     1.293   .     A
C1     O63     1.293   .     A
C1     C19     1.418   .     S
C2     C18     1.396   .     A
C2     H51     1.083   .     S
C2     C74     1.371   .     S
C3     H52     1.084   .     S
C3     C18     1.397   .     A
C3     C100    1.371   .     S
C4     H53     1.084   .     S
C4     C19     1.397   .     A
C4     C142    1.371   1_455 S
C5     C9      1.386   .     A
C5     C16     1.397   .     A
C5     H31     1.084   .     S
C6     C10     1.388   .     A
C6     H42     1.084   .     S
C6     C17     1.398   .     A
C7     H48     1.084   .     S
C7     C11     1.387   .     A
C7     C17     1.397   .     A
C8     C13     1.388   .     A
C8     C16     1.398   .     A
C8     H49     1.084   .     S
C9     C14     1.409   .     A
C9     C20     1.508   .     S
C10    C15     1.409   .     A
C10    C21     1.511   .     S
C11    C22     1.508   .     S
C11    C15     1.409   .     A
C12    O62     1.293   .     A
C12    O61     1.293   .     A
C12    C18     1.418   .     S
C13    C14     1.410   .     A
C13    C24     1.511   .     S
C14    C23     1.434   .     S
C15    C25     1.433   .     S
C16    C647    1.451   1_554 S
C17    C646    1.451   .     S
C19    C30     1.397   .     A
C20    H37     1.111   .     S
C20    H36     1.111   .     S
C20    H35     1.105   .     S
C21    H39     1.111   .     S
C21    H40     1.111   .     S
C21    H38     1.110   .     S
C22    H41     1.106   .     S
C22    H43     1.111   .     S
C22    H44     1.111   .     S
C23    O64     1.297   .     A
C23    O67     1.293   .     A
C24    H46     1.111   .     S
C24    H47     1.111   .     S
C24    H45     1.110   .     S
C25    O66     1.296   .     A
C25    O65     1.293   .     A
C26    O68     1.376   .     S
C26    N56     1.377   .     A
C26    C449    1.415   1_545 S
C27    N55     1.378   .     A
C27    O58     1.373   .     S
C27    C238    1.415   .     S
C28    O59     1.375   .     S
C28    N56     1.377   .     A
C28    C447    1.415   1_545 S
C29    N55     1.378   .     A
C29    O60     1.373   .     S
C29    C236    1.415   .     S
C30    H50     1.083   .     S
C30    C143    1.371   1_455 S
H32    O58     0.978   .     S
H33    O59     0.980   .     S
H34    O60     0.978   .     S
H54    O68     0.980   .     S
N55    Zn69    2.036   .     S
N56    Zn70    2.036   .     S
O57    Zn69    1.996   .     S
O61    Zn70    1.996   .     S
O62    Zn69    1.996   .     S
O63    Zn70    1.996   .     S
O64    Zn69    1.999   .     S
O65    Zn70    1.999   .     S
O66    Zn69    1.998   .     S
O67    Zn70    1.998   .     S
C71    O127    1.293   .     A
C71    O133    1.293   .     A
C71    C89     1.418   .     S
C72    C88     1.396   .     A
C72    H121    1.083   .     S
C72    C144    1.371   .     S
C73    H122    1.084   .     S
C73    C88     1.397   .     A
C73    C170    1.371   .     S
C74    H123    1.084   .     S
C74    C89     1.397   .     A
C75    C79     1.386   .     A
C75    C86     1.397   .     A
C75    H101    1.084   .     S
C76    C80     1.388   .     A
C76    H112    1.084   .     S
C76    C87     1.398   .     A
C77    H118    1.084   .     S
C77    C81     1.387   .     A
C77    C87     1.397   .     A
C78    C83     1.388   .     A
C78    C86     1.398   .     A
C78    H119    1.084   .     S
C79    C84     1.409   .     A
C79    C90     1.508   .     S
C80    C85     1.409   .     A
C80    C91     1.511   .     S
C81    C92     1.508   .     S
C81    C85     1.409   .     A
C82    O132    1.293   .     A
C82    O131    1.293   .     A
C82    C88     1.418   .     S
C83    C84     1.410   .     A
C83    C94     1.511   .     S
C84    C93     1.434   .     S
C85    C95     1.433   .     S
C86    C717    1.451   1_554 S
C87    C716    1.451   .     S
C89    C100    1.397   .     A
C90    H107    1.111   .     S
C90    H106    1.111   .     S
C90    H105    1.105   .     S
C91    H109    1.111   .     S
C91    H110    1.111   .     S
C91    H108    1.110   .     S
C92    H111    1.106   .     S
C92    H113    1.111   .     S
C92    H114    1.111   .     S
C93    O134    1.297   .     A
C93    O137    1.293   .     A
C94    H116    1.111   .     S
C94    H117    1.111   .     S
C94    H115    1.110   .     S
C95    O136    1.296   .     A
C95    O135    1.293   .     A
C96    O138    1.376   .     S
C96    N126    1.377   .     A
C96    C519    1.415   1_545 S
C97    N125    1.378   .     A
C97    O128    1.373   .     S
C97    C308    1.415   .     S
C98    O129    1.375   .     S
C98    N126    1.377   .     A
C98    C517    1.415   1_545 S
C99    N125    1.378   .     A
C99    O130    1.373   .     S
C99    C306    1.415   .     S
C100   H120    1.083   .     S
H102   O128    0.978   .     S
H103   O129    0.980   .     S
H104   O130    0.978   .     S
H124   O138    0.980   .     S
N125   Zn139   2.036   .     S
N126   Zn140   2.036   .     S
O127   Zn139   1.996   .     S
O131   Zn140   1.996   .     S
O132   Zn139   1.996   .     S
O133   Zn140   1.996   .     S
O134   Zn139   1.999   .     S
O135   Zn140   1.999   .     S
O136   Zn139   1.998   .     S
O137   Zn140   1.998   .     S
C141   O197    1.293   .     A
C141   O203    1.293   .     A
C141   C159    1.418   .     S
C142   C158    1.396   .     A
C142   H191    1.083   .     S
C142   C4      1.371   1_655 S
C143   H192    1.084   .     S
C143   C158    1.397   .     A
C143   C30     1.371   1_655 S
C144   H193    1.084   .     S
C144   C159    1.397   .     A
C145   C149    1.386   .     A
C145   C156    1.397   .     A
C145   H171    1.084   .     S
C146   C150    1.388   .     A
C146   H182    1.084   .     S
C146   C157    1.398   .     A
C147   H188    1.084   .     S
C147   C151    1.387   .     A
C147   C157    1.397   .     A
C148   C153    1.388   .     A
C148   C156    1.398   .     A
C148   H189    1.084   .     S
C149   C154    1.409   .     A
C149   C160    1.508   .     S
C150   C155    1.409   .     A
C150   C161    1.511   .     S
C151   C162    1.508   .     S
C151   C155    1.409   .     A
C152   O202    1.293   .     A
C152   O201    1.293   .     A
C152   C158    1.418   .     S
C153   C154    1.410   .     A
C153   C164    1.511   .     S
C154   C163    1.434   .     S
C155   C165    1.433   .     S
C156   C787    1.451   1_554 S
C157   C786    1.451   .     S
C159   C170    1.397   .     A
C160   H177    1.111   .     S
C160   H176    1.111   .     S
C160   H175    1.105   .     S
C161   H179    1.111   .     S
C161   H180    1.111   .     S
C161   H178    1.110   .     S
C162   H181    1.106   .     S
C162   H183    1.111   .     S
C162   H184    1.111   .     S
C163   O204    1.297   .     A
C163   O207    1.293   .     A
C164   H186    1.111   .     S
C164   H187    1.111   .     S
C164   H185    1.110   .     S
C165   O206    1.296   .     A
C165   O205    1.293   .     A
C166   O208    1.376   .     S
C166   N196    1.377   .     A
C166   C589    1.415   1_545 S
C167   N195    1.378   .     A
C167   O198    1.373   .     S
C167   C378    1.415   .     S
C168   O199    1.375   .     S
C168   N196    1.377   .     A
C168   C587    1.415   1_545 S
C169   N195    1.378   .     A
C169   O200    1.373   .     S
C169   C376    1.415   .     S
C170   H190    1.083   .     S
H172   O198    0.978   .     S
H173   O199    0.980   .     S
H174   O200    0.978   .     S
H194   O208    0.980   .     S
N195   Zn209   2.036   .     S
N196   Zn210   2.036   .     S
O197   Zn209   1.996   .     S
O201   Zn210   1.996   .     S
O202   Zn209   1.996   .     S
O203   Zn210   1.996   .     S
O204   Zn209   1.999   .     S
O205   Zn210   1.999   .     S
O206   Zn209   1.998   .     S
O207   Zn210   1.998   .     S
C211   O267    1.293   .     A
C211   O273    1.293   .     A
C211   C229    1.418   .     S
C212   C228    1.396   .     A
C212   H261    1.083   .     S
C212   C284    1.371   .     S
C213   H262    1.084   .     S
C213   C228    1.397   .     A
C213   C310    1.371   .     S
C214   H263    1.084   .     S
C214   C229    1.397   .     A
C214   C352    1.371   1_455 S
C215   C219    1.386   .     A
C215   C226    1.397   .     A
C215   H241    1.084   .     S
C216   C220    1.388   .     A
C216   H252    1.084   .     S
C216   C227    1.398   .     A
C217   H258    1.084   .     S
C217   C221    1.387   .     A
C217   C227    1.397   .     A
C218   C223    1.388   .     A
C218   C226    1.398   .     A
C218   H259    1.084   .     S
C219   C224    1.409   .     A
C219   C230    1.508   .     S
C220   C225    1.409   .     A
C220   C231    1.511   .     S
C221   C232    1.508   .     S
C221   C225    1.409   .     A
C222   O272    1.293   .     A
C222   O271    1.293   .     A
C222   C228    1.418   .     S
C223   C224    1.410   .     A
C223   C234    1.511   .     S
C224   C233    1.434   .     S
C225   C235    1.433   .     S
C226   C857    1.451   1_554 S
C227   C856    1.451   .     S
C229   C240    1.397   .     A
C230   H247    1.111   .     S
C230   H246    1.111   .     S
C230   H245    1.105   .     S
C231   H249    1.111   .     S
C231   H250    1.111   .     S
C231   H248    1.110   .     S
C232   H251    1.106   .     S
C232   H253    1.111   .     S
C232   H254    1.111   .     S
C233   O274    1.297   .     A
C233   O277    1.293   .     A
C234   H256    1.111   .     S
C234   H257    1.111   .     S
C234   H255    1.110   .     S
C235   O276    1.296   .     A
C235   O275    1.293   .     A
C236   O278    1.376   .     S
C236   N266    1.377   .     A
C237   N265    1.378   .     A
C237   O268    1.373   .     S
C237   C448    1.415   .     S
C238   O269    1.375   .     S
C238   N266    1.377   .     A
C239   N265    1.378   .     A
C239   O270    1.373   .     S
C239   C446    1.415   .     S
C240   H260    1.083   .     S
C240   C353    1.371   1_455 S
H242   O268    0.978   .     S
H243   O269    0.980   .     S
H244   O270    0.978   .     S
H264   O278    0.980   .     S
N265   Zn279   2.036   .     S
N266   Zn280   2.036   .     S
O267   Zn279   1.996   .     S
O271   Zn280   1.996   .     S
O272   Zn279   1.996   .     S
O273   Zn280   1.996   .     S
O274   Zn279   1.999   .     S
O275   Zn280   1.999   .     S
O276   Zn279   1.998   .     S
O277   Zn280   1.998   .     S
C281   O337    1.293   .     A
C281   O343    1.293   .     A
C281   C299    1.418   .     S
C282   C298    1.396   .     A
C282   H331    1.083   .     S
C282   C354    1.371   .     S
C283   H332    1.084   .     S
C283   C298    1.397   .     A
C283   C380    1.371   .     S
C284   H333    1.084   .     S
C284   C299    1.397   .     A
C285   C289    1.386   .     A
C285   C296    1.397   .     A
C285   H311    1.084   .     S
C286   C290    1.388   .     A
C286   H322    1.084   .     S
C286   C297    1.398   .     A
C287   H328    1.084   .     S
C287   C291    1.387   .     A
C287   C297    1.397   .     A
C288   C293    1.388   .     A
C288   C296    1.398   .     A
C288   H329    1.084   .     S
C289   C294    1.409   .     A
C289   C300    1.508   .     S
C290   C295    1.409   .     A
C290   C301    1.511   .     S
C291   C302    1.508   .     S
C291   C295    1.409   .     A
C292   O342    1.293   .     A
C292   O341    1.293   .     A
C292   C298    1.418   .     S
C293   C294    1.410   .     A
C293   C304    1.511   .     S
C294   C303    1.434   .     S
C295   C305    1.433   .     S
C296   C927    1.451   1_554 S
C297   C926    1.451   .     S
C299   C310    1.397   .     A
C300   H317    1.111   .     S
C300   H316    1.111   .     S
C300   H315    1.105   .     S
C301   H319    1.111   .     S
C301   H320    1.111   .     S
C301   H318    1.110   .     S
C302   H321    1.106   .     S
C302   H323    1.111   .     S
C302   H324    1.111   .     S
C303   O344    1.297   .     A
C303   O347    1.293   .     A
C304   H326    1.111   .     S
C304   H327    1.111   .     S
C304   H325    1.110   .     S
C305   O346    1.296   .     A
C305   O345    1.293   .     A
C306   O348    1.376   .     S
C306   N336    1.377   .     A
C307   N335    1.378   .     A
C307   O338    1.373   .     S
C307   C518    1.415   .     S
C308   O339    1.375   .     S
C308   N336    1.377   .     A
C309   N335    1.378   .     A
C309   O340    1.373   .     S
C309   C516    1.415   .     S
C310   H330    1.083   .     S
H312   O338    0.978   .     S
H313   O339    0.980   .     S
H314   O340    0.978   .     S
H334   O348    0.980   .     S
N335   Zn349   2.036   .     S
N336   Zn350   2.036   .     S
O337   Zn349   1.996   .     S
O341   Zn350   1.996   .     S
O342   Zn349   1.996   .     S
O343   Zn350   1.996   .     S
O344   Zn349   1.999   .     S
O345   Zn350   1.999   .     S
O346   Zn349   1.998   .     S
O347   Zn350   1.998   .     S
C351   O407    1.293   .     A
C351   O413    1.293   .     A
C351   C369    1.418   .     S
C352   C368    1.396   .     A
C352   H401    1.083   .     S
C352   C214    1.371   1_655 S
C353   H402    1.084   .     S
C353   C368    1.397   .     A
C353   C240    1.371   1_655 S
C354   H403    1.084   .     S
C354   C369    1.397   .     A
C355   C359    1.386   .     A
C355   C366    1.397   .     A
C355   H381    1.084   .     S
C356   C360    1.388   .     A
C356   H392    1.084   .     S
C356   C367    1.398   .     A
C357   H398    1.084   .     S
C357   C361    1.387   .     A
C357   C367    1.397   .     A
C358   C363    1.388   .     A
C358   C366    1.398   .     A
C358   H399    1.084   .     S
C359   C364    1.409   .     A
C359   C370    1.508   .     S
C360   C365    1.409   .     A
C360   C371    1.511   .     S
C361   C372    1.508   .     S
C361   C365    1.409   .     A
C362   O412    1.293   .     A
C362   O411    1.293   .     A
C362   C368    1.418   .     S
C363   C364    1.410   .     A
C363   C374    1.511   .     S
C364   C373    1.434   .     S
C365   C375    1.433   .     S
C366   C997    1.451   1_554 S
C367   C996    1.451   .     S
C369   C380    1.397   .     A
C370   H387    1.111   .     S
C370   H386    1.111   .     S
C370   H385    1.105   .     S
C371   H389    1.111   .     S
C371   H390    1.111   .     S
C371   H388    1.110   .     S
C372   H391    1.106   .     S
C372   H393    1.111   .     S
C372   H394    1.111   .     S
C373   O414    1.297   .     A
C373   O417    1.293   .     A
C374   H396    1.111   .     S
C374   H397    1.111   .     S
C374   H395    1.110   .     S
C375   O416    1.296   .     A
C375   O415    1.293   .     A
C376   O418    1.376   .     S
C376   N406    1.377   .     A
C377   N405    1.378   .     A
C377   O408    1.373   .     S
C377   C588    1.415   .     S
C378   O409    1.375   .     S
C378   N406    1.377   .     A
C379   N405    1.378   .     A
C379   O410    1.373   .     S
C379   C586    1.415   .     S
C380   H400    1.083   .     S
H382   O408    0.978   .     S
H383   O409    0.980   .     S
H384   O410    0.978   .     S
H404   O418    0.980   .     S
N405   Zn419   2.036   .     S
N406   Zn420   2.036   .     S
O407   Zn419   1.996   .     S
O411   Zn420   1.996   .     S
O412   Zn419   1.996   .     S
O413   Zn420   1.996   .     S
O414   Zn419   1.999   .     S
O415   Zn420   1.999   .     S
O416   Zn419   1.998   .     S
O417   Zn420   1.998   .     S
C421   O477    1.293   .     A
C421   O483    1.293   .     A
C421   C439    1.418   .     S
C422   C438    1.396   .     A
C422   H471    1.083   .     S
C422   C494    1.371   .     S
C423   H472    1.084   .     S
C423   C438    1.397   .     A
C423   C520    1.371   .     S
C424   H473    1.084   .     S
C424   C439    1.397   .     A
C424   C562    1.371   1_455 S
C425   C429    1.386   .     A
C425   C436    1.397   .     A
C425   H451    1.084   .     S
C426   C430    1.388   .     A
C426   H462    1.084   .     S
C426   C437    1.398   .     A
C427   H468    1.084   .     S
C427   C431    1.387   .     A
C427   C437    1.397   .     A
C428   C433    1.388   .     A
C428   C436    1.398   .     A
C428   H469    1.084   .     S
C429   C434    1.409   .     A
C429   C440    1.508   .     S
C430   C435    1.409   .     A
C430   C441    1.511   .     S
C431   C442    1.508   .     S
C431   C435    1.409   .     A
C432   O482    1.293   .     A
C432   O481    1.293   .     A
C432   C438    1.418   .     S
C433   C434    1.410   .     A
C433   C444    1.511   .     S
C434   C443    1.434   .     S
C435   C445    1.433   .     S
C436   C1067   1.451   1_554 S
C437   C1066   1.451   .     S
C439   C450    1.397   .     A
C440   H457    1.111   .     S
C440   H456    1.111   .     S
C440   H455    1.105   .     S
C441   H459    1.111   .     S
C441   H460    1.111   .     S
C441   H458    1.110   .     S
C442   H461    1.106   .     S
C442   H463    1.111   .     S
C442   H464    1.111   .     S
C443   O484    1.297   .     A
C443   O487    1.293   .     A
C444   H466    1.111   .     S
C444   H467    1.111   .     S
C444   H465    1.110   .     S
C445   O486    1.296   .     A
C445   O485    1.293   .     A
C446   O488    1.376   .     S
C446   N476    1.377   .     A
C447   N475    1.378   .     A
C447   O478    1.373   .     S
C447   C28     1.415   1_565 S
C448   O479    1.375   .     S
C448   N476    1.377   .     A
C449   N475    1.378   .     A
C449   O480    1.373   .     S
C449   C26     1.415   1_565 S
C450   H470    1.083   .     S
C450   C563    1.371   1_455 S
H452   O478    0.978   .     S
H453   O479    0.980   .     S
H454   O480    0.978   .     S
H474   O488    0.980   .     S
N475   Zn489   2.036   .     S
N476   Zn490   2.036   .     S
O477   Zn489   1.996   .     S
O481   Zn490   1.996   .     S
O482   Zn489   1.996   .     S
O483   Zn490   1.996   .     S
O484   Zn489   1.999   .     S
O485   Zn490   1.999   .     S
O486   Zn489   1.998   .     S
O487   Zn490   1.998   .     S
C491   O547    1.293   .     A
C491   O553    1.293   .     A
C491   C509    1.418   .     S
C492   C508    1.396   .     A
C492   H541    1.083   .     S
C492   C564    1.371   .     S
C493   H542    1.084   .     S
C493   C508    1.397   .     A
C493   C590    1.371   .     S
C494   H543    1.084   .     S
C494   C509    1.397   .     A
C495   C499    1.386   .     A
C495   C506    1.397   .     A
C495   H521    1.084   .     S
C496   C500    1.388   .     A
C496   H532    1.084   .     S
C496   C507    1.398   .     A
C497   H538    1.084   .     S
C497   C501    1.387   .     A
C497   C507    1.397   .     A
C498   C503    1.388   .     A
C498   C506    1.398   .     A
C498   H539    1.084   .     S
C499   C504    1.409   .     A
C499   C510    1.508   .     S
C500   C505    1.409   .     A
C500   C511    1.511   .     S
C501   C512    1.508   .     S
C501   C505    1.409   .     A
C502   O552    1.293   .     A
C502   O551    1.293   .     A
C502   C508    1.418   .     S
C503   C504    1.410   .     A
C503   C514    1.511   .     S
C504   C513    1.434   .     S
C505   C515    1.433   .     S
C506   C1137   1.451   1_554 S
C507   C1136   1.451   .     S
C509   C520    1.397   .     A
C510   H527    1.111   .     S
C510   H526    1.111   .     S
C510   H525    1.105   .     S
C511   H529    1.111   .     S
C511   H530    1.111   .     S
C511   H528    1.110   .     S
C512   H531    1.106   .     S
C512   H533    1.111   .     S
C512   H534    1.111   .     S
C513   O554    1.297   .     A
C513   O557    1.293   .     A
C514   H536    1.111   .     S
C514   H537    1.111   .     S
C514   H535    1.110   .     S
C515   O556    1.296   .     A
C515   O555    1.293   .     A
C516   O558    1.376   .     S
C516   N546    1.377   .     A
C517   N545    1.378   .     A
C517   O548    1.373   .     S
C517   C98     1.415   1_565 S
C518   O549    1.375   .     S
C518   N546    1.377   .     A
C519   N545    1.378   .     A
C519   O550    1.373   .     S
C519   C96     1.415   1_565 S
C520   H540    1.083   .     S
H522   O548    0.978   .     S
H523   O549    0.980   .     S
H524   O550    0.978   .     S
H544   O558    0.980   .     S
N545   Zn559   2.036   .     S
N546   Zn560   2.036   .     S
O547   Zn559   1.996   .     S
O551   Zn560   1.996   .     S
O552   Zn559   1.996   .     S
O553   Zn560   1.996   .     S
O554   Zn559   1.999   .     S
O555   Zn560   1.999   .     S
O556   Zn559   1.998   .     S
O557   Zn560   1.998   .     S
C561   O617    1.293   .     A
C561   O623    1.293   .     A
C561   C579    1.418   .     S
C562   C578    1.396   .     A
C562   H611    1.083   .     S
C562   C424    1.371   1_655 S
C563   H612    1.084   .     S
C563   C578    1.397   .     A
C563   C450    1.371   1_655 S
C564   H613    1.084   .     S
C564   C579    1.397   .     A
C565   C569    1.386   .     A
C565   C576    1.397   .     A
C565   H591    1.084   .     S
C566   C570    1.388   .     A
C566   H602    1.084   .     S
C566   C577    1.398   .     A
C567   H608    1.084   .     S
C567   C571    1.387   .     A
C567   C577    1.397   .     A
C568   C573    1.388   .     A
C568   C576    1.398   .     A
C568   H609    1.084   .     S
C569   C574    1.409   .     A
C569   C580    1.508   .     S
C570   C575    1.409   .     A
C570   C581    1.511   .     S
C571   C582    1.508   .     S
C571   C575    1.409   .     A
C572   O622    1.293   .     A
C572   O621    1.293   .     A
C572   C578    1.418   .     S
C573   C574    1.410   .     A
C573   C584    1.511   .     S
C574   C583    1.434   .     S
C575   C585    1.433   .     S
C576   C1207   1.451   1_554 S
C577   C1206   1.451   .     S
C579   C590    1.397   .     A
C580   H597    1.111   .     S
C580   H596    1.111   .     S
C580   H595    1.105   .     S
C581   H599    1.111   .     S
C581   H600    1.111   .     S
C581   H598    1.110   .     S
C582   H601    1.106   .     S
C582   H603    1.111   .     S
C582   H604    1.111   .     S
C583   O624    1.297   .     A
C583   O627    1.293   .     A
C584   H606    1.111   .     S
C584   H607    1.111   .     S
C584   H605    1.110   .     S
C585   O626    1.296   .     A
C585   O625    1.293   .     A
C586   O628    1.376   .     S
C586   N616    1.377   .     A
C587   N615    1.378   .     A
C587   O618    1.373   .     S
C587   C168    1.415   1_565 S
C588   O619    1.375   .     S
C588   N616    1.377   .     A
C589   N615    1.378   .     A
C589   O620    1.373   .     S
C589   C166    1.415   1_565 S
C590   H610    1.083   .     S
H592   O618    0.978   .     S
H593   O619    0.980   .     S
H594   O620    0.978   .     S
H614   O628    0.980   .     S
N615   Zn629   2.036   .     S
N616   Zn630   2.036   .     S
O617   Zn629   1.996   .     S
O621   Zn630   1.996   .     S
O622   Zn629   1.996   .     S
O623   Zn630   1.996   .     S
O624   Zn629   1.999   .     S
O625   Zn630   1.999   .     S
O626   Zn629   1.998   .     S
O627   Zn630   1.998   .     S
C631   O687    1.293   .     A
C631   O693    1.293   .     A
C631   C649    1.418   .     S
C632   C648    1.396   .     A
C632   H681    1.083   .     S
C632   C704    1.371   .     S
C633   H682    1.084   .     S
C633   C648    1.397   .     A
C633   C730    1.371   .     S
C634   H683    1.084   .     S
C634   C649    1.397   .     A
C634   C772    1.371   1_455 S
C635   C639    1.386   .     A
C635   C646    1.397   .     A
C635   H661    1.084   .     S
C636   C640    1.388   .     A
C636   H672    1.084   .     S
C636   C647    1.398   .     A
C637   H678    1.084   .     S
C637   C641    1.387   .     A
C637   C647    1.397   .     A
C638   C643    1.388   .     A
C638   C646    1.398   .     A
C638   H679    1.084   .     S
C639   C644    1.409   .     A
C639   C650    1.508   .     S
C640   C645    1.409   .     A
C640   C651    1.511   .     S
C641   C652    1.508   .     S
C641   C645    1.409   .     A
C642   O692    1.293   .     A
C642   O691    1.293   .     A
C642   C648    1.418   .     S
C643   C644    1.410   .     A
C643   C654    1.511   .     S
C644   C653    1.434   .     S
C645   C655    1.433   .     S
C647   C16     1.451   1_556 S
C649   C660    1.397   .     A
C650   H667    1.111   .     S
C650   H666    1.111   .     S
C650   H665    1.105   .     S
C651   H669    1.111   .     S
C651   H670    1.111   .     S
C651   H668    1.110   .     S
C652   H671    1.106   .     S
C652   H673    1.111   .     S
C652   H674    1.111   .     S
C653   O694    1.297   .     A
C653   O697    1.293   .     A
C654   H676    1.111   .     S
C654   H677    1.111   .     S
C654   H675    1.110   .     S
C655   O696    1.296   .     A
C655   O695    1.293   .     A
C656   O698    1.376   .     S
C656   N686    1.377   .     A
C656   C1079   1.415   1_545 S
C657   N685    1.378   .     A
C657   O688    1.373   .     S
C657   C868    1.415   .     S
C658   O689    1.375   .     S
C658   N686    1.377   .     A
C658   C1077   1.415   1_545 S
C659   N685    1.378   .     A
C659   O690    1.373   .     S
C659   C866    1.415   .     S
C660   H680    1.083   .     S
C660   C773    1.371   1_455 S
H662   O688    0.978   .     S
H663   O689    0.980   .     S
H664   O690    0.978   .     S
H684   O698    0.980   .     S
N685   Zn699   2.036   .     S
N686   Zn700   2.036   .     S
O687   Zn699   1.996   .     S
O691   Zn700   1.996   .     S
O692   Zn699   1.996   .     S
O693   Zn700   1.996   .     S
O694   Zn699   1.999   .     S
O695   Zn700   1.999   .     S
O696   Zn699   1.998   .     S
O697   Zn700   1.998   .     S
C701   O757    1.293   .     A
C701   O763    1.293   .     A
C701   C719    1.418   .     S
C702   C718    1.396   .     A
C702   H751    1.083   .     S
C702   C774    1.371   .     S
C703   H752    1.084   .     S
C703   C718    1.397   .     A
C703   C800    1.371   .     S
C704   H753    1.084   .     S
C704   C719    1.397   .     A
C705   C709    1.386   .     A
C705   C716    1.397   .     A
C705   H731    1.084   .     S
C706   C710    1.388   .     A
C706   H742    1.084   .     S
C706   C717    1.398   .     A
C707   H748    1.084   .     S
C707   C711    1.387   .     A
C707   C717    1.397   .     A
C708   C713    1.388   .     A
C708   C716    1.398   .     A
C708   H749    1.084   .     S
C709   C714    1.409   .     A
C709   C720    1.508   .     S
C710   C715    1.409   .     A
C710   C721    1.511   .     S
C711   C722    1.508   .     S
C711   C715    1.409   .     A
C712   O762    1.293   .     A
C712   O761    1.293   .     A
C712   C718    1.418   .     S
C713   C714    1.410   .     A
C713   C724    1.511   .     S
C714   C723    1.434   .     S
C715   C725    1.433   .     S
C717   C86     1.451   1_556 S
C719   C730    1.397   .     A
C720   H737    1.111   .     S
C720   H736    1.111   .     S
C720   H735    1.105   .     S
C721   H739    1.111   .     S
C721   H740    1.111   .     S
C721   H738    1.110   .     S
C722   H741    1.106   .     S
C722   H743    1.111   .     S
C722   H744    1.111   .     S
C723   O764    1.297   .     A
C723   O767    1.293   .     A
C724   H746    1.111   .     S
C724   H747    1.111   .     S
C724   H745    1.110   .     S
C725   O766    1.296   .     A
C725   O765    1.293   .     A
C726   O768    1.376   .     S
C726   N756    1.377   .     A
C726   C1149   1.415   1_545 S
C727   N755    1.378   .     A
C727   O758    1.373   .     S
C727   C938    1.415   .     S
C728   O759    1.375   .     S
C728   N756    1.377   .     A
C728   C1147   1.415   1_545 S
C729   N755    1.378   .     A
C729   O760    1.373   .     S
C729   C936    1.415   .     S
C730   H750    1.083   .     S
H732   O758    0.978   .     S
H733   O759    0.980   .     S
H734   O760    0.978   .     S
H754   O768    0.980   .     S
N755   Zn769   2.036   .     S
N756   Zn770   2.036   .     S
O757   Zn769   1.996   .     S
O761   Zn770   1.996   .     S
O762   Zn769   1.996   .     S
O763   Zn770   1.996   .     S
O764   Zn769   1.999   .     S
O765   Zn770   1.999   .     S
O766   Zn769   1.998   .     S
O767   Zn770   1.998   .     S
C771   O827    1.293   .     A
C771   O833    1.293   .     A
C771   C789    1.418   .     S
C772   C788    1.396   .     A
C772   H821    1.083   .     S
C772   C634    1.371   1_655 S
C773   H822    1.084   .     S
C773   C788    1.397   .     A
C773   C660    1.371   1_655 S
C774   H823    1.084   .     S
C774   C789    1.397   .     A
C775   C779    1.386   .     A
C775   C786    1.397   .     A
C775   H801    1.084   .     S
C776   C780    1.388   .     A
C776   H812    1.084   .     S
C776   C787    1.398   .     A
C777   H818    1.084   .     S
C777   C781    1.387   .     A
C777   C787    1.397   .     A
C778   C783    1.388   .     A
C778   C786    1.398   .     A
C778   H819    1.084   .     S
C779   C784    1.409   .     A
C779   C790    1.508   .     S
C780   C785    1.409   .     A
C780   C791    1.511   .     S
C781   C792    1.508   .     S
C781   C785    1.409   .     A
C782   O832    1.293   .     A
C782   O831    1.293   .     A
C782   C788    1.418   .     S
C783   C784    1.410   .     A
C783   C794    1.511   .     S
C784   C793    1.434   .     S
C785   C795    1.433   .     S
C787   C156    1.451   1_556 S
C789   C800    1.397   .     A
C790   H807    1.111   .     S
C790   H806    1.111   .     S
C790   H805    1.105   .     S
C791   H809    1.111   .     S
C791   H810    1.111   .     S
C791   H808    1.110   .     S
C792   H811    1.106   .     S
C792   H813    1.111   .     S
C792   H814    1.111   .     S
C793   O834    1.297   .     A
C793   O837    1.293   .     A
C794   H816    1.111   .     S
C794   H817    1.111   .     S
C794   H815    1.110   .     S
C795   O836    1.296   .     A
C795   O835    1.293   .     A
C796   O838    1.376   .     S
C796   N826    1.377   .     A
C796   C1219   1.415   1_545 S
C797   N825    1.378   .     A
C797   O828    1.373   .     S
C797   C1008   1.415   .     S
C798   O829    1.375   .     S
C798   N826    1.377   .     A
C798   C1217   1.415   1_545 S
C799   N825    1.378   .     A
C799   O830    1.373   .     S
C799   C1006   1.415   .     S
C800   H820    1.083   .     S
H802   O828    0.978   .     S
H803   O829    0.980   .     S
H804   O830    0.978   .     S
H824   O838    0.980   .     S
N825   Zn839   2.036   .     S
N826   Zn840   2.036   .     S
O827   Zn839   1.996   .     S
O831   Zn840   1.996   .     S
O832   Zn839   1.996   .     S
O833   Zn840   1.996   .     S
O834   Zn839   1.999   .     S
O835   Zn840   1.999   .     S
O836   Zn839   1.998   .     S
O837   Zn840   1.998   .     S
C841   O897    1.293   .     A
C841   O903    1.293   .     A
C841   C859    1.418   .     S
C842   C858    1.396   .     A
C842   H891    1.083   .     S
C842   C914    1.371   .     S
C843   H892    1.084   .     S
C843   C858    1.397   .     A
C843   C940    1.371   .     S
C844   H893    1.084   .     S
C844   C859    1.397   .     A
C844   C982    1.371   1_455 S
C845   C849    1.386   .     A
C845   C856    1.397   .     A
C845   H871    1.084   .     S
C846   C850    1.388   .     A
C846   H882    1.084   .     S
C846   C857    1.398   .     A
C847   H888    1.084   .     S
C847   C851    1.387   .     A
C847   C857    1.397   .     A
C848   C853    1.388   .     A
C848   C856    1.398   .     A
C848   H889    1.084   .     S
C849   C854    1.409   .     A
C849   C860    1.508   .     S
C850   C855    1.409   .     A
C850   C861    1.511   .     S
C851   C862    1.508   .     S
C851   C855    1.409   .     A
C852   O902    1.293   .     A
C852   O901    1.293   .     A
C852   C858    1.418   .     S
C853   C854    1.410   .     A
C853   C864    1.511   .     S
C854   C863    1.434   .     S
C855   C865    1.433   .     S
C857   C226    1.451   1_556 S
C859   C870    1.397   .     A
C860   H877    1.111   .     S
C860   H876    1.111   .     S
C860   H875    1.105   .     S
C861   H879    1.111   .     S
C861   H880    1.111   .     S
C861   H878    1.110   .     S
C862   H881    1.106   .     S
C862   H883    1.111   .     S
C862   H884    1.111   .     S
C863   O904    1.297   .     A
C863   O907    1.293   .     A
C864   H886    1.111   .     S
C864   H887    1.111   .     S
C864   H885    1.110   .     S
C865   O906    1.296   .     A
C865   O905    1.293   .     A
C866   O908    1.376   .     S
C866   N896    1.377   .     A
C867   N895    1.378   .     A
C867   O898    1.373   .     S
C867   C1078   1.415   .     S
C868   O899    1.375   .     S
C868   N896    1.377   .     A
C869   N895    1.378   .     A
C869   O900    1.373   .     S
C869   C1076   1.415   .     S
C870   H890    1.083   .     S
C870   C983    1.371   1_455 S
H872   O898    0.978   .     S
H873   O899    0.980   .     S
H874   O900    0.978   .     S
H894   O908    0.980   .     S
N895   Zn909   2.036   .     S
N896   Zn910   2.036   .     S
O897   Zn909   1.996   .     S
O901   Zn910   1.996   .     S
O902   Zn909   1.996   .     S
O903   Zn910   1.996   .     S
O904   Zn909   1.999   .     S
O905   Zn910   1.999   .     S
O906   Zn909   1.998   .     S
O907   Zn910   1.998   .     S
C911   O967    1.293   .     A
C911   O973    1.293   .     A
C911   C929    1.418   .     S
C912   C928    1.396   .     A
C912   H961    1.083   .     S
C912   C984    1.371   .     S
C913   H962    1.084   .     S
C913   C928    1.397   .     A
C913   C1010   1.371   .     S
C914   H963    1.084   .     S
C914   C929    1.397   .     A
C915   C919    1.386   .     A
C915   C926    1.397   .     A
C915   H941    1.084   .     S
C916   C920    1.388   .     A
C916   H952    1.084   .     S
C916   C927    1.398   .     A
C917   H958    1.084   .     S
C917   C921    1.387   .     A
C917   C927    1.397   .     A
C918   C923    1.388   .     A
C918   C926    1.398   .     A
C918   H959    1.084   .     S
C919   C924    1.409   .     A
C919   C930    1.508   .     S
C920   C925    1.409   .     A
C920   C931    1.511   .     S
C921   C932    1.508   .     S
C921   C925    1.409   .     A
C922   O972    1.293   .     A
C922   O971    1.293   .     A
C922   C928    1.418   .     S
C923   C924    1.410   .     A
C923   C934    1.511   .     S
C924   C933    1.434   .     S
C925   C935    1.433   .     S
C927   C296    1.451   1_556 S
C929   C940    1.397   .     A
C930   H947    1.111   .     S
C930   H946    1.111   .     S
C930   H945    1.105   .     S
C931   H949    1.111   .     S
C931   H950    1.111   .     S
C931   H948    1.110   .     S
C932   H951    1.106   .     S
C932   H953    1.111   .     S
C932   H954    1.111   .     S
C933   O974    1.297   .     A
C933   O977    1.293   .     A
C934   H956    1.111   .     S
C934   H957    1.111   .     S
C934   H955    1.110   .     S
C935   O976    1.296   .     A
C935   O975    1.293   .     A
C936   O978    1.376   .     S
C936   N966    1.377   .     A
C937   N965    1.378   .     A
C937   O968    1.373   .     S
C937   C1148   1.415   .     S
C938   O969    1.375   .     S
C938   N966    1.377   .     A
C939   N965    1.378   .     A
C939   O970    1.373   .     S
C939   C1146   1.415   .     S
C940   H960    1.083   .     S
H942   O968    0.978   .     S
H943   O969    0.980   .     S
H944   O970    0.978   .     S
H964   O978    0.980   .     S
N965   Zn979   2.036   .     S
N966   Zn980   2.036   .     S
O967   Zn979   1.996   .     S
O971   Zn980   1.996   .     S
O972   Zn979   1.996   .     S
O973   Zn980   1.996   .     S
O974   Zn979   1.999   .     S
O975   Zn980   1.999   .     S
O976   Zn979   1.998   .     S
O977   Zn980   1.998   .     S
C981   O1037   1.293   .     A
C981   O1043   1.293   .     A
C981   C999    1.418   .     S
C982   C998    1.396   .     A
C982   H1031   1.083   .     S
C982   C844    1.371   1_655 S
C983   H1032   1.084   .     S
C983   C998    1.397   .     A
C983   C870    1.371   1_655 S
C984   H1033   1.084   .     S
C984   C999    1.397   .     A
C985   C989    1.386   .     A
C985   C996    1.397   .     A
C985   H1011   1.084   .     S
C986   C990    1.388   .     A
C986   H1022   1.084   .     S
C986   C997    1.398   .     A
C987   H1028   1.084   .     S
C987   C991    1.387   .     A
C987   C997    1.397   .     A
C988   C993    1.388   .     A
C988   C996    1.398   .     A
C988   H1029   1.084   .     S
C989   C994    1.409   .     A
C989   C1000   1.508   .     S
C990   C995    1.409   .     A
C990   C1001   1.511   .     S
C991   C1002   1.508   .     S
C991   C995    1.409   .     A
C992   O1042   1.293   .     A
C992   O1041   1.293   .     A
C992   C998    1.418   .     S
C993   C994    1.410   .     A
C993   C1004   1.511   .     S
C994   C1003   1.434   .     S
C995   C1005   1.433   .     S
C997   C366    1.451   1_556 S
C999   C1010   1.397   .     A
C1000  H1017   1.111   .     S
C1000  H1016   1.111   .     S
C1000  H1015   1.105   .     S
C1001  H1019   1.111   .     S
C1001  H1020   1.111   .     S
C1001  H1018   1.110   .     S
C1002  H1021   1.106   .     S
C1002  H1023   1.111   .     S
C1002  H1024   1.111   .     S
C1003  O1044   1.297   .     A
C1003  O1047   1.293   .     A
C1004  H1026   1.111   .     S
C1004  H1027   1.111   .     S
C1004  H1025   1.110   .     S
C1005  O1046   1.296   .     A
C1005  O1045   1.293   .     A
C1006  O1048   1.376   .     S
C1006  N1036   1.377   .     A
C1007  N1035   1.378   .     A
C1007  O1038   1.373   .     S
C1007  C1218   1.415   .     S
C1008  O1039   1.375   .     S
C1008  N1036   1.377   .     A
C1009  N1035   1.378   .     A
C1009  O1040   1.373   .     S
C1009  C1216   1.415   .     S
C1010  H1030   1.083   .     S
H1012  O1038   0.978   .     S
H1013  O1039   0.980   .     S
H1014  O1040   0.978   .     S
H1034  O1048   0.980   .     S
N1035  Zn1049  2.036   .     S
N1036  Zn1050  2.036   .     S
O1037  Zn1049  1.996   .     S
O1041  Zn1050  1.996   .     S
O1042  Zn1049  1.996   .     S
O1043  Zn1050  1.996   .     S
O1044  Zn1049  1.999   .     S
O1045  Zn1050  1.999   .     S
O1046  Zn1049  1.998   .     S
O1047  Zn1050  1.998   .     S
C1051  O1107   1.293   .     A
C1051  O1113   1.293   .     A
C1051  C1069   1.418   .     S
C1052  C1068   1.396   .     A
C1052  H1101   1.083   .     S
C1052  C1124   1.371   .     S
C1053  H1102   1.084   .     S
C1053  C1068   1.397   .     A
C1053  C1150   1.371   .     S
C1054  H1103   1.084   .     S
C1054  C1069   1.397   .     A
C1054  C1192   1.371   1_455 S
C1055  C1059   1.386   .     A
C1055  C1066   1.397   .     A
C1055  H1081   1.084   .     S
C1056  C1060   1.388   .     A
C1056  H1092   1.084   .     S
C1056  C1067   1.398   .     A
C1057  H1098   1.084   .     S
C1057  C1061   1.387   .     A
C1057  C1067   1.397   .     A
C1058  C1063   1.388   .     A
C1058  C1066   1.398   .     A
C1058  H1099   1.084   .     S
C1059  C1064   1.409   .     A
C1059  C1070   1.508   .     S
C1060  C1065   1.409   .     A
C1060  C1071   1.511   .     S
C1061  C1072   1.508   .     S
C1061  C1065   1.409   .     A
C1062  O1112   1.293   .     A
C1062  O1111   1.293   .     A
C1062  C1068   1.418   .     S
C1063  C1064   1.410   .     A
C1063  C1074   1.511   .     S
C1064  C1073   1.434   .     S
C1065  C1075   1.433   .     S
C1067  C436    1.451   1_556 S
C1069  C1080   1.397   .     A
C1070  H1087   1.111   .     S
C1070  H1086   1.111   .     S
C1070  H1085   1.105   .     S
C1071  H1089   1.111   .     S
C1071  H1090   1.111   .     S
C1071  H1088   1.110   .     S
C1072  H1091   1.106   .     S
C1072  H1093   1.111   .     S
C1072  H1094   1.111   .     S
C1073  O1114   1.297   .     A
C1073  O1117   1.293   .     A
C1074  H1096   1.111   .     S
C1074  H1097   1.111   .     S
C1074  H1095   1.110   .     S
C1075  O1116   1.296   .     A
C1075  O1115   1.293   .     A
C1076  O1118   1.376   .     S
C1076  N1106   1.377   .     A
C1077  N1105   1.378   .     A
C1077  O1108   1.373   .     S
C1077  C658    1.415   1_565 S
C1078  O1109   1.375   .     S
C1078  N1106   1.377   .     A
C1079  N1105   1.378   .     A
C1079  O1110   1.373   .     S
C1079  C656    1.415   1_565 S
C1080  H1100   1.083   .     S
C1080  C1193   1.371   1_455 S
H1082  O1108   0.978   .     S
H1083  O1109   0.980   .     S
H1084  O1110   0.978   .     S
H1104  O1118   0.980   .     S
N1105  Zn1119  2.036   .     S
N1106  Zn1120  2.036   .     S
O1107  Zn1119  1.996   .     S
O1111  Zn1120  1.996   .     S
O1112  Zn1119  1.996   .     S
O1113  Zn1120  1.996   .     S
O1114  Zn1119  1.999   .     S
O1115  Zn1120  1.999   .     S
O1116  Zn1119  1.998   .     S
O1117  Zn1120  1.998   .     S
C1121  O1177   1.293   .     A
C1121  O1183   1.293   .     A
C1121  C1139   1.418   .     S
C1122  C1138   1.396   .     A
C1122  H1171   1.083   .     S
C1122  C1194   1.371   .     S
C1123  H1172   1.084   .     S
C1123  C1138   1.397   .     A
C1123  C1220   1.371   .     S
C1124  H1173   1.084   .     S
C1124  C1139   1.397   .     A
C1125  C1129   1.386   .     A
C1125  C1136   1.397   .     A
C1125  H1151   1.084   .     S
C1126  C1130   1.388   .     A
C1126  H1162   1.084   .     S
C1126  C1137   1.398   .     A
C1127  H1168   1.084   .     S
C1127  C1131   1.387   .     A
C1127  C1137   1.397   .     A
C1128  C1133   1.388   .     A
C1128  C1136   1.398   .     A
C1128  H1169   1.084   .     S
C1129  C1134   1.409   .     A
C1129  C1140   1.508   .     S
C1130  C1135   1.409   .     A
C1130  C1141   1.511   .     S
C1131  C1142   1.508   .     S
C1131  C1135   1.409   .     A
C1132  O1182   1.293   .     A
C1132  O1181   1.293   .     A
C1132  C1138   1.418   .     S
C1133  C1134   1.410   .     A
C1133  C1144   1.511   .     S
C1134  C1143   1.434   .     S
C1135  C1145   1.433   .     S
C1137  C506    1.451   1_556 S
C1139  C1150   1.397   .     A
C1140  H1157   1.111   .     S
C1140  H1156   1.111   .     S
C1140  H1155   1.105   .     S
C1141  H1159   1.111   .     S
C1141  H1160   1.111   .     S
C1141  H1158   1.110   .     S
C1142  H1161   1.106   .     S
C1142  H1163   1.111   .     S
C1142  H1164   1.111   .     S
C1143  O1184   1.297   .     A
C1143  O1187   1.293   .     A
C1144  H1166   1.111   .     S
C1144  H1167   1.111   .     S
C1144  H1165   1.110   .     S
C1145  O1186   1.296   .     A
C1145  O1185   1.293   .     A
C1146  O1188   1.376   .     S
C1146  N1176   1.377   .     A
C1147  N1175   1.378   .     A
C1147  O1178   1.373   .     S
C1147  C728    1.415   1_565 S
C1148  O1179   1.375   .     S
C1148  N1176   1.377   .     A
C1149  N1175   1.378   .     A
C1149  O1180   1.373   .     S
C1149  C726    1.415   1_565 S
C1150  H1170   1.083   .     S
H1152  O1178   0.978   .     S
H1153  O1179   0.980   .     S
H1154  O1180   0.978   .     S
H1174  O1188   0.980   .     S
N1175  Zn1189  2.036   .     S
N1176  Zn1190  2.036   .     S
O1177  Zn1189  1.996   .     S
O1181  Zn1190  1.996   .     S
O1182  Zn1189  1.996   .     S
O1183  Zn1190  1.996   .     S
O1184  Zn1189  1.999   .     S
O1185  Zn1190  1.999   .     S
O1186  Zn1189  1.998   .     S
O1187  Zn1190  1.998   .     S
C1191  O1247   1.293   .     A
C1191  O1253   1.293   .     A
C1191  C1209   1.418   .     S
C1192  C1208   1.396   .     A
C1192  H1241   1.083   .     S
C1192  C1054   1.371   1_655 S
C1193  H1242   1.084   .     S
C1193  C1208   1.397   .     A
C1193  C1080   1.371   1_655 S
C1194  H1243   1.084   .     S
C1194  C1209   1.397   .     A
C1195  C1199   1.386   .     A
C1195  C1206   1.397   .     A
C1195  H1221   1.084   .     S
C1196  C1200   1.388   .     A
C1196  H1232   1.084   .     S
C1196  C1207   1.398   .     A
C1197  H1238   1.084   .     S
C1197  C1201   1.387   .     A
C1197  C1207   1.397   .     A
C1198  C1203   1.388   .     A
C1198  C1206   1.398   .     A
C1198  H1239   1.084   .     S
C1199  C1204   1.409   .     A
C1199  C1210   1.508   .     S
C1200  C1205   1.409   .     A
C1200  C1211   1.511   .     S
C1201  C1212   1.508   .     S
C1201  C1205   1.409   .     A
C1202  O1252   1.293   .     A
C1202  O1251   1.293   .     A
C1202  C1208   1.418   .     S
C1203  C1204   1.410   .     A
C1203  C1214   1.511   .     S
C1204  C1213   1.434   .     S
C1205  C1215   1.433   .     S
C1207  C576    1.451   1_556 S
C1209  C1220   1.397   .     A
C1210  H1227   1.111   .     S
C1210  H1226   1.111   .     S
C1210  H1225   1.105   .     S
C1211  H1229   1.111   .     S
C1211  H1230   1.111   .     S
C1211  H1228   1.110   .     S
C1212  H1231   1.106   .     S
C1212  H1233   1.111   .     S
C1212  H1234   1.111   .     S
C1213  O1254   1.297   .     A
C1213  O1257   1.293   .     A
C1214  H1236   1.111   .     S
C1214  H1237   1.111   .     S
C1214  H1235   1.110   .     S
C1215  O1256   1.296   .     A
C1215  O1255   1.293   .     A
C1216  O1258   1.376   .     S
C1216  N1246   1.377   .     A
C1217  N1245   1.378   .     A
C1217  O1248   1.373   .     S
C1217  C798    1.415   1_565 S
C1218  O1249   1.375   .     S
C1218  N1246   1.377   .     A
C1219  N1245   1.378   .     A
C1219  O1250   1.373   .     S
C1219  C796    1.415   1_565 S
C1220  H1240   1.083   .     S
H1222  O1248   0.978   .     S
H1223  O1249   0.980   .     S
H1224  O1250   0.978   .     S
H1244  O1258   0.980   .     S
N1245  Zn1259  2.036   .     S
N1246  Zn1260  2.036   .     S
O1247  Zn1259  1.996   .     S
O1251  Zn1260  1.996   .     S
O1252  Zn1259  1.996   .     S
O1253  Zn1260  1.996   .     S
O1254  Zn1259  1.999   .     S
O1255  Zn1260  1.999   .     S
O1256  Zn1259  1.998   .     S
O1257  Zn1260  1.998   .     S
