data_str_m2_o2_o10_pcu_sym.234
_audit_creation_date              2020-01-03
_audit_creation_method            'Materials Studio'
_symmetry_space_group_name_H-M    'P1'
_symmetry_Int_Tables_number       1
_symmetry_cell_setting            triclinic
loop_
_symmetry_equiv_pos_as_xyz
  x,y,z
_cell_length_a                    26.3704
_cell_length_b                    30.2698
_cell_length_c                    27.7091
_cell_angle_alpha                 89.5418
_cell_angle_beta                  97.7779
_cell_angle_gamma                 90.0977
loop_
_atom_site_label
_atom_site_type_symbol
_atom_site_fract_x
_atom_site_fract_y
_atom_site_fract_z
_atom_site_U_iso_or_equiv
_atom_site_adp_type
_atom_site_occupancy
O1     O     0.16667   0.18572   0.29072   0.00000  Uiso   1.00
O2     O     0.16666   0.31427   0.20929   0.00000  Uiso   1.00
O3     O     0.16667   0.18573   0.20928   0.00000  Uiso   1.00
O4     O     0.16666   0.31427   0.29072   0.00000  Uiso   1.00
C5     C     0.16597   0.16495   0.25011   0.00000  Uiso   1.00
C6     C     0.16601   0.33513   0.24968   0.00000  Uiso   1.00
O7     O     0.09161   0.24999   0.28132   0.00000  Uiso   1.00
O8     O     0.24172   0.25000   0.21868   0.00000  Uiso   1.00
O9     O     0.09161   0.25000   0.19989   0.00000  Uiso   1.00
O10    O     0.24172   0.25000   0.30012   0.00000  Uiso   1.00
C11    C     0.06811   0.24923   0.23775   0.00000  Uiso   1.00
C12    C     0.26523   0.25053   0.26227   0.00000  Uiso   1.00
Cu13   Cu    0.16667   0.24999   0.29822   0.00000  Uiso   1.00
Cu14   Cu    0.16667   0.25000   0.20179   0.00000  Uiso   1.00
C15    C     0.01321   0.24543   0.23125   0.00000  Uiso   1.00
C16    C     0.32015   0.25396   0.26890   0.00000  Uiso   1.00
C17    C     0.14433   0.04704   0.28722   0.00000  Uiso   1.00
C18    C     0.14718   0.45353   0.20705   0.00000  Uiso   1.00
H19    H     0.12843   0.02905   0.31564   0.00000  Uiso   1.00
H20    H     0.13166   0.47203   0.17482   0.00000  Uiso   1.00
C21    C     0.14317   0.09312   0.28700   0.00000  Uiso   1.00
C22    C     0.14823   0.40730   0.20573   0.00000  Uiso   1.00
C23    C     0.16445   0.11669   0.25036   0.00000  Uiso   1.00
C24    C     0.16515   0.38355   0.24901   0.00000  Uiso   1.00
C25    C     0.18420   0.09372   0.21332   0.00000  Uiso   1.00
C26    C     0.18191   0.40636   0.29216   0.00000  Uiso   1.00
H27    H     0.20044   0.11124   0.18479   0.00000  Uiso   1.00
H28    H     0.19562   0.38870   0.32552   0.00000  Uiso   1.00
C29    C     0.18414   0.04786   0.21326   0.00000  Uiso   1.00
C30    C     0.18186   0.45223   0.29262   0.00000  Uiso   1.00
C31    C     0.16450   0.02433   0.25032   0.00000  Uiso   1.00
C32    C     0.16462   0.47597   0.25006   0.00000  Uiso   1.00
C33    C     0.19362   0.28230   0.05725   0.00000  Uiso   1.00
C34    C     0.12607   0.23131   0.44100   0.00000  Uiso   1.00
C35    C     0.19353   0.28138   0.10797   0.00000  Uiso   1.00
C36    C     0.12707   0.23123   0.39040   0.00000  Uiso   1.00
H37    H     0.21485   0.30608   0.13028   0.00000  Uiso   1.00
H38    H     0.09582   0.21617   0.36695   0.00000  Uiso   1.00
N39    N     0.16667   0.25001   0.12935   0.00000  Uiso   1.00
N40    N     0.16667   0.24999   0.37066   0.00000  Uiso   1.00
C41    C     0.14008   0.21848   0.10159   0.00000  Uiso   1.00
C42    C     0.20628   0.26878   0.40022   0.00000  Uiso   1.00
H43    H     0.11897   0.19357   0.11879   0.00000  Uiso   1.00
H44    H     0.23757   0.28375   0.38451   0.00000  Uiso   1.00
C45    C     0.13997   0.21765   0.05085   0.00000  Uiso   1.00
C46    C     0.20729   0.26878   0.45109   0.00000  Uiso   1.00
H47    H     0.11948   0.19131   0.03051   0.00000  Uiso   1.00
H48    H     0.24021   0.28294   0.47311   0.00000  Uiso   1.00
C49    C     0.16674   0.25002   0.02740   0.00000  Uiso   1.00
C50    C     0.16669   0.25006   0.47269   0.00000  Uiso   1.00
O51    O     0.32224   0.23477   0.18520   0.00000  Uiso   1.00
C52    C     0.32455   0.18856   0.17953   0.00000  Uiso   1.00
H53    H     0.30619   0.17077   0.20798   0.00000  Uiso   1.00
H54    H     0.03135   0.17709   0.17998   0.00000  Uiso   1.00
H55    H     0.30309   0.17984   0.14363   0.00000  Uiso   1.00
O56    O     0.01111   0.26405   0.31512   0.00000  Uiso   1.00
C57    C     0.00904   0.31017   0.32154   0.00000  Uiso   1.00
H58    H     0.03022   0.31831   0.35774   0.00000  Uiso   1.00
H59    H     0.30229   0.32181   0.32092   0.00000  Uiso   1.00
H60    H     0.02786   0.32823   0.29360   0.00000  Uiso   1.00
O61    O     0.12254   0.11472   0.32356   0.00000  Uiso   1.00
C62    C     0.06998   0.12170   0.30797   0.00000  Uiso   1.00
H63    H     0.06382   0.14298   0.27473   0.00000  Uiso   1.00
H64    H     0.05331   0.13914   0.33716   0.00000  Uiso   1.00
H65    H     0.04916   0.08983   0.30139   0.00000  Uiso   1.00
O66    O     0.12771   0.38511   0.16400   0.00000  Uiso   1.00
C67    C     0.15651   0.39472   0.12581   0.00000  Uiso   1.00
H68    H     0.14515   0.37124   0.09575   0.00000  Uiso   1.00
H69    H     0.19837   0.39052   0.13743   0.00000  Uiso   1.00
H70    H     0.14816   0.42849   0.11091   0.00000  Uiso   1.00
H71    H     0.20017   0.03070   0.18467   0.00000  Uiso   1.00
H72    H     0.19569   0.46921   0.32610   0.00000  Uiso   1.00
H73    H     0.21419   0.30863   0.04179   0.00000  Uiso   1.00
H74    H     0.09316   0.21716   0.45481   0.00000  Uiso   1.00
O75    O     0.50000   0.18572   0.29072   0.00000  Uiso   1.00
O76    O     0.50000   0.31427   0.20929   0.00000  Uiso   1.00
O77    O     0.50000   0.18573   0.20928   0.00000  Uiso   1.00
O78    O     0.50000   0.31427   0.29072   0.00000  Uiso   1.00
C79    C     0.49930   0.16495   0.25011   0.00000  Uiso   1.00
C80    C     0.49934   0.33513   0.24968   0.00000  Uiso   1.00
O81    O     0.42495   0.24999   0.28132   0.00000  Uiso   1.00
O82    O     0.57505   0.25000   0.21868   0.00000  Uiso   1.00
O83    O     0.42495   0.25000   0.19989   0.00000  Uiso   1.00
O84    O     0.57505   0.25000   0.30012   0.00000  Uiso   1.00
C85    C     0.40144   0.24923   0.23775   0.00000  Uiso   1.00
C86    C     0.59856   0.25053   0.26227   0.00000  Uiso   1.00
Cu87   Cu    0.50000   0.24999   0.29822   0.00000  Uiso   1.00
Cu88   Cu    0.50000   0.25000   0.20179   0.00000  Uiso   1.00
C89    C     0.34654   0.24543   0.23125   0.00000  Uiso   1.00
C90    C     0.65348   0.25396   0.26890   0.00000  Uiso   1.00
C91    C     0.47767   0.04704   0.28722   0.00000  Uiso   1.00
C92    C     0.48051   0.45353   0.20705   0.00000  Uiso   1.00
H93    H     0.46177   0.02905   0.31564   0.00000  Uiso   1.00
H94    H     0.46499   0.47203   0.17482   0.00000  Uiso   1.00
C95    C     0.47651   0.09312   0.28700   0.00000  Uiso   1.00
C96    C     0.48156   0.40730   0.20573   0.00000  Uiso   1.00
C97    C     0.49778   0.11669   0.25036   0.00000  Uiso   1.00
C98    C     0.49848   0.38355   0.24901   0.00000  Uiso   1.00
C99    C     0.51753   0.09372   0.21332   0.00000  Uiso   1.00
C100   C     0.51524   0.40636   0.29216   0.00000  Uiso   1.00
H101   H     0.53377   0.11124   0.18479   0.00000  Uiso   1.00
H102   H     0.52895   0.38870   0.32552   0.00000  Uiso   1.00
C103   C     0.51747   0.04786   0.21326   0.00000  Uiso   1.00
C104   C     0.51520   0.45223   0.29262   0.00000  Uiso   1.00
C105   C     0.49784   0.02433   0.25032   0.00000  Uiso   1.00
C106   C     0.49795   0.47597   0.25006   0.00000  Uiso   1.00
C107   C     0.52696   0.28230   0.05725   0.00000  Uiso   1.00
C108   C     0.45940   0.23131   0.44100   0.00000  Uiso   1.00
C109   C     0.52686   0.28138   0.10797   0.00000  Uiso   1.00
C110   C     0.46041   0.23123   0.39040   0.00000  Uiso   1.00
H111   H     0.54818   0.30608   0.13028   0.00000  Uiso   1.00
H112   H     0.42915   0.21617   0.36695   0.00000  Uiso   1.00
N113   N     0.50000   0.25001   0.12935   0.00000  Uiso   1.00
N114   N     0.50000   0.24999   0.37066   0.00000  Uiso   1.00
C115   C     0.47341   0.21848   0.10159   0.00000  Uiso   1.00
C116   C     0.53961   0.26878   0.40022   0.00000  Uiso   1.00
H117   H     0.45231   0.19357   0.11879   0.00000  Uiso   1.00
H118   H     0.57091   0.28375   0.38451   0.00000  Uiso   1.00
C119   C     0.47330   0.21765   0.05085   0.00000  Uiso   1.00
C120   C     0.54062   0.26878   0.45109   0.00000  Uiso   1.00
H121   H     0.45281   0.19131   0.03051   0.00000  Uiso   1.00
H122   H     0.57354   0.28294   0.47311   0.00000  Uiso   1.00
C123   C     0.50008   0.25002   0.02740   0.00000  Uiso   1.00
C124   C     0.50002   0.25006   0.47269   0.00000  Uiso   1.00
O125   O     0.65558   0.23477   0.18520   0.00000  Uiso   1.00
C126   C     0.65788   0.18856   0.17953   0.00000  Uiso   1.00
H127   H     0.63952   0.17077   0.20798   0.00000  Uiso   1.00
H128   H     0.36468   0.17709   0.17998   0.00000  Uiso   1.00
H129   H     0.63642   0.17984   0.14363   0.00000  Uiso   1.00
O130   O     0.34444   0.26405   0.31512   0.00000  Uiso   1.00
C131   C     0.34238   0.31017   0.32154   0.00000  Uiso   1.00
H132   H     0.36355   0.31831   0.35774   0.00000  Uiso   1.00
H133   H     0.63562   0.32181   0.32092   0.00000  Uiso   1.00
H134   H     0.36119   0.32823   0.29360   0.00000  Uiso   1.00
O135   O     0.45587   0.11472   0.32356   0.00000  Uiso   1.00
C136   C     0.40332   0.12170   0.30797   0.00000  Uiso   1.00
H137   H     0.39716   0.14298   0.27473   0.00000  Uiso   1.00
H138   H     0.38664   0.13914   0.33716   0.00000  Uiso   1.00
H139   H     0.38249   0.08983   0.30139   0.00000  Uiso   1.00
O140   O     0.46105   0.38511   0.16400   0.00000  Uiso   1.00
C141   C     0.48984   0.39472   0.12581   0.00000  Uiso   1.00
H142   H     0.47849   0.37124   0.09575   0.00000  Uiso   1.00
H143   H     0.53170   0.39052   0.13743   0.00000  Uiso   1.00
H144   H     0.48149   0.42849   0.11091   0.00000  Uiso   1.00
H145   H     0.53351   0.03070   0.18467   0.00000  Uiso   1.00
H146   H     0.52903   0.46921   0.32610   0.00000  Uiso   1.00
H147   H     0.54752   0.30863   0.04179   0.00000  Uiso   1.00
H148   H     0.42650   0.21716   0.45481   0.00000  Uiso   1.00
O149   O     0.83334   0.18572   0.29072   0.00000  Uiso   1.00
O150   O     0.83333   0.31427   0.20929   0.00000  Uiso   1.00
O151   O     0.83334   0.18573   0.20928   0.00000  Uiso   1.00
O152   O     0.83333   0.31427   0.29072   0.00000  Uiso   1.00
C153   C     0.83263   0.16495   0.25011   0.00000  Uiso   1.00
C154   C     0.83267   0.33513   0.24968   0.00000  Uiso   1.00
O155   O     0.75828   0.24999   0.28132   0.00000  Uiso   1.00
O156   O     0.90839   0.25000   0.21868   0.00000  Uiso   1.00
O157   O     0.75828   0.25000   0.19989   0.00000  Uiso   1.00
O158   O     0.90839   0.25000   0.30012   0.00000  Uiso   1.00
C159   C     0.73478   0.24923   0.23775   0.00000  Uiso   1.00
C160   C     0.93189   0.25053   0.26227   0.00000  Uiso   1.00
Cu161  Cu    0.83333   0.24999   0.29822   0.00000  Uiso   1.00
Cu162  Cu    0.83333   0.25000   0.20179   0.00000  Uiso   1.00
C163   C     0.67988   0.24543   0.23125   0.00000  Uiso   1.00
C164   C     0.98681   0.25396   0.26890   0.00000  Uiso   1.00
C165   C     0.81100   0.04704   0.28722   0.00000  Uiso   1.00
C166   C     0.81384   0.45353   0.20705   0.00000  Uiso   1.00
H167   H     0.79510   0.02905   0.31564   0.00000  Uiso   1.00
H168   H     0.79832   0.47203   0.17482   0.00000  Uiso   1.00
C169   C     0.80984   0.09312   0.28700   0.00000  Uiso   1.00
C170   C     0.81489   0.40730   0.20573   0.00000  Uiso   1.00
C171   C     0.83111   0.11669   0.25036   0.00000  Uiso   1.00
C172   C     0.83181   0.38355   0.24901   0.00000  Uiso   1.00
C173   C     0.85086   0.09372   0.21332   0.00000  Uiso   1.00
C174   C     0.84857   0.40636   0.29216   0.00000  Uiso   1.00
H175   H     0.86710   0.11124   0.18479   0.00000  Uiso   1.00
H176   H     0.86229   0.38870   0.32552   0.00000  Uiso   1.00
C177   C     0.85080   0.04786   0.21326   0.00000  Uiso   1.00
C178   C     0.84853   0.45223   0.29262   0.00000  Uiso   1.00
C179   C     0.83117   0.02433   0.25032   0.00000  Uiso   1.00
C180   C     0.83128   0.47597   0.25006   0.00000  Uiso   1.00
C181   C     0.86029   0.28230   0.05725   0.00000  Uiso   1.00
C182   C     0.79274   0.23131   0.44100   0.00000  Uiso   1.00
C183   C     0.86019   0.28138   0.10797   0.00000  Uiso   1.00
C184   C     0.79374   0.23123   0.39040   0.00000  Uiso   1.00
H185   H     0.88151   0.30608   0.13028   0.00000  Uiso   1.00
H186   H     0.76249   0.21617   0.36695   0.00000  Uiso   1.00
N187   N     0.83333   0.25001   0.12935   0.00000  Uiso   1.00
N188   N     0.83333   0.24999   0.37066   0.00000  Uiso   1.00
C189   C     0.80674   0.21848   0.10159   0.00000  Uiso   1.00
C190   C     0.87295   0.26878   0.40022   0.00000  Uiso   1.00
H191   H     0.78564   0.19357   0.11879   0.00000  Uiso   1.00
H192   H     0.90424   0.28375   0.38451   0.00000  Uiso   1.00
C193   C     0.80664   0.21765   0.05085   0.00000  Uiso   1.00
C194   C     0.87396   0.26878   0.45109   0.00000  Uiso   1.00
H195   H     0.78615   0.19131   0.03051   0.00000  Uiso   1.00
H196   H     0.90687   0.28294   0.47311   0.00000  Uiso   1.00
C197   C     0.83341   0.25002   0.02740   0.00000  Uiso   1.00
C198   C     0.83336   0.25006   0.47269   0.00000  Uiso   1.00
O199   O     0.98891   0.23477   0.18520   0.00000  Uiso   1.00
C200   C     0.99121   0.18856   0.17953   0.00000  Uiso   1.00
H201   H     0.97285   0.17077   0.20798   0.00000  Uiso   1.00
H202   H     0.69802   0.17709   0.17998   0.00000  Uiso   1.00
H203   H     0.96976   0.17984   0.14363   0.00000  Uiso   1.00
O204   O     0.67777   0.26405   0.31512   0.00000  Uiso   1.00
C205   C     0.67571   0.31017   0.32154   0.00000  Uiso   1.00
H206   H     0.69689   0.31831   0.35774   0.00000  Uiso   1.00
H207   H     0.96896   0.32181   0.32092   0.00000  Uiso   1.00
H208   H     0.69452   0.32823   0.29360   0.00000  Uiso   1.00
O209   O     0.78920   0.11472   0.32356   0.00000  Uiso   1.00
C210   C     0.73665   0.12170   0.30797   0.00000  Uiso   1.00
H211   H     0.73049   0.14298   0.27473   0.00000  Uiso   1.00
H212   H     0.71997   0.13914   0.33716   0.00000  Uiso   1.00
H213   H     0.71582   0.08983   0.30139   0.00000  Uiso   1.00
O214   O     0.79438   0.38511   0.16400   0.00000  Uiso   1.00
C215   C     0.82318   0.39472   0.12581   0.00000  Uiso   1.00
H216   H     0.81182   0.37124   0.09575   0.00000  Uiso   1.00
H217   H     0.86504   0.39052   0.13743   0.00000  Uiso   1.00
H218   H     0.81483   0.42849   0.11091   0.00000  Uiso   1.00
H219   H     0.86684   0.03070   0.18467   0.00000  Uiso   1.00
H220   H     0.86236   0.46921   0.32610   0.00000  Uiso   1.00
H221   H     0.88086   0.30863   0.04179   0.00000  Uiso   1.00
H222   H     0.75983   0.21716   0.45481   0.00000  Uiso   1.00
O223   O     0.16667   0.68572   0.29072   0.00000  Uiso   1.00
O224   O     0.16666   0.81427   0.20929   0.00000  Uiso   1.00
O225   O     0.16667   0.68573   0.20928   0.00000  Uiso   1.00
O226   O     0.16666   0.81427   0.29072   0.00000  Uiso   1.00
C227   C     0.16597   0.66495   0.25011   0.00000  Uiso   1.00
C228   C     0.16601   0.83513   0.24968   0.00000  Uiso   1.00
O229   O     0.09161   0.74999   0.28132   0.00000  Uiso   1.00
O230   O     0.24172   0.75000   0.21868   0.00000  Uiso   1.00
O231   O     0.09161   0.75000   0.19989   0.00000  Uiso   1.00
O232   O     0.24172   0.75000   0.30012   0.00000  Uiso   1.00
C233   C     0.06811   0.74923   0.23775   0.00000  Uiso   1.00
C234   C     0.26523   0.75053   0.26227   0.00000  Uiso   1.00
Cu235  Cu    0.16667   0.74999   0.29822   0.00000  Uiso   1.00
Cu236  Cu    0.16667   0.75000   0.20179   0.00000  Uiso   1.00
C237   C     0.01321   0.74543   0.23125   0.00000  Uiso   1.00
C238   C     0.32015   0.75396   0.26890   0.00000  Uiso   1.00
C239   C     0.14433   0.54704   0.28722   0.00000  Uiso   1.00
C240   C     0.14718   0.95353   0.20705   0.00000  Uiso   1.00
H241   H     0.12843   0.52905   0.31564   0.00000  Uiso   1.00
H242   H     0.13166   0.97203   0.17482   0.00000  Uiso   1.00
C243   C     0.14317   0.59312   0.28700   0.00000  Uiso   1.00
C244   C     0.14823   0.90730   0.20573   0.00000  Uiso   1.00
C245   C     0.16445   0.61669   0.25036   0.00000  Uiso   1.00
C246   C     0.16515   0.88355   0.24901   0.00000  Uiso   1.00
C247   C     0.18420   0.59372   0.21332   0.00000  Uiso   1.00
C248   C     0.18191   0.90636   0.29216   0.00000  Uiso   1.00
H249   H     0.20044   0.61124   0.18479   0.00000  Uiso   1.00
H250   H     0.19562   0.88870   0.32552   0.00000  Uiso   1.00
C251   C     0.18414   0.54786   0.21326   0.00000  Uiso   1.00
C252   C     0.18186   0.95223   0.29262   0.00000  Uiso   1.00
C253   C     0.16450   0.52433   0.25032   0.00000  Uiso   1.00
C254   C     0.16462   0.97597   0.25006   0.00000  Uiso   1.00
C255   C     0.19362   0.78230   0.05725   0.00000  Uiso   1.00
C256   C     0.12607   0.73131   0.44100   0.00000  Uiso   1.00
C257   C     0.19353   0.78138   0.10797   0.00000  Uiso   1.00
C258   C     0.12707   0.73123   0.39040   0.00000  Uiso   1.00
H259   H     0.21485   0.80608   0.13028   0.00000  Uiso   1.00
H260   H     0.09582   0.71617   0.36695   0.00000  Uiso   1.00
N261   N     0.16667   0.75001   0.12935   0.00000  Uiso   1.00
N262   N     0.16667   0.74999   0.37066   0.00000  Uiso   1.00
C263   C     0.14008   0.71848   0.10159   0.00000  Uiso   1.00
C264   C     0.20628   0.76878   0.40022   0.00000  Uiso   1.00
H265   H     0.11897   0.69357   0.11879   0.00000  Uiso   1.00
H266   H     0.23757   0.78375   0.38451   0.00000  Uiso   1.00
C267   C     0.13997   0.71765   0.05085   0.00000  Uiso   1.00
C268   C     0.20729   0.76878   0.45109   0.00000  Uiso   1.00
H269   H     0.11948   0.69131   0.03051   0.00000  Uiso   1.00
H270   H     0.24021   0.78294   0.47311   0.00000  Uiso   1.00
C271   C     0.16674   0.75002   0.02740   0.00000  Uiso   1.00
C272   C     0.16669   0.75006   0.47269   0.00000  Uiso   1.00
O273   O     0.32224   0.73477   0.18520   0.00000  Uiso   1.00
C274   C     0.32455   0.68856   0.17953   0.00000  Uiso   1.00
H275   H     0.30619   0.67077   0.20798   0.00000  Uiso   1.00
H276   H     0.03135   0.67709   0.17998   0.00000  Uiso   1.00
H277   H     0.30309   0.67984   0.14363   0.00000  Uiso   1.00
O278   O     0.01111   0.76405   0.31512   0.00000  Uiso   1.00
C279   C     0.00904   0.81017   0.32154   0.00000  Uiso   1.00
H280   H     0.03022   0.81831   0.35774   0.00000  Uiso   1.00
H281   H     0.30229   0.82181   0.32092   0.00000  Uiso   1.00
H282   H     0.02786   0.82823   0.29360   0.00000  Uiso   1.00
O283   O     0.12254   0.61472   0.32356   0.00000  Uiso   1.00
C284   C     0.06998   0.62170   0.30797   0.00000  Uiso   1.00
H285   H     0.06382   0.64298   0.27473   0.00000  Uiso   1.00
H286   H     0.05331   0.63914   0.33716   0.00000  Uiso   1.00
H287   H     0.04916   0.58983   0.30139   0.00000  Uiso   1.00
O288   O     0.12771   0.88511   0.16400   0.00000  Uiso   1.00
C289   C     0.15651   0.89472   0.12581   0.00000  Uiso   1.00
H290   H     0.14515   0.87124   0.09575   0.00000  Uiso   1.00
H291   H     0.19837   0.89052   0.13743   0.00000  Uiso   1.00
H292   H     0.14816   0.92849   0.11091   0.00000  Uiso   1.00
H293   H     0.20017   0.53070   0.18467   0.00000  Uiso   1.00
H294   H     0.19569   0.96921   0.32610   0.00000  Uiso   1.00
H295   H     0.21419   0.80863   0.04179   0.00000  Uiso   1.00
H296   H     0.09316   0.71716   0.45481   0.00000  Uiso   1.00
O297   O     0.50000   0.68572   0.29072   0.00000  Uiso   1.00
O298   O     0.50000   0.81427   0.20929   0.00000  Uiso   1.00
O299   O     0.50000   0.68573   0.20928   0.00000  Uiso   1.00
O300   O     0.50000   0.81427   0.29072   0.00000  Uiso   1.00
C301   C     0.49930   0.66495   0.25011   0.00000  Uiso   1.00
C302   C     0.49934   0.83513   0.24968   0.00000  Uiso   1.00
O303   O     0.42495   0.74999   0.28132   0.00000  Uiso   1.00
O304   O     0.57505   0.75000   0.21868   0.00000  Uiso   1.00
O305   O     0.42495   0.75000   0.19989   0.00000  Uiso   1.00
O306   O     0.57505   0.75000   0.30012   0.00000  Uiso   1.00
C307   C     0.40144   0.74923   0.23775   0.00000  Uiso   1.00
C308   C     0.59856   0.75053   0.26227   0.00000  Uiso   1.00
Cu309  Cu    0.50000   0.74999   0.29822   0.00000  Uiso   1.00
Cu310  Cu    0.50000   0.75000   0.20179   0.00000  Uiso   1.00
C311   C     0.34654   0.74543   0.23125   0.00000  Uiso   1.00
C312   C     0.65348   0.75396   0.26890   0.00000  Uiso   1.00
C313   C     0.47767   0.54704   0.28722   0.00000  Uiso   1.00
C314   C     0.48051   0.95353   0.20705   0.00000  Uiso   1.00
H315   H     0.46177   0.52905   0.31564   0.00000  Uiso   1.00
H316   H     0.46499   0.97203   0.17482   0.00000  Uiso   1.00
C317   C     0.47651   0.59312   0.28700   0.00000  Uiso   1.00
C318   C     0.48156   0.90730   0.20573   0.00000  Uiso   1.00
C319   C     0.49778   0.61669   0.25036   0.00000  Uiso   1.00
C320   C     0.49848   0.88355   0.24901   0.00000  Uiso   1.00
C321   C     0.51753   0.59372   0.21332   0.00000  Uiso   1.00
C322   C     0.51524   0.90636   0.29216   0.00000  Uiso   1.00
H323   H     0.53377   0.61124   0.18479   0.00000  Uiso   1.00
H324   H     0.52895   0.88870   0.32552   0.00000  Uiso   1.00
C325   C     0.51747   0.54786   0.21326   0.00000  Uiso   1.00
C326   C     0.51520   0.95223   0.29262   0.00000  Uiso   1.00
C327   C     0.49784   0.52433   0.25032   0.00000  Uiso   1.00
C328   C     0.49795   0.97597   0.25006   0.00000  Uiso   1.00
C329   C     0.52696   0.78230   0.05725   0.00000  Uiso   1.00
C330   C     0.45940   0.73131   0.44100   0.00000  Uiso   1.00
C331   C     0.52686   0.78138   0.10797   0.00000  Uiso   1.00
C332   C     0.46041   0.73123   0.39040   0.00000  Uiso   1.00
H333   H     0.54818   0.80608   0.13028   0.00000  Uiso   1.00
H334   H     0.42915   0.71617   0.36695   0.00000  Uiso   1.00
N335   N     0.50000   0.75001   0.12935   0.00000  Uiso   1.00
N336   N     0.50000   0.74999   0.37066   0.00000  Uiso   1.00
C337   C     0.47341   0.71848   0.10159   0.00000  Uiso   1.00
C338   C     0.53961   0.76878   0.40022   0.00000  Uiso   1.00
H339   H     0.45231   0.69357   0.11879   0.00000  Uiso   1.00
H340   H     0.57091   0.78375   0.38451   0.00000  Uiso   1.00
C341   C     0.47330   0.71765   0.05085   0.00000  Uiso   1.00
C342   C     0.54062   0.76878   0.45109   0.00000  Uiso   1.00
H343   H     0.45281   0.69131   0.03051   0.00000  Uiso   1.00
H344   H     0.57354   0.78294   0.47311   0.00000  Uiso   1.00
C345   C     0.50008   0.75002   0.02740   0.00000  Uiso   1.00
C346   C     0.50002   0.75006   0.47269   0.00000  Uiso   1.00
O347   O     0.65558   0.73477   0.18520   0.00000  Uiso   1.00
C348   C     0.65788   0.68856   0.17953   0.00000  Uiso   1.00
H349   H     0.63952   0.67077   0.20798   0.00000  Uiso   1.00
H350   H     0.36468   0.67709   0.17998   0.00000  Uiso   1.00
H351   H     0.63642   0.67984   0.14363   0.00000  Uiso   1.00
O352   O     0.34444   0.76405   0.31512   0.00000  Uiso   1.00
C353   C     0.34238   0.81017   0.32154   0.00000  Uiso   1.00
H354   H     0.36355   0.81831   0.35774   0.00000  Uiso   1.00
H355   H     0.63562   0.82181   0.32092   0.00000  Uiso   1.00
H356   H     0.36119   0.82823   0.29360   0.00000  Uiso   1.00
O357   O     0.45587   0.61472   0.32356   0.00000  Uiso   1.00
C358   C     0.40332   0.62170   0.30797   0.00000  Uiso   1.00
H359   H     0.39716   0.64298   0.27473   0.00000  Uiso   1.00
H360   H     0.38664   0.63914   0.33716   0.00000  Uiso   1.00
H361   H     0.38249   0.58983   0.30139   0.00000  Uiso   1.00
O362   O     0.46105   0.88511   0.16400   0.00000  Uiso   1.00
C363   C     0.48984   0.89472   0.12581   0.00000  Uiso   1.00
H364   H     0.47849   0.87124   0.09575   0.00000  Uiso   1.00
H365   H     0.53170   0.89052   0.13743   0.00000  Uiso   1.00
H366   H     0.48149   0.92849   0.11091   0.00000  Uiso   1.00
H367   H     0.53351   0.53070   0.18467   0.00000  Uiso   1.00
H368   H     0.52903   0.96921   0.32610   0.00000  Uiso   1.00
H369   H     0.54752   0.80863   0.04179   0.00000  Uiso   1.00
H370   H     0.42650   0.71716   0.45481   0.00000  Uiso   1.00
O371   O     0.83334   0.68572   0.29072   0.00000  Uiso   1.00
O372   O     0.83333   0.81427   0.20929   0.00000  Uiso   1.00
O373   O     0.83334   0.68573   0.20928   0.00000  Uiso   1.00
O374   O     0.83333   0.81427   0.29072   0.00000  Uiso   1.00
C375   C     0.83263   0.66495   0.25011   0.00000  Uiso   1.00
C376   C     0.83267   0.83513   0.24968   0.00000  Uiso   1.00
O377   O     0.75828   0.74999   0.28132   0.00000  Uiso   1.00
O378   O     0.90839   0.75000   0.21868   0.00000  Uiso   1.00
O379   O     0.75828   0.75000   0.19989   0.00000  Uiso   1.00
O380   O     0.90839   0.75000   0.30012   0.00000  Uiso   1.00
C381   C     0.73478   0.74923   0.23775   0.00000  Uiso   1.00
C382   C     0.93189   0.75053   0.26227   0.00000  Uiso   1.00
Cu383  Cu    0.83333   0.74999   0.29822   0.00000  Uiso   1.00
Cu384  Cu    0.83333   0.75000   0.20179   0.00000  Uiso   1.00
C385   C     0.67988   0.74543   0.23125   0.00000  Uiso   1.00
C386   C     0.98681   0.75396   0.26890   0.00000  Uiso   1.00
C387   C     0.81100   0.54704   0.28722   0.00000  Uiso   1.00
C388   C     0.81384   0.95353   0.20705   0.00000  Uiso   1.00
H389   H     0.79510   0.52905   0.31564   0.00000  Uiso   1.00
H390   H     0.79832   0.97203   0.17482   0.00000  Uiso   1.00
C391   C     0.80984   0.59312   0.28700   0.00000  Uiso   1.00
C392   C     0.81489   0.90730   0.20573   0.00000  Uiso   1.00
C393   C     0.83111   0.61669   0.25036   0.00000  Uiso   1.00
C394   C     0.83181   0.88355   0.24901   0.00000  Uiso   1.00
C395   C     0.85086   0.59372   0.21332   0.00000  Uiso   1.00
C396   C     0.84857   0.90636   0.29216   0.00000  Uiso   1.00
H397   H     0.86710   0.61124   0.18479   0.00000  Uiso   1.00
H398   H     0.86229   0.88870   0.32552   0.00000  Uiso   1.00
C399   C     0.85080   0.54786   0.21326   0.00000  Uiso   1.00
C400   C     0.84853   0.95223   0.29262   0.00000  Uiso   1.00
C401   C     0.83117   0.52433   0.25032   0.00000  Uiso   1.00
C402   C     0.83128   0.97597   0.25006   0.00000  Uiso   1.00
C403   C     0.86029   0.78230   0.05725   0.00000  Uiso   1.00
C404   C     0.79274   0.73131   0.44100   0.00000  Uiso   1.00
C405   C     0.86019   0.78138   0.10797   0.00000  Uiso   1.00
C406   C     0.79374   0.73123   0.39040   0.00000  Uiso   1.00
H407   H     0.88151   0.80608   0.13028   0.00000  Uiso   1.00
H408   H     0.76249   0.71617   0.36695   0.00000  Uiso   1.00
N409   N     0.83333   0.75001   0.12935   0.00000  Uiso   1.00
N410   N     0.83333   0.74999   0.37066   0.00000  Uiso   1.00
C411   C     0.80674   0.71848   0.10159   0.00000  Uiso   1.00
C412   C     0.87295   0.76878   0.40022   0.00000  Uiso   1.00
H413   H     0.78564   0.69357   0.11879   0.00000  Uiso   1.00
H414   H     0.90424   0.78375   0.38451   0.00000  Uiso   1.00
C415   C     0.80664   0.71765   0.05085   0.00000  Uiso   1.00
C416   C     0.87396   0.76878   0.45109   0.00000  Uiso   1.00
H417   H     0.78615   0.69131   0.03051   0.00000  Uiso   1.00
H418   H     0.90687   0.78294   0.47311   0.00000  Uiso   1.00
C419   C     0.83341   0.75002   0.02740   0.00000  Uiso   1.00
C420   C     0.83336   0.75006   0.47269   0.00000  Uiso   1.00
O421   O     0.98891   0.73477   0.18520   0.00000  Uiso   1.00
C422   C     0.99121   0.68856   0.17953   0.00000  Uiso   1.00
H423   H     0.97285   0.67077   0.20798   0.00000  Uiso   1.00
H424   H     0.69802   0.67709   0.17998   0.00000  Uiso   1.00
H425   H     0.96976   0.67984   0.14363   0.00000  Uiso   1.00
O426   O     0.67777   0.76405   0.31512   0.00000  Uiso   1.00
C427   C     0.67571   0.81017   0.32154   0.00000  Uiso   1.00
H428   H     0.69689   0.81831   0.35774   0.00000  Uiso   1.00
H429   H     0.96896   0.82181   0.32092   0.00000  Uiso   1.00
H430   H     0.69452   0.82823   0.29360   0.00000  Uiso   1.00
O431   O     0.78920   0.61472   0.32356   0.00000  Uiso   1.00
C432   C     0.73665   0.62170   0.30797   0.00000  Uiso   1.00
H433   H     0.73049   0.64298   0.27473   0.00000  Uiso   1.00
H434   H     0.71997   0.63914   0.33716   0.00000  Uiso   1.00
H435   H     0.71582   0.58983   0.30139   0.00000  Uiso   1.00
O436   O     0.79438   0.88511   0.16400   0.00000  Uiso   1.00
C437   C     0.82318   0.89472   0.12581   0.00000  Uiso   1.00
H438   H     0.81182   0.87124   0.09575   0.00000  Uiso   1.00
H439   H     0.86504   0.89052   0.13743   0.00000  Uiso   1.00
H440   H     0.81483   0.92849   0.11091   0.00000  Uiso   1.00
H441   H     0.86684   0.53070   0.18467   0.00000  Uiso   1.00
H442   H     0.86236   0.96921   0.32610   0.00000  Uiso   1.00
H443   H     0.88086   0.80863   0.04179   0.00000  Uiso   1.00
H444   H     0.75983   0.71716   0.45481   0.00000  Uiso   1.00
O445   O     0.16667   0.18572   0.79072   0.00000  Uiso   1.00
O446   O     0.16666   0.31427   0.70929   0.00000  Uiso   1.00
O447   O     0.16667   0.18573   0.70928   0.00000  Uiso   1.00
O448   O     0.16666   0.31427   0.79072   0.00000  Uiso   1.00
C449   C     0.16597   0.16495   0.75011   0.00000  Uiso   1.00
C450   C     0.16601   0.33513   0.74968   0.00000  Uiso   1.00
O451   O     0.09161   0.24999   0.78132   0.00000  Uiso   1.00
O452   O     0.24172   0.25000   0.71868   0.00000  Uiso   1.00
O453   O     0.09161   0.25000   0.69989   0.00000  Uiso   1.00
O454   O     0.24172   0.25000   0.80012   0.00000  Uiso   1.00
C455   C     0.06811   0.24923   0.73775   0.00000  Uiso   1.00
C456   C     0.26523   0.25053   0.76227   0.00000  Uiso   1.00
Cu457  Cu    0.16667   0.24999   0.79822   0.00000  Uiso   1.00
Cu458  Cu    0.16667   0.25000   0.70179   0.00000  Uiso   1.00
C459   C     0.01321   0.24543   0.73125   0.00000  Uiso   1.00
C460   C     0.32015   0.25396   0.76890   0.00000  Uiso   1.00
C461   C     0.14433   0.04704   0.78722   0.00000  Uiso   1.00
C462   C     0.14718   0.45353   0.70705   0.00000  Uiso   1.00
H463   H     0.12843   0.02905   0.81564   0.00000  Uiso   1.00
H464   H     0.13166   0.47203   0.67482   0.00000  Uiso   1.00
C465   C     0.14317   0.09312   0.78700   0.00000  Uiso   1.00
C466   C     0.14823   0.40730   0.70573   0.00000  Uiso   1.00
C467   C     0.16445   0.11669   0.75036   0.00000  Uiso   1.00
C468   C     0.16515   0.38355   0.74901   0.00000  Uiso   1.00
C469   C     0.18420   0.09372   0.71332   0.00000  Uiso   1.00
C470   C     0.18191   0.40636   0.79216   0.00000  Uiso   1.00
H471   H     0.20044   0.11124   0.68479   0.00000  Uiso   1.00
H472   H     0.19562   0.38870   0.82552   0.00000  Uiso   1.00
C473   C     0.18414   0.04786   0.71326   0.00000  Uiso   1.00
C474   C     0.18186   0.45223   0.79262   0.00000  Uiso   1.00
C475   C     0.16450   0.02433   0.75032   0.00000  Uiso   1.00
C476   C     0.16462   0.47597   0.75006   0.00000  Uiso   1.00
C477   C     0.19362   0.28230   0.55725   0.00000  Uiso   1.00
C478   C     0.12607   0.23131   0.94100   0.00000  Uiso   1.00
C479   C     0.19353   0.28138   0.60797   0.00000  Uiso   1.00
C480   C     0.12707   0.23123   0.89040   0.00000  Uiso   1.00
H481   H     0.21485   0.30608   0.63028   0.00000  Uiso   1.00
H482   H     0.09582   0.21617   0.86695   0.00000  Uiso   1.00
N483   N     0.16667   0.25001   0.62935   0.00000  Uiso   1.00
N484   N     0.16667   0.24999   0.87066   0.00000  Uiso   1.00
C485   C     0.14008   0.21848   0.60159   0.00000  Uiso   1.00
C486   C     0.20628   0.26878   0.90022   0.00000  Uiso   1.00
H487   H     0.11897   0.19357   0.61879   0.00000  Uiso   1.00
H488   H     0.23757   0.28375   0.88451   0.00000  Uiso   1.00
C489   C     0.13997   0.21765   0.55085   0.00000  Uiso   1.00
C490   C     0.20729   0.26878   0.95109   0.00000  Uiso   1.00
H491   H     0.11948   0.19131   0.53051   0.00000  Uiso   1.00
H492   H     0.24021   0.28294   0.97311   0.00000  Uiso   1.00
C493   C     0.16674   0.25002   0.52740   0.00000  Uiso   1.00
C494   C     0.16669   0.25006   0.97269   0.00000  Uiso   1.00
O495   O     0.32224   0.23477   0.68520   0.00000  Uiso   1.00
C496   C     0.32455   0.18856   0.67953   0.00000  Uiso   1.00
H497   H     0.30619   0.17077   0.70798   0.00000  Uiso   1.00
H498   H     0.03135   0.17709   0.67998   0.00000  Uiso   1.00
H499   H     0.30309   0.17984   0.64363   0.00000  Uiso   1.00
O500   O     0.01111   0.26405   0.81512   0.00000  Uiso   1.00
C501   C     0.00904   0.31017   0.82154   0.00000  Uiso   1.00
H502   H     0.03022   0.31831   0.85774   0.00000  Uiso   1.00
H503   H     0.30229   0.32181   0.82092   0.00000  Uiso   1.00
H504   H     0.02786   0.32823   0.79360   0.00000  Uiso   1.00
O505   O     0.12254   0.11472   0.82356   0.00000  Uiso   1.00
C506   C     0.06998   0.12170   0.80797   0.00000  Uiso   1.00
H507   H     0.06382   0.14298   0.77473   0.00000  Uiso   1.00
H508   H     0.05331   0.13914   0.83716   0.00000  Uiso   1.00
H509   H     0.04916   0.08983   0.80139   0.00000  Uiso   1.00
O510   O     0.12771   0.38511   0.66400   0.00000  Uiso   1.00
C511   C     0.15651   0.39472   0.62581   0.00000  Uiso   1.00
H512   H     0.14515   0.37124   0.59575   0.00000  Uiso   1.00
H513   H     0.19837   0.39052   0.63743   0.00000  Uiso   1.00
H514   H     0.14816   0.42849   0.61091   0.00000  Uiso   1.00
H515   H     0.20017   0.03070   0.68467   0.00000  Uiso   1.00
H516   H     0.19569   0.46921   0.82610   0.00000  Uiso   1.00
H517   H     0.21419   0.30863   0.54179   0.00000  Uiso   1.00
H518   H     0.09316   0.21716   0.95481   0.00000  Uiso   1.00
O519   O     0.50000   0.18572   0.79072   0.00000  Uiso   1.00
O520   O     0.50000   0.31427   0.70929   0.00000  Uiso   1.00
O521   O     0.50000   0.18573   0.70928   0.00000  Uiso   1.00
O522   O     0.50000   0.31427   0.79072   0.00000  Uiso   1.00
C523   C     0.49930   0.16495   0.75011   0.00000  Uiso   1.00
C524   C     0.49934   0.33513   0.74968   0.00000  Uiso   1.00
O525   O     0.42495   0.24999   0.78132   0.00000  Uiso   1.00
O526   O     0.57505   0.25000   0.71868   0.00000  Uiso   1.00
O527   O     0.42495   0.25000   0.69989   0.00000  Uiso   1.00
O528   O     0.57505   0.25000   0.80012   0.00000  Uiso   1.00
C529   C     0.40144   0.24923   0.73775   0.00000  Uiso   1.00
C530   C     0.59856   0.25053   0.76227   0.00000  Uiso   1.00
Cu531  Cu    0.50000   0.24999   0.79822   0.00000  Uiso   1.00
Cu532  Cu    0.50000   0.25000   0.70179   0.00000  Uiso   1.00
C533   C     0.34654   0.24543   0.73125   0.00000  Uiso   1.00
C534   C     0.65348   0.25396   0.76890   0.00000  Uiso   1.00
C535   C     0.47767   0.04704   0.78722   0.00000  Uiso   1.00
C536   C     0.48051   0.45353   0.70705   0.00000  Uiso   1.00
H537   H     0.46177   0.02905   0.81564   0.00000  Uiso   1.00
H538   H     0.46499   0.47203   0.67482   0.00000  Uiso   1.00
C539   C     0.47651   0.09312   0.78700   0.00000  Uiso   1.00
C540   C     0.48156   0.40730   0.70573   0.00000  Uiso   1.00
C541   C     0.49778   0.11669   0.75036   0.00000  Uiso   1.00
C542   C     0.49848   0.38355   0.74901   0.00000  Uiso   1.00
C543   C     0.51753   0.09372   0.71332   0.00000  Uiso   1.00
C544   C     0.51524   0.40636   0.79216   0.00000  Uiso   1.00
H545   H     0.53377   0.11124   0.68479   0.00000  Uiso   1.00
H546   H     0.52895   0.38870   0.82552   0.00000  Uiso   1.00
C547   C     0.51747   0.04786   0.71326   0.00000  Uiso   1.00
C548   C     0.51520   0.45223   0.79262   0.00000  Uiso   1.00
C549   C     0.49784   0.02433   0.75032   0.00000  Uiso   1.00
C550   C     0.49795   0.47597   0.75006   0.00000  Uiso   1.00
C551   C     0.52696   0.28230   0.55725   0.00000  Uiso   1.00
C552   C     0.45940   0.23131   0.94100   0.00000  Uiso   1.00
C553   C     0.52686   0.28138   0.60797   0.00000  Uiso   1.00
C554   C     0.46041   0.23123   0.89040   0.00000  Uiso   1.00
H555   H     0.54818   0.30608   0.63028   0.00000  Uiso   1.00
H556   H     0.42915   0.21617   0.86695   0.00000  Uiso   1.00
N557   N     0.50000   0.25001   0.62935   0.00000  Uiso   1.00
N558   N     0.50000   0.24999   0.87066   0.00000  Uiso   1.00
C559   C     0.47341   0.21848   0.60159   0.00000  Uiso   1.00
C560   C     0.53961   0.26878   0.90022   0.00000  Uiso   1.00
H561   H     0.45231   0.19357   0.61879   0.00000  Uiso   1.00
H562   H     0.57091   0.28375   0.88451   0.00000  Uiso   1.00
C563   C     0.47330   0.21765   0.55085   0.00000  Uiso   1.00
C564   C     0.54062   0.26878   0.95109   0.00000  Uiso   1.00
H565   H     0.45281   0.19131   0.53051   0.00000  Uiso   1.00
H566   H     0.57354   0.28294   0.97311   0.00000  Uiso   1.00
C567   C     0.50008   0.25002   0.52740   0.00000  Uiso   1.00
C568   C     0.50002   0.25006   0.97269   0.00000  Uiso   1.00
O569   O     0.65558   0.23477   0.68520   0.00000  Uiso   1.00
C570   C     0.65788   0.18856   0.67953   0.00000  Uiso   1.00
H571   H     0.63952   0.17077   0.70798   0.00000  Uiso   1.00
H572   H     0.36468   0.17709   0.67998   0.00000  Uiso   1.00
H573   H     0.63642   0.17984   0.64363   0.00000  Uiso   1.00
O574   O     0.34444   0.26405   0.81512   0.00000  Uiso   1.00
C575   C     0.34238   0.31017   0.82154   0.00000  Uiso   1.00
H576   H     0.36355   0.31831   0.85774   0.00000  Uiso   1.00
H577   H     0.63562   0.32181   0.82092   0.00000  Uiso   1.00
H578   H     0.36119   0.32823   0.79360   0.00000  Uiso   1.00
O579   O     0.45587   0.11472   0.82356   0.00000  Uiso   1.00
C580   C     0.40332   0.12170   0.80797   0.00000  Uiso   1.00
H581   H     0.39716   0.14298   0.77473   0.00000  Uiso   1.00
H582   H     0.38664   0.13914   0.83716   0.00000  Uiso   1.00
H583   H     0.38249   0.08983   0.80139   0.00000  Uiso   1.00
O584   O     0.46105   0.38511   0.66400   0.00000  Uiso   1.00
C585   C     0.48984   0.39472   0.62581   0.00000  Uiso   1.00
H586   H     0.47849   0.37124   0.59575   0.00000  Uiso   1.00
H587   H     0.53170   0.39052   0.63743   0.00000  Uiso   1.00
H588   H     0.48149   0.42849   0.61091   0.00000  Uiso   1.00
H589   H     0.53351   0.03070   0.68467   0.00000  Uiso   1.00
H590   H     0.52903   0.46921   0.82610   0.00000  Uiso   1.00
H591   H     0.54752   0.30863   0.54179   0.00000  Uiso   1.00
H592   H     0.42650   0.21716   0.95481   0.00000  Uiso   1.00
O593   O     0.83334   0.18572   0.79072   0.00000  Uiso   1.00
O594   O     0.83333   0.31427   0.70929   0.00000  Uiso   1.00
O595   O     0.83334   0.18573   0.70928   0.00000  Uiso   1.00
O596   O     0.83333   0.31427   0.79072   0.00000  Uiso   1.00
C597   C     0.83263   0.16495   0.75011   0.00000  Uiso   1.00
C598   C     0.83267   0.33513   0.74968   0.00000  Uiso   1.00
O599   O     0.75828   0.24999   0.78132   0.00000  Uiso   1.00
O600   O     0.90839   0.25000   0.71868   0.00000  Uiso   1.00
O601   O     0.75828   0.25000   0.69989   0.00000  Uiso   1.00
O602   O     0.90839   0.25000   0.80012   0.00000  Uiso   1.00
C603   C     0.73478   0.24923   0.73775   0.00000  Uiso   1.00
C604   C     0.93189   0.25053   0.76227   0.00000  Uiso   1.00
Cu605  Cu    0.83333   0.24999   0.79822   0.00000  Uiso   1.00
Cu606  Cu    0.83333   0.25000   0.70179   0.00000  Uiso   1.00
C607   C     0.67988   0.24543   0.73125   0.00000  Uiso   1.00
C608   C     0.98681   0.25396   0.76890   0.00000  Uiso   1.00
C609   C     0.81100   0.04704   0.78722   0.00000  Uiso   1.00
C610   C     0.81384   0.45353   0.70705   0.00000  Uiso   1.00
H611   H     0.79510   0.02905   0.81564   0.00000  Uiso   1.00
H612   H     0.79832   0.47203   0.67482   0.00000  Uiso   1.00
C613   C     0.80984   0.09312   0.78700   0.00000  Uiso   1.00
C614   C     0.81489   0.40730   0.70573   0.00000  Uiso   1.00
C615   C     0.83111   0.11669   0.75036   0.00000  Uiso   1.00
C616   C     0.83181   0.38355   0.74901   0.00000  Uiso   1.00
C617   C     0.85086   0.09372   0.71332   0.00000  Uiso   1.00
C618   C     0.84857   0.40636   0.79216   0.00000  Uiso   1.00
H619   H     0.86710   0.11124   0.68479   0.00000  Uiso   1.00
H620   H     0.86229   0.38870   0.82552   0.00000  Uiso   1.00
C621   C     0.85080   0.04786   0.71326   0.00000  Uiso   1.00
C622   C     0.84853   0.45223   0.79262   0.00000  Uiso   1.00
C623   C     0.83117   0.02433   0.75032   0.00000  Uiso   1.00
C624   C     0.83128   0.47597   0.75006   0.00000  Uiso   1.00
C625   C     0.86029   0.28230   0.55725   0.00000  Uiso   1.00
C626   C     0.79274   0.23131   0.94100   0.00000  Uiso   1.00
C627   C     0.86019   0.28138   0.60797   0.00000  Uiso   1.00
C628   C     0.79374   0.23123   0.89040   0.00000  Uiso   1.00
H629   H     0.88151   0.30608   0.63028   0.00000  Uiso   1.00
H630   H     0.76249   0.21617   0.86695   0.00000  Uiso   1.00
N631   N     0.83333   0.25001   0.62935   0.00000  Uiso   1.00
N632   N     0.83333   0.24999   0.87066   0.00000  Uiso   1.00
C633   C     0.80674   0.21848   0.60159   0.00000  Uiso   1.00
C634   C     0.87295   0.26878   0.90022   0.00000  Uiso   1.00
H635   H     0.78564   0.19357   0.61879   0.00000  Uiso   1.00
H636   H     0.90424   0.28375   0.88451   0.00000  Uiso   1.00
C637   C     0.80664   0.21765   0.55085   0.00000  Uiso   1.00
C638   C     0.87396   0.26878   0.95109   0.00000  Uiso   1.00
H639   H     0.78615   0.19131   0.53051   0.00000  Uiso   1.00
H640   H     0.90687   0.28294   0.97311   0.00000  Uiso   1.00
C641   C     0.83341   0.25002   0.52740   0.00000  Uiso   1.00
C642   C     0.83336   0.25006   0.97269   0.00000  Uiso   1.00
O643   O     0.98891   0.23477   0.68520   0.00000  Uiso   1.00
C644   C     0.99121   0.18856   0.67953   0.00000  Uiso   1.00
H645   H     0.97285   0.17077   0.70798   0.00000  Uiso   1.00
H646   H     0.69802   0.17709   0.67998   0.00000  Uiso   1.00
H647   H     0.96976   0.17984   0.64363   0.00000  Uiso   1.00
O648   O     0.67777   0.26405   0.81512   0.00000  Uiso   1.00
C649   C     0.67571   0.31017   0.82154   0.00000  Uiso   1.00
H650   H     0.69689   0.31831   0.85774   0.00000  Uiso   1.00
H651   H     0.96896   0.32181   0.82092   0.00000  Uiso   1.00
H652   H     0.69452   0.32823   0.79360   0.00000  Uiso   1.00
O653   O     0.78920   0.11472   0.82356   0.00000  Uiso   1.00
C654   C     0.73665   0.12170   0.80797   0.00000  Uiso   1.00
H655   H     0.73049   0.14298   0.77473   0.00000  Uiso   1.00
H656   H     0.71997   0.13914   0.83716   0.00000  Uiso   1.00
H657   H     0.71582   0.08983   0.80139   0.00000  Uiso   1.00
O658   O     0.79438   0.38511   0.66400   0.00000  Uiso   1.00
C659   C     0.82318   0.39472   0.62581   0.00000  Uiso   1.00
H660   H     0.81182   0.37124   0.59575   0.00000  Uiso   1.00
H661   H     0.86504   0.39052   0.63743   0.00000  Uiso   1.00
H662   H     0.81483   0.42849   0.61091   0.00000  Uiso   1.00
H663   H     0.86684   0.03070   0.68467   0.00000  Uiso   1.00
H664   H     0.86236   0.46921   0.82610   0.00000  Uiso   1.00
H665   H     0.88086   0.30863   0.54179   0.00000  Uiso   1.00
H666   H     0.75983   0.21716   0.95481   0.00000  Uiso   1.00
O667   O     0.16667   0.68572   0.79072   0.00000  Uiso   1.00
O668   O     0.16666   0.81427   0.70929   0.00000  Uiso   1.00
O669   O     0.16667   0.68573   0.70928   0.00000  Uiso   1.00
O670   O     0.16666   0.81427   0.79072   0.00000  Uiso   1.00
C671   C     0.16597   0.66495   0.75011   0.00000  Uiso   1.00
C672   C     0.16601   0.83513   0.74968   0.00000  Uiso   1.00
O673   O     0.09161   0.74999   0.78132   0.00000  Uiso   1.00
O674   O     0.24172   0.75000   0.71868   0.00000  Uiso   1.00
O675   O     0.09161   0.75000   0.69989   0.00000  Uiso   1.00
O676   O     0.24172   0.75000   0.80012   0.00000  Uiso   1.00
C677   C     0.06811   0.74923   0.73775   0.00000  Uiso   1.00
C678   C     0.26523   0.75053   0.76227   0.00000  Uiso   1.00
Cu679  Cu    0.16667   0.74999   0.79822   0.00000  Uiso   1.00
Cu680  Cu    0.16667   0.75000   0.70179   0.00000  Uiso   1.00
C681   C     0.01321   0.74543   0.73125   0.00000  Uiso   1.00
C682   C     0.32015   0.75396   0.76890   0.00000  Uiso   1.00
C683   C     0.14433   0.54704   0.78722   0.00000  Uiso   1.00
C684   C     0.14718   0.95353   0.70705   0.00000  Uiso   1.00
H685   H     0.12843   0.52905   0.81564   0.00000  Uiso   1.00
H686   H     0.13166   0.97203   0.67482   0.00000  Uiso   1.00
C687   C     0.14317   0.59312   0.78700   0.00000  Uiso   1.00
C688   C     0.14823   0.90730   0.70573   0.00000  Uiso   1.00
C689   C     0.16445   0.61669   0.75036   0.00000  Uiso   1.00
C690   C     0.16515   0.88355   0.74901   0.00000  Uiso   1.00
C691   C     0.18420   0.59372   0.71332   0.00000  Uiso   1.00
C692   C     0.18191   0.90636   0.79216   0.00000  Uiso   1.00
H693   H     0.20044   0.61124   0.68479   0.00000  Uiso   1.00
H694   H     0.19562   0.88870   0.82552   0.00000  Uiso   1.00
C695   C     0.18414   0.54786   0.71326   0.00000  Uiso   1.00
C696   C     0.18186   0.95223   0.79262   0.00000  Uiso   1.00
C697   C     0.16450   0.52433   0.75032   0.00000  Uiso   1.00
C698   C     0.16462   0.97597   0.75006   0.00000  Uiso   1.00
C699   C     0.19362   0.78230   0.55725   0.00000  Uiso   1.00
C700   C     0.12607   0.73131   0.94100   0.00000  Uiso   1.00
C701   C     0.19353   0.78138   0.60797   0.00000  Uiso   1.00
C702   C     0.12707   0.73123   0.89040   0.00000  Uiso   1.00
H703   H     0.21485   0.80608   0.63028   0.00000  Uiso   1.00
H704   H     0.09582   0.71617   0.86695   0.00000  Uiso   1.00
N705   N     0.16667   0.75001   0.62935   0.00000  Uiso   1.00
N706   N     0.16667   0.74999   0.87066   0.00000  Uiso   1.00
C707   C     0.14008   0.71848   0.60159   0.00000  Uiso   1.00
C708   C     0.20628   0.76878   0.90022   0.00000  Uiso   1.00
H709   H     0.11897   0.69357   0.61879   0.00000  Uiso   1.00
H710   H     0.23757   0.78375   0.88451   0.00000  Uiso   1.00
C711   C     0.13997   0.71765   0.55085   0.00000  Uiso   1.00
C712   C     0.20729   0.76878   0.95109   0.00000  Uiso   1.00
H713   H     0.11948   0.69131   0.53051   0.00000  Uiso   1.00
H714   H     0.24021   0.78294   0.97311   0.00000  Uiso   1.00
C715   C     0.16674   0.75002   0.52740   0.00000  Uiso   1.00
C716   C     0.16669   0.75006   0.97269   0.00000  Uiso   1.00
O717   O     0.32224   0.73477   0.68520   0.00000  Uiso   1.00
C718   C     0.32455   0.68856   0.67953   0.00000  Uiso   1.00
H719   H     0.30619   0.67077   0.70798   0.00000  Uiso   1.00
H720   H     0.03135   0.67709   0.67998   0.00000  Uiso   1.00
H721   H     0.30309   0.67984   0.64363   0.00000  Uiso   1.00
O722   O     0.01111   0.76405   0.81512   0.00000  Uiso   1.00
C723   C     0.00904   0.81017   0.82154   0.00000  Uiso   1.00
H724   H     0.03022   0.81831   0.85774   0.00000  Uiso   1.00
H725   H     0.30229   0.82181   0.82092   0.00000  Uiso   1.00
H726   H     0.02786   0.82823   0.79360   0.00000  Uiso   1.00
O727   O     0.12254   0.61472   0.82356   0.00000  Uiso   1.00
C728   C     0.06998   0.62170   0.80797   0.00000  Uiso   1.00
H729   H     0.06382   0.64298   0.77473   0.00000  Uiso   1.00
H730   H     0.05331   0.63914   0.83716   0.00000  Uiso   1.00
H731   H     0.04916   0.58983   0.80139   0.00000  Uiso   1.00
O732   O     0.12771   0.88511   0.66400   0.00000  Uiso   1.00
C733   C     0.15651   0.89472   0.62581   0.00000  Uiso   1.00
H734   H     0.14515   0.87124   0.59575   0.00000  Uiso   1.00
H735   H     0.19837   0.89052   0.63743   0.00000  Uiso   1.00
H736   H     0.14816   0.92849   0.61091   0.00000  Uiso   1.00
H737   H     0.20017   0.53070   0.68467   0.00000  Uiso   1.00
H738   H     0.19569   0.96921   0.82610   0.00000  Uiso   1.00
H739   H     0.21419   0.80863   0.54179   0.00000  Uiso   1.00
H740   H     0.09316   0.71716   0.95481   0.00000  Uiso   1.00
O741   O     0.50000   0.68572   0.79072   0.00000  Uiso   1.00
O742   O     0.50000   0.81427   0.70929   0.00000  Uiso   1.00
O743   O     0.50000   0.68573   0.70928   0.00000  Uiso   1.00
O744   O     0.50000   0.81427   0.79072   0.00000  Uiso   1.00
C745   C     0.49930   0.66495   0.75011   0.00000  Uiso   1.00
C746   C     0.49934   0.83513   0.74968   0.00000  Uiso   1.00
O747   O     0.42495   0.74999   0.78132   0.00000  Uiso   1.00
O748   O     0.57505   0.75000   0.71868   0.00000  Uiso   1.00
O749   O     0.42495   0.75000   0.69989   0.00000  Uiso   1.00
O750   O     0.57505   0.75000   0.80012   0.00000  Uiso   1.00
C751   C     0.40144   0.74923   0.73775   0.00000  Uiso   1.00
C752   C     0.59856   0.75053   0.76227   0.00000  Uiso   1.00
Cu753  Cu    0.50000   0.74999   0.79822   0.00000  Uiso   1.00
Cu754  Cu    0.50000   0.75000   0.70179   0.00000  Uiso   1.00
C755   C     0.34654   0.74543   0.73125   0.00000  Uiso   1.00
C756   C     0.65348   0.75396   0.76890   0.00000  Uiso   1.00
C757   C     0.47767   0.54704   0.78722   0.00000  Uiso   1.00
C758   C     0.48051   0.95353   0.70705   0.00000  Uiso   1.00
H759   H     0.46177   0.52905   0.81564   0.00000  Uiso   1.00
H760   H     0.46499   0.97203   0.67482   0.00000  Uiso   1.00
C761   C     0.47651   0.59312   0.78700   0.00000  Uiso   1.00
C762   C     0.48156   0.90730   0.70573   0.00000  Uiso   1.00
C763   C     0.49778   0.61669   0.75036   0.00000  Uiso   1.00
C764   C     0.49848   0.88355   0.74901   0.00000  Uiso   1.00
C765   C     0.51753   0.59372   0.71332   0.00000  Uiso   1.00
C766   C     0.51524   0.90636   0.79216   0.00000  Uiso   1.00
H767   H     0.53377   0.61124   0.68479   0.00000  Uiso   1.00
H768   H     0.52895   0.88870   0.82552   0.00000  Uiso   1.00
C769   C     0.51747   0.54786   0.71326   0.00000  Uiso   1.00
C770   C     0.51520   0.95223   0.79262   0.00000  Uiso   1.00
C771   C     0.49784   0.52433   0.75032   0.00000  Uiso   1.00
C772   C     0.49795   0.97597   0.75006   0.00000  Uiso   1.00
C773   C     0.52696   0.78230   0.55725   0.00000  Uiso   1.00
C774   C     0.45940   0.73131   0.94100   0.00000  Uiso   1.00
C775   C     0.52686   0.78138   0.60797   0.00000  Uiso   1.00
C776   C     0.46041   0.73123   0.89040   0.00000  Uiso   1.00
H777   H     0.54818   0.80608   0.63028   0.00000  Uiso   1.00
H778   H     0.42915   0.71617   0.86695   0.00000  Uiso   1.00
N779   N     0.50000   0.75001   0.62935   0.00000  Uiso   1.00
N780   N     0.50000   0.74999   0.87066   0.00000  Uiso   1.00
C781   C     0.47341   0.71848   0.60159   0.00000  Uiso   1.00
C782   C     0.53961   0.76878   0.90022   0.00000  Uiso   1.00
H783   H     0.45231   0.69357   0.61879   0.00000  Uiso   1.00
H784   H     0.57091   0.78375   0.88451   0.00000  Uiso   1.00
C785   C     0.47330   0.71765   0.55085   0.00000  Uiso   1.00
C786   C     0.54062   0.76878   0.95109   0.00000  Uiso   1.00
H787   H     0.45281   0.69131   0.53051   0.00000  Uiso   1.00
H788   H     0.57354   0.78294   0.97311   0.00000  Uiso   1.00
C789   C     0.50008   0.75002   0.52740   0.00000  Uiso   1.00
C790   C     0.50002   0.75006   0.97269   0.00000  Uiso   1.00
O791   O     0.65558   0.73477   0.68520   0.00000  Uiso   1.00
C792   C     0.65788   0.68856   0.67953   0.00000  Uiso   1.00
H793   H     0.63952   0.67077   0.70798   0.00000  Uiso   1.00
H794   H     0.36468   0.67709   0.67998   0.00000  Uiso   1.00
H795   H     0.63642   0.67984   0.64363   0.00000  Uiso   1.00
O796   O     0.34444   0.76405   0.81512   0.00000  Uiso   1.00
C797   C     0.34238   0.81017   0.82154   0.00000  Uiso   1.00
H798   H     0.36355   0.81831   0.85774   0.00000  Uiso   1.00
H799   H     0.63562   0.82181   0.82092   0.00000  Uiso   1.00
H800   H     0.36119   0.82823   0.79360   0.00000  Uiso   1.00
O801   O     0.45587   0.61472   0.82356   0.00000  Uiso   1.00
C802   C     0.40332   0.62170   0.80797   0.00000  Uiso   1.00
H803   H     0.39716   0.64298   0.77473   0.00000  Uiso   1.00
H804   H     0.38664   0.63914   0.83716   0.00000  Uiso   1.00
H805   H     0.38249   0.58983   0.80139   0.00000  Uiso   1.00
O806   O     0.46105   0.88511   0.66400   0.00000  Uiso   1.00
C807   C     0.48984   0.89472   0.62581   0.00000  Uiso   1.00
H808   H     0.47849   0.87124   0.59575   0.00000  Uiso   1.00
H809   H     0.53170   0.89052   0.63743   0.00000  Uiso   1.00
H810   H     0.48149   0.92849   0.61091   0.00000  Uiso   1.00
H811   H     0.53351   0.53070   0.68467   0.00000  Uiso   1.00
H812   H     0.52903   0.96921   0.82610   0.00000  Uiso   1.00
H813   H     0.54752   0.80863   0.54179   0.00000  Uiso   1.00
H814   H     0.42650   0.71716   0.95481   0.00000  Uiso   1.00
O815   O     0.83334   0.68572   0.79072   0.00000  Uiso   1.00
O816   O     0.83333   0.81427   0.70929   0.00000  Uiso   1.00
O817   O     0.83334   0.68573   0.70928   0.00000  Uiso   1.00
O818   O     0.83333   0.81427   0.79072   0.00000  Uiso   1.00
C819   C     0.83263   0.66495   0.75011   0.00000  Uiso   1.00
C820   C     0.83267   0.83513   0.74968   0.00000  Uiso   1.00
O821   O     0.75828   0.74999   0.78132   0.00000  Uiso   1.00
O822   O     0.90839   0.75000   0.71868   0.00000  Uiso   1.00
O823   O     0.75828   0.75000   0.69989   0.00000  Uiso   1.00
O824   O     0.90839   0.75000   0.80012   0.00000  Uiso   1.00
C825   C     0.73478   0.74923   0.73775   0.00000  Uiso   1.00
C826   C     0.93189   0.75053   0.76227   0.00000  Uiso   1.00
Cu827  Cu    0.83333   0.74999   0.79822   0.00000  Uiso   1.00
Cu828  Cu    0.83333   0.75000   0.70179   0.00000  Uiso   1.00
C829   C     0.67988   0.74543   0.73125   0.00000  Uiso   1.00
C830   C     0.98681   0.75396   0.76890   0.00000  Uiso   1.00
C831   C     0.81100   0.54704   0.78722   0.00000  Uiso   1.00
C832   C     0.81384   0.95353   0.70705   0.00000  Uiso   1.00
H833   H     0.79510   0.52905   0.81564   0.00000  Uiso   1.00
H834   H     0.79832   0.97203   0.67482   0.00000  Uiso   1.00
C835   C     0.80984   0.59312   0.78700   0.00000  Uiso   1.00
C836   C     0.81489   0.90730   0.70573   0.00000  Uiso   1.00
C837   C     0.83111   0.61669   0.75036   0.00000  Uiso   1.00
C838   C     0.83181   0.88355   0.74901   0.00000  Uiso   1.00
C839   C     0.85086   0.59372   0.71332   0.00000  Uiso   1.00
C840   C     0.84857   0.90636   0.79216   0.00000  Uiso   1.00
H841   H     0.86710   0.61124   0.68479   0.00000  Uiso   1.00
H842   H     0.86229   0.88870   0.82552   0.00000  Uiso   1.00
C843   C     0.85080   0.54786   0.71326   0.00000  Uiso   1.00
C844   C     0.84853   0.95223   0.79262   0.00000  Uiso   1.00
C845   C     0.83117   0.52433   0.75032   0.00000  Uiso   1.00
C846   C     0.83128   0.97597   0.75006   0.00000  Uiso   1.00
C847   C     0.86029   0.78230   0.55725   0.00000  Uiso   1.00
C848   C     0.79274   0.73131   0.94100   0.00000  Uiso   1.00
C849   C     0.86019   0.78138   0.60797   0.00000  Uiso   1.00
C850   C     0.79374   0.73123   0.89040   0.00000  Uiso   1.00
H851   H     0.88151   0.80608   0.63028   0.00000  Uiso   1.00
H852   H     0.76249   0.71617   0.86695   0.00000  Uiso   1.00
N853   N     0.83333   0.75001   0.62935   0.00000  Uiso   1.00
N854   N     0.83333   0.74999   0.87066   0.00000  Uiso   1.00
C855   C     0.80674   0.71848   0.60159   0.00000  Uiso   1.00
C856   C     0.87295   0.76878   0.90022   0.00000  Uiso   1.00
H857   H     0.78564   0.69357   0.61879   0.00000  Uiso   1.00
H858   H     0.90424   0.78375   0.88451   0.00000  Uiso   1.00
C859   C     0.80664   0.71765   0.55085   0.00000  Uiso   1.00
C860   C     0.87396   0.76878   0.95109   0.00000  Uiso   1.00
H861   H     0.78615   0.69131   0.53051   0.00000  Uiso   1.00
H862   H     0.90687   0.78294   0.97311   0.00000  Uiso   1.00
C863   C     0.83341   0.75002   0.52740   0.00000  Uiso   1.00
C864   C     0.83336   0.75006   0.97269   0.00000  Uiso   1.00
O865   O     0.98891   0.73477   0.68520   0.00000  Uiso   1.00
C866   C     0.99121   0.68856   0.67953   0.00000  Uiso   1.00
H867   H     0.97285   0.67077   0.70798   0.00000  Uiso   1.00
H868   H     0.69802   0.67709   0.67998   0.00000  Uiso   1.00
H869   H     0.96976   0.67984   0.64363   0.00000  Uiso   1.00
O870   O     0.67777   0.76405   0.81512   0.00000  Uiso   1.00
C871   C     0.67571   0.81017   0.82154   0.00000  Uiso   1.00
H872   H     0.69689   0.81831   0.85774   0.00000  Uiso   1.00
H873   H     0.96896   0.82181   0.82092   0.00000  Uiso   1.00
H874   H     0.69452   0.82823   0.79360   0.00000  Uiso   1.00
O875   O     0.78920   0.61472   0.82356   0.00000  Uiso   1.00
C876   C     0.73665   0.62170   0.80797   0.00000  Uiso   1.00
H877   H     0.73049   0.64298   0.77473   0.00000  Uiso   1.00
H878   H     0.71997   0.63914   0.83716   0.00000  Uiso   1.00
H879   H     0.71582   0.58983   0.80139   0.00000  Uiso   1.00
O880   O     0.79438   0.88511   0.66400   0.00000  Uiso   1.00
C881   C     0.82318   0.89472   0.62581   0.00000  Uiso   1.00
H882   H     0.81182   0.87124   0.59575   0.00000  Uiso   1.00
H883   H     0.86504   0.89052   0.63743   0.00000  Uiso   1.00
H884   H     0.81483   0.92849   0.61091   0.00000  Uiso   1.00
H885   H     0.86684   0.53070   0.68467   0.00000  Uiso   1.00
H886   H     0.86236   0.96921   0.82610   0.00000  Uiso   1.00
H887   H     0.88086   0.80863   0.54179   0.00000  Uiso   1.00
H888   H     0.75983   0.71716   0.95481   0.00000  Uiso   1.00
loop_
_geom_bond_atom_site_label_1
_geom_bond_atom_site_label_2
_geom_bond_distance
_geom_bond_site_symmetry_2
_ccdc_geom_bond_type
O1     C5      1.291   .     A
O1     Cu13    1.958   .     S
O2     C6      1.292   .     A
O2     Cu14    1.958   .     S
O3     Cu14    1.955   .     S
O3     C5      1.293   .     A
O4     C6      1.294   .     A
O4     Cu13    1.955   .     S
C5     C23     1.461   .     S
C6     C24     1.466   .     S
O7     C11     1.281   .     A
O7     Cu13    1.971   .     S
O8     C12     1.281   .     A
O8     Cu14    1.971   .     S
O9     Cu14    1.973   .     S
O9     C11     1.289   .     A
O10    C12     1.288   .     A
O10    Cu13    1.973   .     S
C11    C15     1.439   .     S
C12    C16     1.439   .     S
Cu13   Cu14    2.672   .     S
Cu13   N40     2.007   .     S
Cu14   N39     2.007   .     S
C15    C164    1.357   1_455 S
C15    O199    1.388   1_455 S
C16    C89     1.357   .     S
C16    O130    1.389   .     S
C17    C31     1.400   .     A
C17    H19     1.084   .     S
C17    C21     1.395   .     A
C18    C32     1.399   .     A
C18    H20     1.083   .     S
C18    C22     1.400   .     A
C21    C23     1.413   .     A
C21    O61     1.382   .     S
C22    C24     1.413   .     A
C22    O66     1.387   .     S
C23    C25     1.402   .     A
C24    C26     1.404   .     A
C25    H27     1.084   .     S
C25    C29     1.388   .     A
C26    H28     1.083   .     S
C26    C30     1.389   .     A
C29    C31     1.400   .     A
C29    H71     1.083   .     S
C30    H72     1.083   .     S
C30    C32     1.399   .     A
C31    C254    1.464   1_545 S
C32    C253    1.464   .     S
C33    H73     1.081   .     S
C33    C35     1.406   .     A
C33    C49     1.412   .     A
C34    H74     1.081   .     S
C34    C36     1.406   .     A
C34    C50     1.411   .     A
C35    N39     1.362   .     A
C35    H37     1.081   .     S
C36    H38     1.081   .     S
C36    N40     1.364   .     A
N39    C41     1.363   .     A
N40    C42     1.364   .     A
C41    H43     1.082   .     S
C41    C45     1.406   .     A
C42    H44     1.081   .     S
C42    C46     1.406   .     A
C45    C49     1.412   .     A
C45    H47     1.081   .     S
C46    C50     1.411   .     A
C46    H48     1.081   .     S
C49    C494    1.516   1_554 S
C50    C493    1.516   .     S
O51    C52     1.411   .     S
O51    C89     1.388   .     S
C52    H55     1.109   .     S
C52    H53     1.114   .     S
C52    H128    1.113   .     S
H54    C200    1.113   1_455 S
O56    C57     1.411   .     S
O56    C164    1.389   1_455 S
C57    H60     1.114   .     S
C57    H58     1.109   .     S
C57    H207    1.113   1_455 S
H59    C131    1.113   .     S
O61    C62     1.410   .     S
C62    H63     1.113   .     S
C62    H64     1.109   .     S
C62    H65     1.113   .     S
O66    C67     1.412   .     S
C67    H70     1.111   .     S
C67    H68     1.109   .     S
C67    H69     1.114   .     S
O75    C79     1.291   .     A
O75    Cu87    1.958   .     S
O76    C80     1.292   .     A
O76    Cu88    1.958   .     S
O77    Cu88    1.955   .     S
O77    C79     1.293   .     A
O78    C80     1.294   .     A
O78    Cu87    1.955   .     S
C79    C97     1.461   .     S
C80    C98     1.466   .     S
O81    C85     1.281   .     A
O81    Cu87    1.971   .     S
O82    C86     1.281   .     A
O82    Cu88    1.971   .     S
O83    Cu88    1.973   .     S
O83    C85     1.289   .     A
O84    C86     1.288   .     A
O84    Cu87    1.973   .     S
C85    C89     1.439   .     S
C86    C90     1.439   .     S
Cu87   Cu88    2.672   .     S
Cu87   N114    2.007   .     S
Cu88   N113    2.007   .     S
C90    C163    1.357   .     S
C90    O204    1.389   .     S
C91    C105    1.400   .     A
C91    H93     1.084   .     S
C91    C95     1.395   .     A
C92    C106    1.399   .     A
C92    H94     1.083   .     S
C92    C96     1.400   .     A
C95    C97     1.413   .     A
C95    O135    1.382   .     S
C96    C98     1.413   .     A
C96    O140    1.387   .     S
C97    C99     1.402   .     A
C98    C100    1.404   .     A
C99    H101    1.084   .     S
C99    C103    1.388   .     A
C100   H102    1.083   .     S
C100   C104    1.389   .     A
C103   C105    1.400   .     A
C103   H145    1.083   .     S
C104   H146    1.083   .     S
C104   C106    1.399   .     A
C105   C328    1.464   1_545 S
C106   C327    1.464   .     S
C107   H147    1.081   .     S
C107   C109    1.406   .     A
C107   C123    1.412   .     A
C108   H148    1.081   .     S
C108   C110    1.406   .     A
C108   C124    1.411   .     A
C109   N113    1.362   .     A
C109   H111    1.081   .     S
C110   H112    1.081   .     S
C110   N114    1.364   .     A
N113   C115    1.363   .     A
N114   C116    1.364   .     A
C115   H117    1.082   .     S
C115   C119    1.406   .     A
C116   H118    1.081   .     S
C116   C120    1.406   .     A
C119   C123    1.412   .     A
C119   H121    1.081   .     S
C120   C124    1.411   .     A
C120   H122    1.081   .     S
C123   C568    1.516   1_554 S
C124   C567    1.516   .     S
O125   C126    1.411   .     S
O125   C163    1.388   .     S
C126   H129    1.109   .     S
C126   H127    1.114   .     S
C126   H202    1.113   .     S
O130   C131    1.411   .     S
C131   H134    1.114   .     S
C131   H132    1.109   .     S
H133   C205    1.113   .     S
O135   C136    1.410   .     S
C136   H137    1.113   .     S
C136   H138    1.109   .     S
C136   H139    1.113   .     S
O140   C141    1.412   .     S
C141   H144    1.111   .     S
C141   H142    1.109   .     S
C141   H143    1.114   .     S
O149   C153    1.291   .     A
O149   Cu161   1.958   .     S
O150   C154    1.292   .     A
O150   Cu162   1.958   .     S
O151   Cu162   1.955   .     S
O151   C153    1.293   .     A
O152   C154    1.294   .     A
O152   Cu161   1.955   .     S
C153   C171    1.461   .     S
C154   C172    1.466   .     S
O155   C159    1.281   .     A
O155   Cu161   1.971   .     S
O156   C160    1.281   .     A
O156   Cu162   1.971   .     S
O157   Cu162   1.973   .     S
O157   C159    1.289   .     A
O158   C160    1.288   .     A
O158   Cu161   1.973   .     S
C159   C163    1.439   .     S
C160   C164    1.439   .     S
Cu161  Cu162   2.672   .     S
Cu161  N188    2.007   .     S
Cu162  N187    2.007   .     S
C164   C15     1.357   1_655 S
C164   O56     1.389   1_655 S
C165   C179    1.400   .     A
C165   H167    1.084   .     S
C165   C169    1.395   .     A
C166   C180    1.399   .     A
C166   H168    1.083   .     S
C166   C170    1.400   .     A
C169   C171    1.413   .     A
C169   O209    1.382   .     S
C170   C172    1.413   .     A
C170   O214    1.387   .     S
C171   C173    1.402   .     A
C172   C174    1.404   .     A
C173   H175    1.084   .     S
C173   C177    1.388   .     A
C174   H176    1.083   .     S
C174   C178    1.389   .     A
C177   C179    1.400   .     A
C177   H219    1.083   .     S
C178   H220    1.083   .     S
C178   C180    1.399   .     A
C179   C402    1.464   1_545 S
C180   C401    1.464   .     S
C181   H221    1.081   .     S
C181   C183    1.406   .     A
C181   C197    1.412   .     A
C182   H222    1.081   .     S
C182   C184    1.406   .     A
C182   C198    1.411   .     A
C183   N187    1.362   .     A
C183   H185    1.081   .     S
C184   H186    1.081   .     S
C184   N188    1.364   .     A
N187   C189    1.363   .     A
N188   C190    1.364   .     A
C189   H191    1.082   .     S
C189   C193    1.406   .     A
C190   H192    1.081   .     S
C190   C194    1.406   .     A
C193   C197    1.412   .     A
C193   H195    1.081   .     S
C194   C198    1.411   .     A
C194   H196    1.081   .     S
C197   C642    1.516   1_554 S
C198   C641    1.516   .     S
O199   C200    1.411   .     S
O199   C15     1.388   1_655 S
C200   H203    1.109   .     S
C200   H201    1.114   .     S
C200   H54     1.113   1_655 S
O204   C205    1.411   .     S
C205   H208    1.114   .     S
C205   H206    1.109   .     S
H207   C57     1.113   1_655 S
O209   C210    1.410   .     S
C210   H211    1.113   .     S
C210   H212    1.109   .     S
C210   H213    1.113   .     S
O214   C215    1.412   .     S
C215   H218    1.111   .     S
C215   H216    1.109   .     S
C215   H217    1.114   .     S
O223   C227    1.291   .     A
O223   Cu235   1.958   .     S
O224   C228    1.292   .     A
O224   Cu236   1.958   .     S
O225   Cu236   1.955   .     S
O225   C227    1.293   .     A
O226   C228    1.294   .     A
O226   Cu235   1.955   .     S
C227   C245    1.461   .     S
C228   C246    1.466   .     S
O229   C233    1.281   .     A
O229   Cu235   1.971   .     S
O230   C234    1.281   .     A
O230   Cu236   1.971   .     S
O231   Cu236   1.973   .     S
O231   C233    1.289   .     A
O232   C234    1.288   .     A
O232   Cu235   1.973   .     S
C233   C237    1.439   .     S
C234   C238    1.439   .     S
Cu235  Cu236   2.672   .     S
Cu235  N262    2.007   .     S
Cu236  N261    2.007   .     S
C237   C386    1.357   1_455 S
C237   O421    1.388   1_455 S
C238   C311    1.357   .     S
C238   O352    1.389   .     S
C239   C253    1.400   .     A
C239   H241    1.084   .     S
C239   C243    1.395   .     A
C240   C254    1.399   .     A
C240   H242    1.083   .     S
C240   C244    1.400   .     A
C243   C245    1.413   .     A
C243   O283    1.382   .     S
C244   C246    1.413   .     A
C244   O288    1.387   .     S
C245   C247    1.402   .     A
C246   C248    1.404   .     A
C247   H249    1.084   .     S
C247   C251    1.388   .     A
C248   H250    1.083   .     S
C248   C252    1.389   .     A
C251   C253    1.400   .     A
C251   H293    1.083   .     S
C252   H294    1.083   .     S
C252   C254    1.399   .     A
C254   C31     1.464   1_565 S
C255   H295    1.081   .     S
C255   C257    1.406   .     A
C255   C271    1.412   .     A
C256   H296    1.081   .     S
C256   C258    1.406   .     A
C256   C272    1.411   .     A
C257   N261    1.362   .     A
C257   H259    1.081   .     S
C258   H260    1.081   .     S
C258   N262    1.364   .     A
N261   C263    1.363   .     A
N262   C264    1.364   .     A
C263   H265    1.082   .     S
C263   C267    1.406   .     A
C264   H266    1.081   .     S
C264   C268    1.406   .     A
C267   C271    1.412   .     A
C267   H269    1.081   .     S
C268   C272    1.411   .     A
C268   H270    1.081   .     S
C271   C716    1.516   1_554 S
C272   C715    1.516   .     S
O273   C274    1.411   .     S
O273   C311    1.388   .     S
C274   H277    1.109   .     S
C274   H275    1.114   .     S
C274   H350    1.113   .     S
H276   C422    1.113   1_455 S
O278   C279    1.411   .     S
O278   C386    1.389   1_455 S
C279   H282    1.114   .     S
C279   H280    1.109   .     S
C279   H429    1.113   1_455 S
H281   C353    1.113   .     S
O283   C284    1.410   .     S
C284   H285    1.113   .     S
C284   H286    1.109   .     S
C284   H287    1.113   .     S
O288   C289    1.412   .     S
C289   H292    1.111   .     S
C289   H290    1.109   .     S
C289   H291    1.114   .     S
O297   C301    1.291   .     A
O297   Cu309   1.958   .     S
O298   C302    1.292   .     A
O298   Cu310   1.958   .     S
O299   Cu310   1.955   .     S
O299   C301    1.293   .     A
O300   C302    1.294   .     A
O300   Cu309   1.955   .     S
C301   C319    1.461   .     S
C302   C320    1.466   .     S
O303   C307    1.281   .     A
O303   Cu309   1.971   .     S
O304   C308    1.281   .     A
O304   Cu310   1.971   .     S
O305   Cu310   1.973   .     S
O305   C307    1.289   .     A
O306   C308    1.288   .     A
O306   Cu309   1.973   .     S
C307   C311    1.439   .     S
C308   C312    1.439   .     S
Cu309  Cu310   2.672   .     S
Cu309  N336    2.007   .     S
Cu310  N335    2.007   .     S
C312   C385    1.357   .     S
C312   O426    1.389   .     S
C313   C327    1.400   .     A
C313   H315    1.084   .     S
C313   C317    1.395   .     A
C314   C328    1.399   .     A
C314   H316    1.083   .     S
C314   C318    1.400   .     A
C317   C319    1.413   .     A
C317   O357    1.382   .     S
C318   C320    1.413   .     A
C318   O362    1.387   .     S
C319   C321    1.402   .     A
C320   C322    1.404   .     A
C321   H323    1.084   .     S
C321   C325    1.388   .     A
C322   H324    1.083   .     S
C322   C326    1.389   .     A
C325   C327    1.400   .     A
C325   H367    1.083   .     S
C326   H368    1.083   .     S
C326   C328    1.399   .     A
C328   C105    1.464   1_565 S
C329   H369    1.081   .     S
C329   C331    1.406   .     A
C329   C345    1.412   .     A
C330   H370    1.081   .     S
C330   C332    1.406   .     A
C330   C346    1.411   .     A
C331   N335    1.362   .     A
C331   H333    1.081   .     S
C332   H334    1.081   .     S
C332   N336    1.364   .     A
N335   C337    1.363   .     A
N336   C338    1.364   .     A
C337   H339    1.082   .     S
C337   C341    1.406   .     A
C338   H340    1.081   .     S
C338   C342    1.406   .     A
C341   C345    1.412   .     A
C341   H343    1.081   .     S
C342   C346    1.411   .     A
C342   H344    1.081   .     S
C345   C790    1.516   1_554 S
C346   C789    1.516   .     S
O347   C348    1.411   .     S
O347   C385    1.388   .     S
C348   H351    1.109   .     S
C348   H349    1.114   .     S
C348   H424    1.113   .     S
O352   C353    1.411   .     S
C353   H356    1.114   .     S
C353   H354    1.109   .     S
H355   C427    1.113   .     S
O357   C358    1.410   .     S
C358   H359    1.113   .     S
C358   H360    1.109   .     S
C358   H361    1.113   .     S
O362   C363    1.412   .     S
C363   H366    1.111   .     S
C363   H364    1.109   .     S
C363   H365    1.114   .     S
O371   C375    1.291   .     A
O371   Cu383   1.958   .     S
O372   C376    1.292   .     A
O372   Cu384   1.958   .     S
O373   Cu384   1.955   .     S
O373   C375    1.293   .     A
O374   C376    1.294   .     A
O374   Cu383   1.955   .     S
C375   C393    1.461   .     S
C376   C394    1.466   .     S
O377   C381    1.281   .     A
O377   Cu383   1.971   .     S
O378   C382    1.281   .     A
O378   Cu384   1.971   .     S
O379   Cu384   1.973   .     S
O379   C381    1.289   .     A
O380   C382    1.288   .     A
O380   Cu383   1.973   .     S
C381   C385    1.439   .     S
C382   C386    1.439   .     S
Cu383  Cu384   2.672   .     S
Cu383  N410    2.007   .     S
Cu384  N409    2.007   .     S
C386   C237    1.357   1_655 S
C386   O278    1.389   1_655 S
C387   C401    1.400   .     A
C387   H389    1.084   .     S
C387   C391    1.395   .     A
C388   C402    1.399   .     A
C388   H390    1.083   .     S
C388   C392    1.400   .     A
C391   C393    1.413   .     A
C391   O431    1.382   .     S
C392   C394    1.413   .     A
C392   O436    1.387   .     S
C393   C395    1.402   .     A
C394   C396    1.404   .     A
C395   H397    1.084   .     S
C395   C399    1.388   .     A
C396   H398    1.083   .     S
C396   C400    1.389   .     A
C399   C401    1.400   .     A
C399   H441    1.083   .     S
C400   H442    1.083   .     S
C400   C402    1.399   .     A
C402   C179    1.464   1_565 S
C403   H443    1.081   .     S
C403   C405    1.406   .     A
C403   C419    1.412   .     A
C404   H444    1.081   .     S
C404   C406    1.406   .     A
C404   C420    1.411   .     A
C405   N409    1.362   .     A
C405   H407    1.081   .     S
C406   H408    1.081   .     S
C406   N410    1.364   .     A
N409   C411    1.363   .     A
N410   C412    1.364   .     A
C411   H413    1.082   .     S
C411   C415    1.406   .     A
C412   H414    1.081   .     S
C412   C416    1.406   .     A
C415   C419    1.412   .     A
C415   H417    1.081   .     S
C416   C420    1.411   .     A
C416   H418    1.081   .     S
C419   C864    1.516   1_554 S
C420   C863    1.516   .     S
O421   C422    1.411   .     S
O421   C237    1.388   1_655 S
C422   H425    1.109   .     S
C422   H423    1.114   .     S
C422   H276    1.113   1_655 S
O426   C427    1.411   .     S
C427   H430    1.114   .     S
C427   H428    1.109   .     S
H429   C279    1.113   1_655 S
O431   C432    1.410   .     S
C432   H433    1.113   .     S
C432   H434    1.109   .     S
C432   H435    1.113   .     S
O436   C437    1.412   .     S
C437   H440    1.111   .     S
C437   H438    1.109   .     S
C437   H439    1.114   .     S
O445   C449    1.291   .     A
O445   Cu457   1.958   .     S
O446   C450    1.292   .     A
O446   Cu458   1.958   .     S
O447   Cu458   1.955   .     S
O447   C449    1.293   .     A
O448   C450    1.294   .     A
O448   Cu457   1.955   .     S
C449   C467    1.461   .     S
C450   C468    1.466   .     S
O451   C455    1.281   .     A
O451   Cu457   1.971   .     S
O452   C456    1.281   .     A
O452   Cu458   1.971   .     S
O453   Cu458   1.973   .     S
O453   C455    1.289   .     A
O454   C456    1.288   .     A
O454   Cu457   1.973   .     S
C455   C459    1.439   .     S
C456   C460    1.439   .     S
Cu457  Cu458   2.672   .     S
Cu457  N484    2.007   .     S
Cu458  N483    2.007   .     S
C459   C608    1.357   1_455 S
C459   O643    1.388   1_455 S
C460   C533    1.357   .     S
C460   O574    1.389   .     S
C461   C475    1.400   .     A
C461   H463    1.084   .     S
C461   C465    1.395   .     A
C462   C476    1.399   .     A
C462   H464    1.083   .     S
C462   C466    1.400   .     A
C465   C467    1.413   .     A
C465   O505    1.382   .     S
C466   C468    1.413   .     A
C466   O510    1.387   .     S
C467   C469    1.402   .     A
C468   C470    1.404   .     A
C469   H471    1.084   .     S
C469   C473    1.388   .     A
C470   H472    1.083   .     S
C470   C474    1.389   .     A
C473   C475    1.400   .     A
C473   H515    1.083   .     S
C474   H516    1.083   .     S
C474   C476    1.399   .     A
C475   C698    1.464   1_545 S
C476   C697    1.464   .     S
C477   H517    1.081   .     S
C477   C479    1.406   .     A
C477   C493    1.412   .     A
C478   H518    1.081   .     S
C478   C480    1.406   .     A
C478   C494    1.411   .     A
C479   N483    1.362   .     A
C479   H481    1.081   .     S
C480   H482    1.081   .     S
C480   N484    1.364   .     A
N483   C485    1.363   .     A
N484   C486    1.364   .     A
C485   H487    1.082   .     S
C485   C489    1.406   .     A
C486   H488    1.081   .     S
C486   C490    1.406   .     A
C489   C493    1.412   .     A
C489   H491    1.081   .     S
C490   C494    1.411   .     A
C490   H492    1.081   .     S
C494   C49     1.516   1_556 S
O495   C496    1.411   .     S
O495   C533    1.388   .     S
C496   H499    1.109   .     S
C496   H497    1.114   .     S
C496   H572    1.113   .     S
H498   C644    1.113   1_455 S
O500   C501    1.411   .     S
O500   C608    1.389   1_455 S
C501   H504    1.114   .     S
C501   H502    1.109   .     S
C501   H651    1.113   1_455 S
H503   C575    1.113   .     S
O505   C506    1.410   .     S
C506   H507    1.113   .     S
C506   H508    1.109   .     S
C506   H509    1.113   .     S
O510   C511    1.412   .     S
C511   H514    1.111   .     S
C511   H512    1.109   .     S
C511   H513    1.114   .     S
O519   C523    1.291   .     A
O519   Cu531   1.958   .     S
O520   C524    1.292   .     A
O520   Cu532   1.958   .     S
O521   Cu532   1.955   .     S
O521   C523    1.293   .     A
O522   C524    1.294   .     A
O522   Cu531   1.955   .     S
C523   C541    1.461   .     S
C524   C542    1.466   .     S
O525   C529    1.281   .     A
O525   Cu531   1.971   .     S
O526   C530    1.281   .     A
O526   Cu532   1.971   .     S
O527   Cu532   1.973   .     S
O527   C529    1.289   .     A
O528   C530    1.288   .     A
O528   Cu531   1.973   .     S
C529   C533    1.439   .     S
C530   C534    1.439   .     S
Cu531  Cu532   2.672   .     S
Cu531  N558    2.007   .     S
Cu532  N557    2.007   .     S
C534   C607    1.357   .     S
C534   O648    1.389   .     S
C535   C549    1.400   .     A
C535   H537    1.084   .     S
C535   C539    1.395   .     A
C536   C550    1.399   .     A
C536   H538    1.083   .     S
C536   C540    1.400   .     A
C539   C541    1.413   .     A
C539   O579    1.382   .     S
C540   C542    1.413   .     A
C540   O584    1.387   .     S
C541   C543    1.402   .     A
C542   C544    1.404   .     A
C543   H545    1.084   .     S
C543   C547    1.388   .     A
C544   H546    1.083   .     S
C544   C548    1.389   .     A
C547   C549    1.400   .     A
C547   H589    1.083   .     S
C548   H590    1.083   .     S
C548   C550    1.399   .     A
C549   C772    1.464   1_545 S
C550   C771    1.464   .     S
C551   H591    1.081   .     S
C551   C553    1.406   .     A
C551   C567    1.412   .     A
C552   H592    1.081   .     S
C552   C554    1.406   .     A
C552   C568    1.411   .     A
C553   N557    1.362   .     A
C553   H555    1.081   .     S
C554   H556    1.081   .     S
C554   N558    1.364   .     A
N557   C559    1.363   .     A
N558   C560    1.364   .     A
C559   H561    1.082   .     S
C559   C563    1.406   .     A
C560   H562    1.081   .     S
C560   C564    1.406   .     A
C563   C567    1.412   .     A
C563   H565    1.081   .     S
C564   C568    1.411   .     A
C564   H566    1.081   .     S
C568   C123    1.516   1_556 S
O569   C570    1.411   .     S
O569   C607    1.388   .     S
C570   H573    1.109   .     S
C570   H571    1.114   .     S
C570   H646    1.113   .     S
O574   C575    1.411   .     S
C575   H578    1.114   .     S
C575   H576    1.109   .     S
H577   C649    1.113   .     S
O579   C580    1.410   .     S
C580   H581    1.113   .     S
C580   H582    1.109   .     S
C580   H583    1.113   .     S
O584   C585    1.412   .     S
C585   H588    1.111   .     S
C585   H586    1.109   .     S
C585   H587    1.114   .     S
O593   C597    1.291   .     A
O593   Cu605   1.958   .     S
O594   C598    1.292   .     A
O594   Cu606   1.958   .     S
O595   Cu606   1.955   .     S
O595   C597    1.293   .     A
O596   C598    1.294   .     A
O596   Cu605   1.955   .     S
C597   C615    1.461   .     S
C598   C616    1.466   .     S
O599   C603    1.281   .     A
O599   Cu605   1.971   .     S
O600   C604    1.281   .     A
O600   Cu606   1.971   .     S
O601   Cu606   1.973   .     S
O601   C603    1.289   .     A
O602   C604    1.288   .     A
O602   Cu605   1.973   .     S
C603   C607    1.439   .     S
C604   C608    1.439   .     S
Cu605  Cu606   2.672   .     S
Cu605  N632    2.007   .     S
Cu606  N631    2.007   .     S
C608   C459    1.357   1_655 S
C608   O500    1.389   1_655 S
C609   C623    1.400   .     A
C609   H611    1.084   .     S
C609   C613    1.395   .     A
C610   C624    1.399   .     A
C610   H612    1.083   .     S
C610   C614    1.400   .     A
C613   C615    1.413   .     A
C613   O653    1.382   .     S
C614   C616    1.413   .     A
C614   O658    1.387   .     S
C615   C617    1.402   .     A
C616   C618    1.404   .     A
C617   H619    1.084   .     S
C617   C621    1.388   .     A
C618   H620    1.083   .     S
C618   C622    1.389   .     A
C621   C623    1.400   .     A
C621   H663    1.083   .     S
C622   H664    1.083   .     S
C622   C624    1.399   .     A
C623   C846    1.464   1_545 S
C624   C845    1.464   .     S
C625   H665    1.081   .     S
C625   C627    1.406   .     A
C625   C641    1.412   .     A
C626   H666    1.081   .     S
C626   C628    1.406   .     A
C626   C642    1.411   .     A
C627   N631    1.362   .     A
C627   H629    1.081   .     S
C628   H630    1.081   .     S
C628   N632    1.364   .     A
N631   C633    1.363   .     A
N632   C634    1.364   .     A
C633   H635    1.082   .     S
C633   C637    1.406   .     A
C634   H636    1.081   .     S
C634   C638    1.406   .     A
C637   C641    1.412   .     A
C637   H639    1.081   .     S
C638   C642    1.411   .     A
C638   H640    1.081   .     S
C642   C197    1.516   1_556 S
O643   C644    1.411   .     S
O643   C459    1.388   1_655 S
C644   H647    1.109   .     S
C644   H645    1.114   .     S
C644   H498    1.113   1_655 S
O648   C649    1.411   .     S
C649   H652    1.114   .     S
C649   H650    1.109   .     S
H651   C501    1.113   1_655 S
O653   C654    1.410   .     S
C654   H655    1.113   .     S
C654   H656    1.109   .     S
C654   H657    1.113   .     S
O658   C659    1.412   .     S
C659   H662    1.111   .     S
C659   H660    1.109   .     S
C659   H661    1.114   .     S
O667   C671    1.291   .     A
O667   Cu679   1.958   .     S
O668   C672    1.292   .     A
O668   Cu680   1.958   .     S
O669   Cu680   1.955   .     S
O669   C671    1.293   .     A
O670   C672    1.294   .     A
O670   Cu679   1.955   .     S
C671   C689    1.461   .     S
C672   C690    1.466   .     S
O673   C677    1.281   .     A
O673   Cu679   1.971   .     S
O674   C678    1.281   .     A
O674   Cu680   1.971   .     S
O675   Cu680   1.973   .     S
O675   C677    1.289   .     A
O676   C678    1.288   .     A
O676   Cu679   1.973   .     S
C677   C681    1.439   .     S
C678   C682    1.439   .     S
Cu679  Cu680   2.672   .     S
Cu679  N706    2.007   .     S
Cu680  N705    2.007   .     S
C681   C830    1.357   1_455 S
C681   O865    1.388   1_455 S
C682   C755    1.357   .     S
C682   O796    1.389   .     S
C683   C697    1.400   .     A
C683   H685    1.084   .     S
C683   C687    1.395   .     A
C684   C698    1.399   .     A
C684   H686    1.083   .     S
C684   C688    1.400   .     A
C687   C689    1.413   .     A
C687   O727    1.382   .     S
C688   C690    1.413   .     A
C688   O732    1.387   .     S
C689   C691    1.402   .     A
C690   C692    1.404   .     A
C691   H693    1.084   .     S
C691   C695    1.388   .     A
C692   H694    1.083   .     S
C692   C696    1.389   .     A
C695   C697    1.400   .     A
C695   H737    1.083   .     S
C696   H738    1.083   .     S
C696   C698    1.399   .     A
C698   C475    1.464   1_565 S
C699   H739    1.081   .     S
C699   C701    1.406   .     A
C699   C715    1.412   .     A
C700   H740    1.081   .     S
C700   C702    1.406   .     A
C700   C716    1.411   .     A
C701   N705    1.362   .     A
C701   H703    1.081   .     S
C702   H704    1.081   .     S
C702   N706    1.364   .     A
N705   C707    1.363   .     A
N706   C708    1.364   .     A
C707   H709    1.082   .     S
C707   C711    1.406   .     A
C708   H710    1.081   .     S
C708   C712    1.406   .     A
C711   C715    1.412   .     A
C711   H713    1.081   .     S
C712   C716    1.411   .     A
C712   H714    1.081   .     S
C716   C271    1.516   1_556 S
O717   C718    1.411   .     S
O717   C755    1.388   .     S
C718   H721    1.109   .     S
C718   H719    1.114   .     S
C718   H794    1.113   .     S
H720   C866    1.113   1_455 S
O722   C723    1.411   .     S
O722   C830    1.389   1_455 S
C723   H726    1.114   .     S
C723   H724    1.109   .     S
C723   H873    1.113   1_455 S
H725   C797    1.113   .     S
O727   C728    1.410   .     S
C728   H729    1.113   .     S
C728   H730    1.109   .     S
C728   H731    1.113   .     S
O732   C733    1.412   .     S
C733   H736    1.111   .     S
C733   H734    1.109   .     S
C733   H735    1.114   .     S
O741   C745    1.291   .     A
O741   Cu753   1.958   .     S
O742   C746    1.292   .     A
O742   Cu754   1.958   .     S
O743   Cu754   1.955   .     S
O743   C745    1.293   .     A
O744   C746    1.294   .     A
O744   Cu753   1.955   .     S
C745   C763    1.461   .     S
C746   C764    1.466   .     S
O747   C751    1.281   .     A
O747   Cu753   1.971   .     S
O748   C752    1.281   .     A
O748   Cu754   1.971   .     S
O749   Cu754   1.973   .     S
O749   C751    1.289   .     A
O750   C752    1.288   .     A
O750   Cu753   1.973   .     S
C751   C755    1.439   .     S
C752   C756    1.439   .     S
Cu753  Cu754   2.672   .     S
Cu753  N780    2.007   .     S
Cu754  N779    2.007   .     S
C756   C829    1.357   .     S
C756   O870    1.389   .     S
C757   C771    1.400   .     A
C757   H759    1.084   .     S
C757   C761    1.395   .     A
C758   C772    1.399   .     A
C758   H760    1.083   .     S
C758   C762    1.400   .     A
C761   C763    1.413   .     A
C761   O801    1.382   .     S
C762   C764    1.413   .     A
C762   O806    1.387   .     S
C763   C765    1.402   .     A
C764   C766    1.404   .     A
C765   H767    1.084   .     S
C765   C769    1.388   .     A
C766   H768    1.083   .     S
C766   C770    1.389   .     A
C769   C771    1.400   .     A
C769   H811    1.083   .     S
C770   H812    1.083   .     S
C770   C772    1.399   .     A
C772   C549    1.464   1_565 S
C773   H813    1.081   .     S
C773   C775    1.406   .     A
C773   C789    1.412   .     A
C774   H814    1.081   .     S
C774   C776    1.406   .     A
C774   C790    1.411   .     A
C775   N779    1.362   .     A
C775   H777    1.081   .     S
C776   H778    1.081   .     S
C776   N780    1.364   .     A
N779   C781    1.363   .     A
N780   C782    1.364   .     A
C781   H783    1.082   .     S
C781   C785    1.406   .     A
C782   H784    1.081   .     S
C782   C786    1.406   .     A
C785   C789    1.412   .     A
C785   H787    1.081   .     S
C786   C790    1.411   .     A
C786   H788    1.081   .     S
C790   C345    1.516   1_556 S
O791   C792    1.411   .     S
O791   C829    1.388   .     S
C792   H795    1.109   .     S
C792   H793    1.114   .     S
C792   H868    1.113   .     S
O796   C797    1.411   .     S
C797   H800    1.114   .     S
C797   H798    1.109   .     S
H799   C871    1.113   .     S
O801   C802    1.410   .     S
C802   H803    1.113   .     S
C802   H804    1.109   .     S
C802   H805    1.113   .     S
O806   C807    1.412   .     S
C807   H810    1.111   .     S
C807   H808    1.109   .     S
C807   H809    1.114   .     S
O815   C819    1.291   .     A
O815   Cu827   1.958   .     S
O816   C820    1.292   .     A
O816   Cu828   1.958   .     S
O817   Cu828   1.955   .     S
O817   C819    1.293   .     A
O818   C820    1.294   .     A
O818   Cu827   1.955   .     S
C819   C837    1.461   .     S
C820   C838    1.466   .     S
O821   C825    1.281   .     A
O821   Cu827   1.971   .     S
O822   C826    1.281   .     A
O822   Cu828   1.971   .     S
O823   Cu828   1.973   .     S
O823   C825    1.289   .     A
O824   C826    1.288   .     A
O824   Cu827   1.973   .     S
C825   C829    1.439   .     S
C826   C830    1.439   .     S
Cu827  Cu828   2.672   .     S
Cu827  N854    2.007   .     S
Cu828  N853    2.007   .     S
C830   C681    1.357   1_655 S
C830   O722    1.389   1_655 S
C831   C845    1.400   .     A
C831   H833    1.084   .     S
C831   C835    1.395   .     A
C832   C846    1.399   .     A
C832   H834    1.083   .     S
C832   C836    1.400   .     A
C835   C837    1.413   .     A
C835   O875    1.382   .     S
C836   C838    1.413   .     A
C836   O880    1.387   .     S
C837   C839    1.402   .     A
C838   C840    1.404   .     A
C839   H841    1.084   .     S
C839   C843    1.388   .     A
C840   H842    1.083   .     S
C840   C844    1.389   .     A
C843   C845    1.400   .     A
C843   H885    1.083   .     S
C844   H886    1.083   .     S
C844   C846    1.399   .     A
C846   C623    1.464   1_565 S
C847   H887    1.081   .     S
C847   C849    1.406   .     A
C847   C863    1.412   .     A
C848   H888    1.081   .     S
C848   C850    1.406   .     A
C848   C864    1.411   .     A
C849   N853    1.362   .     A
C849   H851    1.081   .     S
C850   H852    1.081   .     S
C850   N854    1.364   .     A
N853   C855    1.363   .     A
N854   C856    1.364   .     A
C855   H857    1.082   .     S
C855   C859    1.406   .     A
C856   H858    1.081   .     S
C856   C860    1.406   .     A
C859   C863    1.412   .     A
C859   H861    1.081   .     S
C860   C864    1.411   .     A
C860   H862    1.081   .     S
C864   C419    1.516   1_556 S
O865   C866    1.411   .     S
O865   C681    1.388   1_655 S
C866   H869    1.109   .     S
C866   H867    1.114   .     S
C866   H720    1.113   1_655 S
O870   C871    1.411   .     S
C871   H874    1.114   .     S
C871   H872    1.109   .     S
H873   C723    1.113   1_655 S
O875   C876    1.410   .     S
C876   H877    1.113   .     S
C876   H878    1.109   .     S
C876   H879    1.113   .     S
O880   C881    1.412   .     S
C881   H884    1.111   .     S
C881   H882    1.109   .     S
C881   H883    1.114   .     S
