data_str_m3_o2_o10_pcu_sym.68
_audit_creation_date              2020-01-03
_audit_creation_method            'Materials Studio'
_symmetry_space_group_name_H-M    'P1'
_symmetry_Int_Tables_number       1
_symmetry_cell_setting            triclinic
loop_
_symmetry_equiv_pos_as_xyz
  x,y,z
_cell_length_a                    26.3973
_cell_length_b                    29.6344
_cell_length_c                    28.3065
_cell_angle_alpha                 91.0335
_cell_angle_beta                  96.7440
_cell_angle_gamma                 89.6059
loop_
_atom_site_label
_atom_site_type_symbol
_atom_site_fract_x
_atom_site_fract_y
_atom_site_fract_z
_atom_site_U_iso_or_equiv
_atom_site_adp_type
_atom_site_occupancy
C1     C     0.16545   0.16275   0.24926   0.00000  Uiso   1.00
C2     C     0.14322   0.21690   0.44488   0.00000  Uiso   1.00
C3     C     0.15960   0.25467   0.02602   0.00000  Uiso   1.00
C4     C     0.16036   0.25495   0.47258   0.00000  Uiso   1.00
C5     C     0.06758   0.24955   0.23808   0.00000  Uiso   1.00
C6     C     0.26602   0.24877   0.26159   0.00000  Uiso   1.00
C7     C     0.01413   0.25400   0.23150   0.00000  Uiso   1.00
C8     C     0.31959   0.24082   0.26631   0.00000  Uiso   1.00
C9     C     0.20134   0.04192   0.27877   0.00000  Uiso   1.00
C10    C     0.15604   0.45596   0.21027   0.00000  Uiso   1.00
C11    C     0.18471   0.08570   0.28611   0.00000  Uiso   1.00
C12    C     0.16962   0.33674   0.25057   0.00000  Uiso   1.00
C13    C     0.14438   0.41163   0.21801   0.00000  Uiso   1.00
C14    C     0.16904   0.11269   0.24597   0.00000  Uiso   1.00
C15    C     0.17747   0.38589   0.24995   0.00000  Uiso   1.00
C16    C     0.16444   0.09187   0.19973   0.00000  Uiso   1.00
C17    C     0.22316   0.40581   0.27300   0.00000  Uiso   1.00
C18    C     0.18849   0.05001   0.19317   0.00000  Uiso   1.00
C19    C     0.23828   0.44838   0.25778   0.00000  Uiso   1.00
C20    C     0.20339   0.02393   0.23324   0.00000  Uiso   1.00
C21    C     0.20227   0.47459   0.22976   0.00000  Uiso   1.00
C22    C     0.06897   0.22348   0.02216   0.00000  Uiso   1.00
C23    C     0.11924   0.23581   0.04859   0.00000  Uiso   1.00
C24    C     0.04296   0.25362   0.48979   0.00000  Uiso   1.00
C25    C     0.32811   0.24277   0.46652   0.00000  Uiso   1.00
C26    C     0.30505   0.20213   0.47577   0.00000  Uiso   1.00
C27    C     0.33037   0.17201   0.00793   0.00000  Uiso   1.00
C28    C     0.04539   0.18254   0.03103   0.00000  Uiso   1.00
C29    C     0.19330   0.33593   0.47162   0.00000  Uiso   1.00
C30    C     0.15783   0.35900   0.49674   0.00000  Uiso   1.00
C31    C     0.16991   0.40102   0.01821   0.00000  Uiso   1.00
C32    C     0.21723   0.42059   0.01447   0.00000  Uiso   1.00
C33    C     0.25260   0.39814   0.48931   0.00000  Uiso   1.00
C34    C     0.18047   0.29140   0.44846   0.00000  Uiso   1.00
C35    C     0.24075   0.35605   0.46790   0.00000  Uiso   1.00
C36    C     0.12531   0.23233   0.09885   0.00000  Uiso   1.00
C37    C     0.18539   0.28646   0.39954   0.00000  Uiso   1.00
C38    C     0.20065   0.27429   0.10504   0.00000  Uiso   1.00
C39    C     0.14446   0.21621   0.39555   0.00000  Uiso   1.00
C40    C     0.20085   0.27320   0.05582   0.00000  Uiso   1.00
H41    H     0.20915   0.01991   0.30887   0.00000  Uiso   1.00
H42    H     0.29090   0.19486   0.36722   0.00000  Uiso   1.00
H43    H     0.21448   0.13889   0.40213   0.00000  Uiso   1.00
H44    H     0.11688   0.38710   0.12046   0.00000  Uiso   1.00
H45    H     0.04984   0.15256   0.14853   0.00000  Uiso   1.00
H46    H     0.19748   0.42248   0.36825   0.00000  Uiso   1.00
H47    H     0.25978   0.48820   0.10943   0.00000  Uiso   1.00
H48    H     0.01771   0.01332   0.23731   0.00000  Uiso   1.00
H49    H     0.05963   0.28569   0.48283   0.00000  Uiso   1.00
H50    H     0.30854   0.26592   0.44139   0.00000  Uiso   1.00
H51    H     0.26756   0.19404   0.45804   0.00000  Uiso   1.00
H52    H     0.12779   0.47690   0.19014   0.00000  Uiso   1.00
H53    H     0.31248   0.14048   0.01505   0.00000  Uiso   1.00
H54    H     0.06439   0.15870   0.05573   0.00000  Uiso   1.00
H55    H     0.12082   0.34457   0.49964   0.00000  Uiso   1.00
H56    H     0.14248   0.41853   0.03758   0.00000  Uiso   1.00
H57    H     0.22638   0.45323   0.03085   0.00000  Uiso   1.00
H58    H     0.28920   0.41339   0.48631   0.00000  Uiso   1.00
H59    H     0.26860   0.33919   0.44853   0.00000  Uiso   1.00
H60    H     0.09516   0.21791   0.11636   0.00000  Uiso   1.00
H61    H     0.20223   0.31263   0.38127   0.00000  Uiso   1.00
H62    H     0.22715   0.29551   0.12597   0.00000  Uiso   1.00
H63    H     0.12731   0.18868   0.37456   0.00000  Uiso   1.00
H64    H     0.23281   0.28822   0.04144   0.00000  Uiso   1.00
H65    H     0.12830   0.18778   0.46105   0.00000  Uiso   1.00
H66    H     0.01524   0.30357   0.11174   0.00000  Uiso   1.00
N67    N     0.16667   0.24999   0.12624   0.00000  Uiso   1.00
N68    N     0.16667   0.25001   0.37376   0.00000  Uiso   1.00
O69    O     0.16667   0.18454   0.28974   0.00000  Uiso   1.00
O70    O     0.28939   0.31799   0.18585   0.00000  Uiso   1.00
O71    O     0.03406   0.29670   0.14319   0.00000  Uiso   1.00
O72    O     0.04774   0.17276   0.30090   0.00000  Uiso   1.00
O73    O     0.03603   0.23701   0.35468   0.00000  Uiso   1.00
O74    O     0.29630   0.17893   0.33714   0.00000  Uiso   1.00
O75    O     0.11839   0.11302   0.34467   0.00000  Uiso   1.00
O76    O     0.18352   0.05978   0.37695   0.00000  Uiso   1.00
O77    O     0.21146   0.14204   0.36714   0.00000  Uiso   1.00
O78    O     0.06322   0.35816   0.21944   0.00000  Uiso   1.00
O79    O     0.04931   0.42819   0.17527   0.00000  Uiso   1.00
O80    O     0.16666   0.31547   0.21026   0.00000  Uiso   1.00
O81    O     0.09992   0.36409   0.13802   0.00000  Uiso   1.00
O82    O     0.14631   0.13684   0.11807   0.00000  Uiso   1.00
O83    O     0.08997   0.07344   0.12848   0.00000  Uiso   1.00
O84    O     0.07654   0.14705   0.17546   0.00000  Uiso   1.00
O85    O     0.26588   0.33678   0.32438   0.00000  Uiso   1.00
O86    O     0.29505   0.41117   0.35220   0.00000  Uiso   1.00
O87    O     0.20364   0.38963   0.36486   0.00000  Uiso   1.00
O88    O     0.15524   0.00660   0.11044   0.00000  Uiso   1.00
O89    O     0.21569   0.06850   0.10672   0.00000  Uiso   1.00
O90    O     0.24989   0.49258   0.14188   0.00000  Uiso   1.00
O91    O     0.16667   0.18453   0.21026   0.00000  Uiso   1.00
O92    O     0.30694   0.49441   0.31782   0.00000  Uiso   1.00
O93    O     0.00573   0.43071   0.27300   0.00000  Uiso   1.00
O94    O     0.31490   0.00480   0.22847   0.00000  Uiso   1.00
O95    O     0.16666   0.31547   0.28974   0.00000  Uiso   1.00
O96    O     0.09058   0.25000   0.28045   0.00000  Uiso   1.00
O97    O     0.24275   0.25000   0.21955   0.00000  Uiso   1.00
O98    O     0.09058   0.25000   0.20097   0.00000  Uiso   1.00
O99    O     0.24275   0.25001   0.29903   0.00000  Uiso   1.00
O100   O     0.29386   0.24187   0.14729   0.00000  Uiso   1.00
S101   S     0.32288   0.27846   0.17602   0.00000  Uiso   1.00
S102   S     0.01024   0.20697   0.31585   0.00000  Uiso   1.00
S103   S     0.17337   0.09974   0.34509   0.00000  Uiso   1.00
S104   S     0.08662   0.39057   0.18816   0.00000  Uiso   1.00
S105   S     0.11892   0.11223   0.15332   0.00000  Uiso   1.00
S106   S     0.24997   0.38514   0.32908   0.00000  Uiso   1.00
S107   S     0.20127   0.02980   0.13593   0.00000  Uiso   1.00
S108   S     0.30160   0.46925   0.27093   0.00000  Uiso   1.00
Zn109  Zn    0.16667   0.25001   0.30307   0.00000  Uiso   1.00
Zn110  Zn    0.16667   0.25000   0.19693   0.00000  Uiso   1.00
C111   C     0.49878   0.16275   0.24926   0.00000  Uiso   1.00
C112   C     0.47655   0.21690   0.44488   0.00000  Uiso   1.00
C113   C     0.49293   0.25467   0.02602   0.00000  Uiso   1.00
C114   C     0.49369   0.25495   0.47258   0.00000  Uiso   1.00
C115   C     0.40091   0.24955   0.23808   0.00000  Uiso   1.00
C116   C     0.59935   0.24877   0.26159   0.00000  Uiso   1.00
C117   C     0.34746   0.25400   0.23150   0.00000  Uiso   1.00
C118   C     0.65292   0.24082   0.26631   0.00000  Uiso   1.00
C119   C     0.53467   0.04192   0.27877   0.00000  Uiso   1.00
C120   C     0.48938   0.45596   0.21027   0.00000  Uiso   1.00
C121   C     0.51804   0.08570   0.28611   0.00000  Uiso   1.00
C122   C     0.50295   0.33674   0.25057   0.00000  Uiso   1.00
C123   C     0.47771   0.41163   0.21801   0.00000  Uiso   1.00
C124   C     0.50238   0.11269   0.24597   0.00000  Uiso   1.00
C125   C     0.51080   0.38589   0.24995   0.00000  Uiso   1.00
C126   C     0.49777   0.09187   0.19973   0.00000  Uiso   1.00
C127   C     0.55650   0.40581   0.27300   0.00000  Uiso   1.00
C128   C     0.52182   0.05001   0.19317   0.00000  Uiso   1.00
C129   C     0.57161   0.44838   0.25778   0.00000  Uiso   1.00
C130   C     0.53673   0.02393   0.23324   0.00000  Uiso   1.00
C131   C     0.53560   0.47459   0.22976   0.00000  Uiso   1.00
C132   C     0.40231   0.22348   0.02216   0.00000  Uiso   1.00
C133   C     0.45257   0.23581   0.04859   0.00000  Uiso   1.00
C134   C     0.37629   0.25362   0.48979   0.00000  Uiso   1.00
C135   C     0.66145   0.24277   0.46652   0.00000  Uiso   1.00
C136   C     0.63838   0.20213   0.47577   0.00000  Uiso   1.00
C137   C     0.66370   0.17201   0.00793   0.00000  Uiso   1.00
C138   C     0.37872   0.18254   0.03103   0.00000  Uiso   1.00
C139   C     0.52663   0.33593   0.47162   0.00000  Uiso   1.00
C140   C     0.49116   0.35900   0.49674   0.00000  Uiso   1.00
C141   C     0.50324   0.40102   0.01821   0.00000  Uiso   1.00
C142   C     0.55056   0.42059   0.01447   0.00000  Uiso   1.00
C143   C     0.58593   0.39814   0.48931   0.00000  Uiso   1.00
C144   C     0.51380   0.29140   0.44846   0.00000  Uiso   1.00
C145   C     0.57408   0.35605   0.46790   0.00000  Uiso   1.00
C146   C     0.45865   0.23233   0.09885   0.00000  Uiso   1.00
C147   C     0.51873   0.28646   0.39954   0.00000  Uiso   1.00
C148   C     0.53399   0.27429   0.10504   0.00000  Uiso   1.00
C149   C     0.47780   0.21621   0.39555   0.00000  Uiso   1.00
C150   C     0.53419   0.27320   0.05582   0.00000  Uiso   1.00
H151   H     0.54249   0.01991   0.30887   0.00000  Uiso   1.00
H152   H     0.62423   0.19486   0.36722   0.00000  Uiso   1.00
H153   H     0.54781   0.13889   0.40213   0.00000  Uiso   1.00
H154   H     0.45021   0.38710   0.12046   0.00000  Uiso   1.00
H155   H     0.38317   0.15256   0.14853   0.00000  Uiso   1.00
H156   H     0.53082   0.42248   0.36825   0.00000  Uiso   1.00
H157   H     0.59312   0.48820   0.10943   0.00000  Uiso   1.00
H158   H     0.35104   0.01332   0.23731   0.00000  Uiso   1.00
H159   H     0.39296   0.28569   0.48283   0.00000  Uiso   1.00
H160   H     0.64188   0.26592   0.44139   0.00000  Uiso   1.00
H161   H     0.60089   0.19404   0.45804   0.00000  Uiso   1.00
H162   H     0.46113   0.47690   0.19014   0.00000  Uiso   1.00
H163   H     0.64581   0.14048   0.01505   0.00000  Uiso   1.00
H164   H     0.39772   0.15870   0.05573   0.00000  Uiso   1.00
H165   H     0.45415   0.34457   0.49964   0.00000  Uiso   1.00
H166   H     0.47582   0.41853   0.03758   0.00000  Uiso   1.00
H167   H     0.55972   0.45323   0.03085   0.00000  Uiso   1.00
H168   H     0.62253   0.41339   0.48631   0.00000  Uiso   1.00
H169   H     0.60193   0.33919   0.44853   0.00000  Uiso   1.00
H170   H     0.42850   0.21791   0.11636   0.00000  Uiso   1.00
H171   H     0.53556   0.31263   0.38127   0.00000  Uiso   1.00
H172   H     0.56048   0.29551   0.12597   0.00000  Uiso   1.00
H173   H     0.46065   0.18868   0.37456   0.00000  Uiso   1.00
H174   H     0.56615   0.28822   0.04144   0.00000  Uiso   1.00
H175   H     0.46164   0.18778   0.46105   0.00000  Uiso   1.00
H176   H     0.34857   0.30357   0.11174   0.00000  Uiso   1.00
N177   N     0.50000   0.24999   0.12624   0.00000  Uiso   1.00
N178   N     0.50000   0.25001   0.37376   0.00000  Uiso   1.00
O179   O     0.50000   0.18454   0.28974   0.00000  Uiso   1.00
O180   O     0.62272   0.31799   0.18585   0.00000  Uiso   1.00
O181   O     0.36740   0.29670   0.14319   0.00000  Uiso   1.00
O182   O     0.38107   0.17276   0.30090   0.00000  Uiso   1.00
O183   O     0.36937   0.23701   0.35468   0.00000  Uiso   1.00
O184   O     0.62963   0.17893   0.33714   0.00000  Uiso   1.00
O185   O     0.45172   0.11302   0.34467   0.00000  Uiso   1.00
O186   O     0.51685   0.05978   0.37695   0.00000  Uiso   1.00
O187   O     0.54480   0.14204   0.36714   0.00000  Uiso   1.00
O188   O     0.39656   0.35816   0.21944   0.00000  Uiso   1.00
O189   O     0.38264   0.42819   0.17527   0.00000  Uiso   1.00
O190   O     0.50000   0.31547   0.21026   0.00000  Uiso   1.00
O191   O     0.43325   0.36409   0.13802   0.00000  Uiso   1.00
O192   O     0.47964   0.13684   0.11807   0.00000  Uiso   1.00
O193   O     0.42331   0.07344   0.12848   0.00000  Uiso   1.00
O194   O     0.40987   0.14705   0.17546   0.00000  Uiso   1.00
O195   O     0.59921   0.33678   0.32438   0.00000  Uiso   1.00
O196   O     0.62839   0.41117   0.35220   0.00000  Uiso   1.00
O197   O     0.53698   0.38963   0.36486   0.00000  Uiso   1.00
O198   O     0.48857   0.00660   0.11044   0.00000  Uiso   1.00
O199   O     0.54902   0.06850   0.10672   0.00000  Uiso   1.00
O200   O     0.58322   0.49258   0.14188   0.00000  Uiso   1.00
O201   O     0.50000   0.18453   0.21026   0.00000  Uiso   1.00
O202   O     0.64027   0.49441   0.31782   0.00000  Uiso   1.00
O203   O     0.33907   0.43071   0.27300   0.00000  Uiso   1.00
O204   O     0.64824   0.00480   0.22847   0.00000  Uiso   1.00
O205   O     0.50000   0.31547   0.28974   0.00000  Uiso   1.00
O206   O     0.42392   0.25000   0.28045   0.00000  Uiso   1.00
O207   O     0.57608   0.25000   0.21955   0.00000  Uiso   1.00
O208   O     0.42392   0.25000   0.20097   0.00000  Uiso   1.00
O209   O     0.57608   0.25001   0.29903   0.00000  Uiso   1.00
O210   O     0.62719   0.24187   0.14729   0.00000  Uiso   1.00
S211   S     0.65621   0.27846   0.17602   0.00000  Uiso   1.00
S212   S     0.34358   0.20697   0.31585   0.00000  Uiso   1.00
S213   S     0.50670   0.09974   0.34509   0.00000  Uiso   1.00
S214   S     0.41995   0.39057   0.18816   0.00000  Uiso   1.00
S215   S     0.45225   0.11223   0.15332   0.00000  Uiso   1.00
S216   S     0.58331   0.38514   0.32908   0.00000  Uiso   1.00
S217   S     0.53460   0.02980   0.13593   0.00000  Uiso   1.00
S218   S     0.63493   0.46925   0.27093   0.00000  Uiso   1.00
Zn219  Zn    0.50000   0.25001   0.30307   0.00000  Uiso   1.00
Zn220  Zn    0.50000   0.25000   0.19693   0.00000  Uiso   1.00
C221   C     0.83211   0.16275   0.24926   0.00000  Uiso   1.00
C222   C     0.80989   0.21690   0.44488   0.00000  Uiso   1.00
C223   C     0.82626   0.25467   0.02602   0.00000  Uiso   1.00
C224   C     0.82703   0.25495   0.47258   0.00000  Uiso   1.00
C225   C     0.73424   0.24955   0.23808   0.00000  Uiso   1.00
C226   C     0.93268   0.24877   0.26159   0.00000  Uiso   1.00
C227   C     0.68079   0.25400   0.23150   0.00000  Uiso   1.00
C228   C     0.98626   0.24082   0.26631   0.00000  Uiso   1.00
C229   C     0.86800   0.04192   0.27877   0.00000  Uiso   1.00
C230   C     0.82271   0.45596   0.21027   0.00000  Uiso   1.00
C231   C     0.85138   0.08570   0.28611   0.00000  Uiso   1.00
C232   C     0.83628   0.33674   0.25057   0.00000  Uiso   1.00
C233   C     0.81105   0.41163   0.21801   0.00000  Uiso   1.00
C234   C     0.83571   0.11269   0.24597   0.00000  Uiso   1.00
C235   C     0.84413   0.38589   0.24995   0.00000  Uiso   1.00
C236   C     0.83110   0.09187   0.19973   0.00000  Uiso   1.00
C237   C     0.88983   0.40581   0.27300   0.00000  Uiso   1.00
C238   C     0.85515   0.05001   0.19317   0.00000  Uiso   1.00
C239   C     0.90494   0.44838   0.25778   0.00000  Uiso   1.00
C240   C     0.87006   0.02393   0.23324   0.00000  Uiso   1.00
C241   C     0.86893   0.47459   0.22976   0.00000  Uiso   1.00
C242   C     0.73564   0.22348   0.02216   0.00000  Uiso   1.00
C243   C     0.78591   0.23581   0.04859   0.00000  Uiso   1.00
C244   C     0.70962   0.25362   0.48979   0.00000  Uiso   1.00
C245   C     0.99478   0.24277   0.46652   0.00000  Uiso   1.00
C246   C     0.97172   0.20213   0.47577   0.00000  Uiso   1.00
C247   C     0.99703   0.17201   0.00793   0.00000  Uiso   1.00
C248   C     0.71206   0.18254   0.03103   0.00000  Uiso   1.00
C249   C     0.85996   0.33593   0.47162   0.00000  Uiso   1.00
C250   C     0.82449   0.35900   0.49674   0.00000  Uiso   1.00
C251   C     0.83658   0.40102   0.01821   0.00000  Uiso   1.00
C252   C     0.88390   0.42059   0.01447   0.00000  Uiso   1.00
C253   C     0.91927   0.39814   0.48931   0.00000  Uiso   1.00
C254   C     0.84714   0.29140   0.44846   0.00000  Uiso   1.00
C255   C     0.90741   0.35605   0.46790   0.00000  Uiso   1.00
C256   C     0.79198   0.23233   0.09885   0.00000  Uiso   1.00
C257   C     0.85206   0.28646   0.39954   0.00000  Uiso   1.00
C258   C     0.86732   0.27429   0.10504   0.00000  Uiso   1.00
C259   C     0.81113   0.21621   0.39555   0.00000  Uiso   1.00
C260   C     0.86752   0.27320   0.05582   0.00000  Uiso   1.00
H261   H     0.87582   0.01991   0.30887   0.00000  Uiso   1.00
H262   H     0.95757   0.19486   0.36722   0.00000  Uiso   1.00
H263   H     0.88114   0.13889   0.40213   0.00000  Uiso   1.00
H264   H     0.78354   0.38710   0.12046   0.00000  Uiso   1.00
H265   H     0.71651   0.15256   0.14853   0.00000  Uiso   1.00
H266   H     0.86415   0.42248   0.36825   0.00000  Uiso   1.00
H267   H     0.92645   0.48820   0.10943   0.00000  Uiso   1.00
H268   H     0.68438   0.01332   0.23731   0.00000  Uiso   1.00
H269   H     0.72630   0.28569   0.48283   0.00000  Uiso   1.00
H270   H     0.97521   0.26592   0.44139   0.00000  Uiso   1.00
H271   H     0.93423   0.19404   0.45804   0.00000  Uiso   1.00
H272   H     0.79446   0.47690   0.19014   0.00000  Uiso   1.00
H273   H     0.97915   0.14048   0.01505   0.00000  Uiso   1.00
H274   H     0.73106   0.15870   0.05573   0.00000  Uiso   1.00
H275   H     0.78749   0.34457   0.49964   0.00000  Uiso   1.00
H276   H     0.80915   0.41853   0.03758   0.00000  Uiso   1.00
H277   H     0.89305   0.45323   0.03085   0.00000  Uiso   1.00
H278   H     0.95586   0.41339   0.48631   0.00000  Uiso   1.00
H279   H     0.93526   0.33919   0.44853   0.00000  Uiso   1.00
H280   H     0.76183   0.21791   0.11636   0.00000  Uiso   1.00
H281   H     0.86889   0.31263   0.38127   0.00000  Uiso   1.00
H282   H     0.89382   0.29551   0.12597   0.00000  Uiso   1.00
H283   H     0.79398   0.18868   0.37456   0.00000  Uiso   1.00
H284   H     0.89948   0.28822   0.04144   0.00000  Uiso   1.00
H285   H     0.79497   0.18778   0.46105   0.00000  Uiso   1.00
H286   H     0.68191   0.30357   0.11174   0.00000  Uiso   1.00
N287   N     0.83333   0.24999   0.12624   0.00000  Uiso   1.00
N288   N     0.83333   0.25001   0.37376   0.00000  Uiso   1.00
O289   O     0.83334   0.18454   0.28974   0.00000  Uiso   1.00
O290   O     0.95606   0.31799   0.18585   0.00000  Uiso   1.00
O291   O     0.70073   0.29670   0.14319   0.00000  Uiso   1.00
O292   O     0.71440   0.17276   0.30090   0.00000  Uiso   1.00
O293   O     0.70270   0.23701   0.35468   0.00000  Uiso   1.00
O294   O     0.96296   0.17893   0.33714   0.00000  Uiso   1.00
O295   O     0.78506   0.11302   0.34467   0.00000  Uiso   1.00
O296   O     0.85018   0.05978   0.37695   0.00000  Uiso   1.00
O297   O     0.87813   0.14204   0.36714   0.00000  Uiso   1.00
O298   O     0.72989   0.35816   0.21944   0.00000  Uiso   1.00
O299   O     0.71598   0.42819   0.17527   0.00000  Uiso   1.00
O300   O     0.83333   0.31547   0.21026   0.00000  Uiso   1.00
O301   O     0.76659   0.36409   0.13802   0.00000  Uiso   1.00
O302   O     0.81297   0.13684   0.11807   0.00000  Uiso   1.00
O303   O     0.75664   0.07344   0.12848   0.00000  Uiso   1.00
O304   O     0.74320   0.14705   0.17546   0.00000  Uiso   1.00
O305   O     0.93254   0.33678   0.32438   0.00000  Uiso   1.00
O306   O     0.96172   0.41117   0.35220   0.00000  Uiso   1.00
O307   O     0.87031   0.38963   0.36486   0.00000  Uiso   1.00
O308   O     0.82190   0.00660   0.11044   0.00000  Uiso   1.00
O309   O     0.88235   0.06850   0.10672   0.00000  Uiso   1.00
O310   O     0.91656   0.49258   0.14188   0.00000  Uiso   1.00
O311   O     0.83334   0.18453   0.21026   0.00000  Uiso   1.00
O312   O     0.97361   0.49441   0.31782   0.00000  Uiso   1.00
O313   O     0.67240   0.43071   0.27300   0.00000  Uiso   1.00
O314   O     0.98157   0.00480   0.22847   0.00000  Uiso   1.00
O315   O     0.83333   0.31547   0.28974   0.00000  Uiso   1.00
O316   O     0.75725   0.25000   0.28045   0.00000  Uiso   1.00
O317   O     0.90942   0.25000   0.21955   0.00000  Uiso   1.00
O318   O     0.75725   0.25000   0.20097   0.00000  Uiso   1.00
O319   O     0.90942   0.25001   0.29903   0.00000  Uiso   1.00
O320   O     0.96053   0.24187   0.14729   0.00000  Uiso   1.00
S321   S     0.98955   0.27846   0.17602   0.00000  Uiso   1.00
S322   S     0.67691   0.20697   0.31585   0.00000  Uiso   1.00
S323   S     0.84003   0.09974   0.34509   0.00000  Uiso   1.00
S324   S     0.75328   0.39057   0.18816   0.00000  Uiso   1.00
S325   S     0.78559   0.11223   0.15332   0.00000  Uiso   1.00
S326   S     0.91664   0.38514   0.32908   0.00000  Uiso   1.00
S327   S     0.86793   0.02980   0.13593   0.00000  Uiso   1.00
S328   S     0.96827   0.46925   0.27093   0.00000  Uiso   1.00
Zn329  Zn    0.83333   0.25001   0.30307   0.00000  Uiso   1.00
Zn330  Zn    0.83333   0.25000   0.19693   0.00000  Uiso   1.00
C331   C     0.16545   0.66275   0.24926   0.00000  Uiso   1.00
C332   C     0.14322   0.71690   0.44488   0.00000  Uiso   1.00
C333   C     0.15960   0.75467   0.02602   0.00000  Uiso   1.00
C334   C     0.16036   0.75495   0.47258   0.00000  Uiso   1.00
C335   C     0.06758   0.74955   0.23808   0.00000  Uiso   1.00
C336   C     0.26602   0.74877   0.26159   0.00000  Uiso   1.00
C337   C     0.01413   0.75400   0.23150   0.00000  Uiso   1.00
C338   C     0.31959   0.74082   0.26631   0.00000  Uiso   1.00
C339   C     0.20134   0.54192   0.27877   0.00000  Uiso   1.00
C340   C     0.15604   0.95596   0.21027   0.00000  Uiso   1.00
C341   C     0.18471   0.58570   0.28611   0.00000  Uiso   1.00
C342   C     0.16962   0.83674   0.25057   0.00000  Uiso   1.00
C343   C     0.14438   0.91163   0.21801   0.00000  Uiso   1.00
C344   C     0.16904   0.61269   0.24597   0.00000  Uiso   1.00
C345   C     0.17747   0.88589   0.24995   0.00000  Uiso   1.00
C346   C     0.16444   0.59187   0.19973   0.00000  Uiso   1.00
C347   C     0.22316   0.90581   0.27300   0.00000  Uiso   1.00
C348   C     0.18849   0.55001   0.19317   0.00000  Uiso   1.00
C349   C     0.23828   0.94838   0.25778   0.00000  Uiso   1.00
C350   C     0.20339   0.52393   0.23324   0.00000  Uiso   1.00
C351   C     0.20227   0.97459   0.22976   0.00000  Uiso   1.00
C352   C     0.06897   0.72348   0.02216   0.00000  Uiso   1.00
C353   C     0.11924   0.73581   0.04859   0.00000  Uiso   1.00
C354   C     0.04296   0.75362   0.48979   0.00000  Uiso   1.00
C355   C     0.32811   0.74277   0.46652   0.00000  Uiso   1.00
C356   C     0.30505   0.70213   0.47577   0.00000  Uiso   1.00
C357   C     0.33037   0.67201   0.00793   0.00000  Uiso   1.00
C358   C     0.04539   0.68254   0.03103   0.00000  Uiso   1.00
C359   C     0.19330   0.83593   0.47162   0.00000  Uiso   1.00
C360   C     0.15783   0.85900   0.49674   0.00000  Uiso   1.00
C361   C     0.16991   0.90102   0.01821   0.00000  Uiso   1.00
C362   C     0.21723   0.92059   0.01447   0.00000  Uiso   1.00
C363   C     0.25260   0.89814   0.48931   0.00000  Uiso   1.00
C364   C     0.18047   0.79140   0.44846   0.00000  Uiso   1.00
C365   C     0.24075   0.85605   0.46790   0.00000  Uiso   1.00
C366   C     0.12531   0.73233   0.09885   0.00000  Uiso   1.00
C367   C     0.18539   0.78646   0.39954   0.00000  Uiso   1.00
C368   C     0.20065   0.77429   0.10504   0.00000  Uiso   1.00
C369   C     0.14446   0.71621   0.39555   0.00000  Uiso   1.00
C370   C     0.20085   0.77320   0.05582   0.00000  Uiso   1.00
H371   H     0.20915   0.51991   0.30887   0.00000  Uiso   1.00
H372   H     0.29090   0.69486   0.36722   0.00000  Uiso   1.00
H373   H     0.21448   0.63889   0.40213   0.00000  Uiso   1.00
H374   H     0.11688   0.88710   0.12046   0.00000  Uiso   1.00
H375   H     0.04984   0.65256   0.14853   0.00000  Uiso   1.00
H376   H     0.19748   0.92248   0.36825   0.00000  Uiso   1.00
H377   H     0.25978   0.98820   0.10943   0.00000  Uiso   1.00
H378   H     0.01771   0.51332   0.23731   0.00000  Uiso   1.00
H379   H     0.05963   0.78569   0.48283   0.00000  Uiso   1.00
H380   H     0.30854   0.76592   0.44139   0.00000  Uiso   1.00
H381   H     0.26756   0.69404   0.45804   0.00000  Uiso   1.00
H382   H     0.12779   0.97690   0.19014   0.00000  Uiso   1.00
H383   H     0.31248   0.64048   0.01505   0.00000  Uiso   1.00
H384   H     0.06439   0.65870   0.05573   0.00000  Uiso   1.00
H385   H     0.12082   0.84457   0.49964   0.00000  Uiso   1.00
H386   H     0.14248   0.91853   0.03758   0.00000  Uiso   1.00
H387   H     0.22638   0.95323   0.03085   0.00000  Uiso   1.00
H388   H     0.28920   0.91339   0.48631   0.00000  Uiso   1.00
H389   H     0.26860   0.83919   0.44853   0.00000  Uiso   1.00
H390   H     0.09516   0.71791   0.11636   0.00000  Uiso   1.00
H391   H     0.20223   0.81263   0.38127   0.00000  Uiso   1.00
H392   H     0.22715   0.79551   0.12597   0.00000  Uiso   1.00
H393   H     0.12731   0.68868   0.37456   0.00000  Uiso   1.00
H394   H     0.23281   0.78822   0.04144   0.00000  Uiso   1.00
H395   H     0.12830   0.68778   0.46105   0.00000  Uiso   1.00
H396   H     0.01524   0.80357   0.11174   0.00000  Uiso   1.00
N397   N     0.16667   0.74999   0.12624   0.00000  Uiso   1.00
N398   N     0.16667   0.75001   0.37376   0.00000  Uiso   1.00
O399   O     0.16667   0.68454   0.28974   0.00000  Uiso   1.00
O400   O     0.28939   0.81799   0.18585   0.00000  Uiso   1.00
O401   O     0.03406   0.79670   0.14319   0.00000  Uiso   1.00
O402   O     0.04774   0.67276   0.30090   0.00000  Uiso   1.00
O403   O     0.03603   0.73701   0.35468   0.00000  Uiso   1.00
O404   O     0.29630   0.67893   0.33714   0.00000  Uiso   1.00
O405   O     0.11839   0.61302   0.34467   0.00000  Uiso   1.00
O406   O     0.18352   0.55978   0.37695   0.00000  Uiso   1.00
O407   O     0.21146   0.64204   0.36714   0.00000  Uiso   1.00
O408   O     0.06322   0.85816   0.21944   0.00000  Uiso   1.00
O409   O     0.04931   0.92819   0.17527   0.00000  Uiso   1.00
O410   O     0.16666   0.81547   0.21026   0.00000  Uiso   1.00
O411   O     0.09992   0.86409   0.13802   0.00000  Uiso   1.00
O412   O     0.14631   0.63684   0.11807   0.00000  Uiso   1.00
O413   O     0.08997   0.57344   0.12848   0.00000  Uiso   1.00
O414   O     0.07654   0.64705   0.17546   0.00000  Uiso   1.00
O415   O     0.26588   0.83678   0.32438   0.00000  Uiso   1.00
O416   O     0.29505   0.91117   0.35220   0.00000  Uiso   1.00
O417   O     0.20364   0.88963   0.36486   0.00000  Uiso   1.00
O418   O     0.15524   0.50660   0.11044   0.00000  Uiso   1.00
O419   O     0.21569   0.56850   0.10672   0.00000  Uiso   1.00
O420   O     0.24989   0.99258   0.14188   0.00000  Uiso   1.00
O421   O     0.16667   0.68453   0.21026   0.00000  Uiso   1.00
O422   O     0.30694   0.99441   0.31782   0.00000  Uiso   1.00
O423   O     0.00573   0.93071   0.27300   0.00000  Uiso   1.00
O424   O     0.31490   0.50480   0.22847   0.00000  Uiso   1.00
O425   O     0.16666   0.81547   0.28974   0.00000  Uiso   1.00
O426   O     0.09058   0.75000   0.28045   0.00000  Uiso   1.00
O427   O     0.24275   0.75000   0.21955   0.00000  Uiso   1.00
O428   O     0.09058   0.75000   0.20097   0.00000  Uiso   1.00
O429   O     0.24275   0.75001   0.29903   0.00000  Uiso   1.00
O430   O     0.29386   0.74187   0.14729   0.00000  Uiso   1.00
S431   S     0.32288   0.77846   0.17602   0.00000  Uiso   1.00
S432   S     0.01024   0.70697   0.31585   0.00000  Uiso   1.00
S433   S     0.17337   0.59974   0.34509   0.00000  Uiso   1.00
S434   S     0.08662   0.89057   0.18816   0.00000  Uiso   1.00
S435   S     0.11892   0.61223   0.15332   0.00000  Uiso   1.00
S436   S     0.24997   0.88514   0.32908   0.00000  Uiso   1.00
S437   S     0.20127   0.52980   0.13593   0.00000  Uiso   1.00
S438   S     0.30160   0.96925   0.27093   0.00000  Uiso   1.00
Zn439  Zn    0.16667   0.75001   0.30307   0.00000  Uiso   1.00
Zn440  Zn    0.16667   0.75000   0.19693   0.00000  Uiso   1.00
C441   C     0.49878   0.66275   0.24926   0.00000  Uiso   1.00
C442   C     0.47655   0.71690   0.44488   0.00000  Uiso   1.00
C443   C     0.49293   0.75467   0.02602   0.00000  Uiso   1.00
C444   C     0.49369   0.75495   0.47258   0.00000  Uiso   1.00
C445   C     0.40091   0.74955   0.23808   0.00000  Uiso   1.00
C446   C     0.59935   0.74877   0.26159   0.00000  Uiso   1.00
C447   C     0.34746   0.75400   0.23150   0.00000  Uiso   1.00
C448   C     0.65292   0.74082   0.26631   0.00000  Uiso   1.00
C449   C     0.53467   0.54192   0.27877   0.00000  Uiso   1.00
C450   C     0.48938   0.95596   0.21027   0.00000  Uiso   1.00
C451   C     0.51804   0.58570   0.28611   0.00000  Uiso   1.00
C452   C     0.50295   0.83674   0.25057   0.00000  Uiso   1.00
C453   C     0.47771   0.91163   0.21801   0.00000  Uiso   1.00
C454   C     0.50238   0.61269   0.24597   0.00000  Uiso   1.00
C455   C     0.51080   0.88589   0.24995   0.00000  Uiso   1.00
C456   C     0.49777   0.59187   0.19973   0.00000  Uiso   1.00
C457   C     0.55650   0.90581   0.27300   0.00000  Uiso   1.00
C458   C     0.52182   0.55001   0.19317   0.00000  Uiso   1.00
C459   C     0.57161   0.94838   0.25778   0.00000  Uiso   1.00
C460   C     0.53673   0.52393   0.23324   0.00000  Uiso   1.00
C461   C     0.53560   0.97459   0.22976   0.00000  Uiso   1.00
C462   C     0.40231   0.72348   0.02216   0.00000  Uiso   1.00
C463   C     0.45257   0.73581   0.04859   0.00000  Uiso   1.00
C464   C     0.37629   0.75362   0.48979   0.00000  Uiso   1.00
C465   C     0.66145   0.74277   0.46652   0.00000  Uiso   1.00
C466   C     0.63838   0.70213   0.47577   0.00000  Uiso   1.00
C467   C     0.66370   0.67201   0.00793   0.00000  Uiso   1.00
C468   C     0.37872   0.68254   0.03103   0.00000  Uiso   1.00
C469   C     0.52663   0.83593   0.47162   0.00000  Uiso   1.00
C470   C     0.49116   0.85900   0.49674   0.00000  Uiso   1.00
C471   C     0.50324   0.90102   0.01821   0.00000  Uiso   1.00
C472   C     0.55056   0.92059   0.01447   0.00000  Uiso   1.00
C473   C     0.58593   0.89814   0.48931   0.00000  Uiso   1.00
C474   C     0.51380   0.79140   0.44846   0.00000  Uiso   1.00
C475   C     0.57408   0.85605   0.46790   0.00000  Uiso   1.00
C476   C     0.45865   0.73233   0.09885   0.00000  Uiso   1.00
C477   C     0.51873   0.78646   0.39954   0.00000  Uiso   1.00
C478   C     0.53399   0.77429   0.10504   0.00000  Uiso   1.00
C479   C     0.47780   0.71621   0.39555   0.00000  Uiso   1.00
C480   C     0.53419   0.77320   0.05582   0.00000  Uiso   1.00
H481   H     0.54249   0.51991   0.30887   0.00000  Uiso   1.00
H482   H     0.62423   0.69486   0.36722   0.00000  Uiso   1.00
H483   H     0.54781   0.63889   0.40213   0.00000  Uiso   1.00
H484   H     0.45021   0.88710   0.12046   0.00000  Uiso   1.00
H485   H     0.38317   0.65256   0.14853   0.00000  Uiso   1.00
H486   H     0.53082   0.92248   0.36825   0.00000  Uiso   1.00
H487   H     0.59312   0.98820   0.10943   0.00000  Uiso   1.00
H488   H     0.35104   0.51332   0.23731   0.00000  Uiso   1.00
H489   H     0.39296   0.78569   0.48283   0.00000  Uiso   1.00
H490   H     0.64188   0.76592   0.44139   0.00000  Uiso   1.00
H491   H     0.60089   0.69404   0.45804   0.00000  Uiso   1.00
H492   H     0.46113   0.97690   0.19014   0.00000  Uiso   1.00
H493   H     0.64581   0.64048   0.01505   0.00000  Uiso   1.00
H494   H     0.39772   0.65870   0.05573   0.00000  Uiso   1.00
H495   H     0.45415   0.84457   0.49964   0.00000  Uiso   1.00
H496   H     0.47582   0.91853   0.03758   0.00000  Uiso   1.00
H497   H     0.55972   0.95323   0.03085   0.00000  Uiso   1.00
H498   H     0.62253   0.91339   0.48631   0.00000  Uiso   1.00
H499   H     0.60193   0.83919   0.44853   0.00000  Uiso   1.00
H500   H     0.42850   0.71791   0.11636   0.00000  Uiso   1.00
H501   H     0.53556   0.81263   0.38127   0.00000  Uiso   1.00
H502   H     0.56048   0.79551   0.12597   0.00000  Uiso   1.00
H503   H     0.46065   0.68868   0.37456   0.00000  Uiso   1.00
H504   H     0.56615   0.78822   0.04144   0.00000  Uiso   1.00
H505   H     0.46164   0.68778   0.46105   0.00000  Uiso   1.00
H506   H     0.34857   0.80357   0.11174   0.00000  Uiso   1.00
N507   N     0.50000   0.74999   0.12624   0.00000  Uiso   1.00
N508   N     0.50000   0.75001   0.37376   0.00000  Uiso   1.00
O509   O     0.50000   0.68454   0.28974   0.00000  Uiso   1.00
O510   O     0.62272   0.81799   0.18585   0.00000  Uiso   1.00
O511   O     0.36740   0.79670   0.14319   0.00000  Uiso   1.00
O512   O     0.38107   0.67276   0.30090   0.00000  Uiso   1.00
O513   O     0.36937   0.73701   0.35468   0.00000  Uiso   1.00
O514   O     0.62963   0.67893   0.33714   0.00000  Uiso   1.00
O515   O     0.45172   0.61302   0.34467   0.00000  Uiso   1.00
O516   O     0.51685   0.55978   0.37695   0.00000  Uiso   1.00
O517   O     0.54480   0.64204   0.36714   0.00000  Uiso   1.00
O518   O     0.39656   0.85816   0.21944   0.00000  Uiso   1.00
O519   O     0.38264   0.92819   0.17527   0.00000  Uiso   1.00
O520   O     0.50000   0.81547   0.21026   0.00000  Uiso   1.00
O521   O     0.43325   0.86409   0.13802   0.00000  Uiso   1.00
O522   O     0.47964   0.63684   0.11807   0.00000  Uiso   1.00
O523   O     0.42331   0.57344   0.12848   0.00000  Uiso   1.00
O524   O     0.40987   0.64705   0.17546   0.00000  Uiso   1.00
O525   O     0.59921   0.83678   0.32438   0.00000  Uiso   1.00
O526   O     0.62839   0.91117   0.35220   0.00000  Uiso   1.00
O527   O     0.53698   0.88963   0.36486   0.00000  Uiso   1.00
O528   O     0.48857   0.50660   0.11044   0.00000  Uiso   1.00
O529   O     0.54902   0.56850   0.10672   0.00000  Uiso   1.00
O530   O     0.58322   0.99258   0.14188   0.00000  Uiso   1.00
O531   O     0.50000   0.68453   0.21026   0.00000  Uiso   1.00
O532   O     0.64027   0.99441   0.31782   0.00000  Uiso   1.00
O533   O     0.33907   0.93071   0.27300   0.00000  Uiso   1.00
O534   O     0.64824   0.50480   0.22847   0.00000  Uiso   1.00
O535   O     0.50000   0.81547   0.28974   0.00000  Uiso   1.00
O536   O     0.42392   0.75000   0.28045   0.00000  Uiso   1.00
O537   O     0.57608   0.75000   0.21955   0.00000  Uiso   1.00
O538   O     0.42392   0.75000   0.20097   0.00000  Uiso   1.00
O539   O     0.57608   0.75001   0.29903   0.00000  Uiso   1.00
O540   O     0.62719   0.74187   0.14729   0.00000  Uiso   1.00
S541   S     0.65621   0.77846   0.17602   0.00000  Uiso   1.00
S542   S     0.34358   0.70697   0.31585   0.00000  Uiso   1.00
S543   S     0.50670   0.59974   0.34509   0.00000  Uiso   1.00
S544   S     0.41995   0.89057   0.18816   0.00000  Uiso   1.00
S545   S     0.45225   0.61223   0.15332   0.00000  Uiso   1.00
S546   S     0.58331   0.88514   0.32908   0.00000  Uiso   1.00
S547   S     0.53460   0.52980   0.13593   0.00000  Uiso   1.00
S548   S     0.63493   0.96925   0.27093   0.00000  Uiso   1.00
Zn549  Zn    0.50000   0.75001   0.30307   0.00000  Uiso   1.00
Zn550  Zn    0.50000   0.75000   0.19693   0.00000  Uiso   1.00
C551   C     0.83211   0.66275   0.24926   0.00000  Uiso   1.00
C552   C     0.80989   0.71690   0.44488   0.00000  Uiso   1.00
C553   C     0.82626   0.75467   0.02602   0.00000  Uiso   1.00
C554   C     0.82703   0.75495   0.47258   0.00000  Uiso   1.00
C555   C     0.73424   0.74955   0.23808   0.00000  Uiso   1.00
C556   C     0.93268   0.74877   0.26159   0.00000  Uiso   1.00
C557   C     0.68079   0.75400   0.23150   0.00000  Uiso   1.00
C558   C     0.98626   0.74082   0.26631   0.00000  Uiso   1.00
C559   C     0.86800   0.54192   0.27877   0.00000  Uiso   1.00
C560   C     0.82271   0.95596   0.21027   0.00000  Uiso   1.00
C561   C     0.85138   0.58570   0.28611   0.00000  Uiso   1.00
C562   C     0.83628   0.83674   0.25057   0.00000  Uiso   1.00
C563   C     0.81105   0.91163   0.21801   0.00000  Uiso   1.00
C564   C     0.83571   0.61269   0.24597   0.00000  Uiso   1.00
C565   C     0.84413   0.88589   0.24995   0.00000  Uiso   1.00
C566   C     0.83110   0.59187   0.19973   0.00000  Uiso   1.00
C567   C     0.88983   0.90581   0.27300   0.00000  Uiso   1.00
C568   C     0.85515   0.55001   0.19317   0.00000  Uiso   1.00
C569   C     0.90494   0.94838   0.25778   0.00000  Uiso   1.00
C570   C     0.87006   0.52393   0.23324   0.00000  Uiso   1.00
C571   C     0.86893   0.97459   0.22976   0.00000  Uiso   1.00
C572   C     0.73564   0.72348   0.02216   0.00000  Uiso   1.00
C573   C     0.78591   0.73581   0.04859   0.00000  Uiso   1.00
C574   C     0.70962   0.75362   0.48979   0.00000  Uiso   1.00
C575   C     0.99478   0.74277   0.46652   0.00000  Uiso   1.00
C576   C     0.97172   0.70213   0.47577   0.00000  Uiso   1.00
C577   C     0.99703   0.67201   0.00793   0.00000  Uiso   1.00
C578   C     0.71206   0.68254   0.03103   0.00000  Uiso   1.00
C579   C     0.85996   0.83593   0.47162   0.00000  Uiso   1.00
C580   C     0.82449   0.85900   0.49674   0.00000  Uiso   1.00
C581   C     0.83658   0.90102   0.01821   0.00000  Uiso   1.00
C582   C     0.88390   0.92059   0.01447   0.00000  Uiso   1.00
C583   C     0.91927   0.89814   0.48931   0.00000  Uiso   1.00
C584   C     0.84714   0.79140   0.44846   0.00000  Uiso   1.00
C585   C     0.90741   0.85605   0.46790   0.00000  Uiso   1.00
C586   C     0.79198   0.73233   0.09885   0.00000  Uiso   1.00
C587   C     0.85206   0.78646   0.39954   0.00000  Uiso   1.00
C588   C     0.86732   0.77429   0.10504   0.00000  Uiso   1.00
C589   C     0.81113   0.71621   0.39555   0.00000  Uiso   1.00
C590   C     0.86752   0.77320   0.05582   0.00000  Uiso   1.00
H591   H     0.87582   0.51991   0.30887   0.00000  Uiso   1.00
H592   H     0.95757   0.69486   0.36722   0.00000  Uiso   1.00
H593   H     0.88114   0.63889   0.40213   0.00000  Uiso   1.00
H594   H     0.78354   0.88710   0.12046   0.00000  Uiso   1.00
H595   H     0.71651   0.65256   0.14853   0.00000  Uiso   1.00
H596   H     0.86415   0.92248   0.36825   0.00000  Uiso   1.00
H597   H     0.92645   0.98820   0.10943   0.00000  Uiso   1.00
H598   H     0.68438   0.51332   0.23731   0.00000  Uiso   1.00
H599   H     0.72630   0.78569   0.48283   0.00000  Uiso   1.00
H600   H     0.97521   0.76592   0.44139   0.00000  Uiso   1.00
H601   H     0.93423   0.69404   0.45804   0.00000  Uiso   1.00
H602   H     0.79446   0.97690   0.19014   0.00000  Uiso   1.00
H603   H     0.97915   0.64048   0.01505   0.00000  Uiso   1.00
H604   H     0.73106   0.65870   0.05573   0.00000  Uiso   1.00
H605   H     0.78749   0.84457   0.49964   0.00000  Uiso   1.00
H606   H     0.80915   0.91853   0.03758   0.00000  Uiso   1.00
H607   H     0.89305   0.95323   0.03085   0.00000  Uiso   1.00
H608   H     0.95586   0.91339   0.48631   0.00000  Uiso   1.00
H609   H     0.93526   0.83919   0.44853   0.00000  Uiso   1.00
H610   H     0.76183   0.71791   0.11636   0.00000  Uiso   1.00
H611   H     0.86889   0.81263   0.38127   0.00000  Uiso   1.00
H612   H     0.89382   0.79551   0.12597   0.00000  Uiso   1.00
H613   H     0.79398   0.68868   0.37456   0.00000  Uiso   1.00
H614   H     0.89948   0.78822   0.04144   0.00000  Uiso   1.00
H615   H     0.79497   0.68778   0.46105   0.00000  Uiso   1.00
H616   H     0.68191   0.80357   0.11174   0.00000  Uiso   1.00
N617   N     0.83333   0.74999   0.12624   0.00000  Uiso   1.00
N618   N     0.83333   0.75001   0.37376   0.00000  Uiso   1.00
O619   O     0.83334   0.68454   0.28974   0.00000  Uiso   1.00
O620   O     0.95606   0.81799   0.18585   0.00000  Uiso   1.00
O621   O     0.70073   0.79670   0.14319   0.00000  Uiso   1.00
O622   O     0.71440   0.67276   0.30090   0.00000  Uiso   1.00
O623   O     0.70270   0.73701   0.35468   0.00000  Uiso   1.00
O624   O     0.96296   0.67893   0.33714   0.00000  Uiso   1.00
O625   O     0.78506   0.61302   0.34467   0.00000  Uiso   1.00
O626   O     0.85018   0.55978   0.37695   0.00000  Uiso   1.00
O627   O     0.87813   0.64204   0.36714   0.00000  Uiso   1.00
O628   O     0.72989   0.85816   0.21944   0.00000  Uiso   1.00
O629   O     0.71598   0.92819   0.17527   0.00000  Uiso   1.00
O630   O     0.83333   0.81547   0.21026   0.00000  Uiso   1.00
O631   O     0.76659   0.86409   0.13802   0.00000  Uiso   1.00
O632   O     0.81297   0.63684   0.11807   0.00000  Uiso   1.00
O633   O     0.75664   0.57344   0.12848   0.00000  Uiso   1.00
O634   O     0.74320   0.64705   0.17546   0.00000  Uiso   1.00
O635   O     0.93254   0.83678   0.32438   0.00000  Uiso   1.00
O636   O     0.96172   0.91117   0.35220   0.00000  Uiso   1.00
O637   O     0.87031   0.88963   0.36486   0.00000  Uiso   1.00
O638   O     0.82190   0.50660   0.11044   0.00000  Uiso   1.00
O639   O     0.88235   0.56850   0.10672   0.00000  Uiso   1.00
O640   O     0.91656   0.99258   0.14188   0.00000  Uiso   1.00
O641   O     0.83334   0.68453   0.21026   0.00000  Uiso   1.00
O642   O     0.97361   0.99441   0.31782   0.00000  Uiso   1.00
O643   O     0.67240   0.93071   0.27300   0.00000  Uiso   1.00
O644   O     0.98157   0.50480   0.22847   0.00000  Uiso   1.00
O645   O     0.83333   0.81547   0.28974   0.00000  Uiso   1.00
O646   O     0.75725   0.75000   0.28045   0.00000  Uiso   1.00
O647   O     0.90942   0.75000   0.21955   0.00000  Uiso   1.00
O648   O     0.75725   0.75000   0.20097   0.00000  Uiso   1.00
O649   O     0.90942   0.75001   0.29903   0.00000  Uiso   1.00
O650   O     0.96053   0.74187   0.14729   0.00000  Uiso   1.00
S651   S     0.98955   0.77846   0.17602   0.00000  Uiso   1.00
S652   S     0.67691   0.70697   0.31585   0.00000  Uiso   1.00
S653   S     0.84003   0.59974   0.34509   0.00000  Uiso   1.00
S654   S     0.75328   0.89057   0.18816   0.00000  Uiso   1.00
S655   S     0.78559   0.61223   0.15332   0.00000  Uiso   1.00
S656   S     0.91664   0.88514   0.32908   0.00000  Uiso   1.00
S657   S     0.86793   0.52980   0.13593   0.00000  Uiso   1.00
S658   S     0.96827   0.96925   0.27093   0.00000  Uiso   1.00
Zn659  Zn    0.83333   0.75001   0.30307   0.00000  Uiso   1.00
Zn660  Zn    0.83333   0.75000   0.19693   0.00000  Uiso   1.00
C661   C     0.16545   0.16275   0.74926   0.00000  Uiso   1.00
C662   C     0.14322   0.21690   0.94488   0.00000  Uiso   1.00
C663   C     0.15960   0.25467   0.52602   0.00000  Uiso   1.00
C664   C     0.16036   0.25495   0.97258   0.00000  Uiso   1.00
C665   C     0.06758   0.24955   0.73808   0.00000  Uiso   1.00
C666   C     0.26602   0.24877   0.76159   0.00000  Uiso   1.00
C667   C     0.01413   0.25400   0.73150   0.00000  Uiso   1.00
C668   C     0.31959   0.24082   0.76631   0.00000  Uiso   1.00
C669   C     0.20134   0.04192   0.77877   0.00000  Uiso   1.00
C670   C     0.15604   0.45596   0.71027   0.00000  Uiso   1.00
C671   C     0.18471   0.08570   0.78611   0.00000  Uiso   1.00
C672   C     0.16962   0.33674   0.75057   0.00000  Uiso   1.00
C673   C     0.14438   0.41163   0.71801   0.00000  Uiso   1.00
C674   C     0.16904   0.11269   0.74597   0.00000  Uiso   1.00
C675   C     0.17747   0.38589   0.74995   0.00000  Uiso   1.00
C676   C     0.16444   0.09187   0.69973   0.00000  Uiso   1.00
C677   C     0.22316   0.40581   0.77300   0.00000  Uiso   1.00
C678   C     0.18849   0.05001   0.69317   0.00000  Uiso   1.00
C679   C     0.23828   0.44838   0.75778   0.00000  Uiso   1.00
C680   C     0.20339   0.02393   0.73324   0.00000  Uiso   1.00
C681   C     0.20227   0.47459   0.72976   0.00000  Uiso   1.00
C682   C     0.06897   0.22348   0.52216   0.00000  Uiso   1.00
C683   C     0.11924   0.23581   0.54859   0.00000  Uiso   1.00
C684   C     0.04296   0.25362   0.98979   0.00000  Uiso   1.00
C685   C     0.32811   0.24277   0.96652   0.00000  Uiso   1.00
C686   C     0.30505   0.20213   0.97577   0.00000  Uiso   1.00
C687   C     0.33037   0.17201   0.50793   0.00000  Uiso   1.00
C688   C     0.04539   0.18254   0.53103   0.00000  Uiso   1.00
C689   C     0.19330   0.33593   0.97162   0.00000  Uiso   1.00
C690   C     0.15783   0.35900   0.99674   0.00000  Uiso   1.00
C691   C     0.16991   0.40102   0.51821   0.00000  Uiso   1.00
C692   C     0.21723   0.42059   0.51447   0.00000  Uiso   1.00
C693   C     0.25260   0.39814   0.98931   0.00000  Uiso   1.00
C694   C     0.18047   0.29140   0.94846   0.00000  Uiso   1.00
C695   C     0.24075   0.35605   0.96790   0.00000  Uiso   1.00
C696   C     0.12531   0.23233   0.59885   0.00000  Uiso   1.00
C697   C     0.18539   0.28646   0.89954   0.00000  Uiso   1.00
C698   C     0.20065   0.27429   0.60504   0.00000  Uiso   1.00
C699   C     0.14446   0.21621   0.89555   0.00000  Uiso   1.00
C700   C     0.20085   0.27320   0.55582   0.00000  Uiso   1.00
H701   H     0.20915   0.01991   0.80887   0.00000  Uiso   1.00
H702   H     0.29090   0.19486   0.86722   0.00000  Uiso   1.00
H703   H     0.21448   0.13889   0.90213   0.00000  Uiso   1.00
H704   H     0.11688   0.38710   0.62046   0.00000  Uiso   1.00
H705   H     0.04984   0.15256   0.64853   0.00000  Uiso   1.00
H706   H     0.19748   0.42248   0.86825   0.00000  Uiso   1.00
H707   H     0.25978   0.48820   0.60943   0.00000  Uiso   1.00
H708   H     0.01771   0.01332   0.73731   0.00000  Uiso   1.00
H709   H     0.05963   0.28569   0.98283   0.00000  Uiso   1.00
H710   H     0.30854   0.26592   0.94139   0.00000  Uiso   1.00
H711   H     0.26756   0.19404   0.95804   0.00000  Uiso   1.00
H712   H     0.12779   0.47690   0.69014   0.00000  Uiso   1.00
H713   H     0.31248   0.14048   0.51505   0.00000  Uiso   1.00
H714   H     0.06439   0.15870   0.55573   0.00000  Uiso   1.00
H715   H     0.12082   0.34457   0.99964   0.00000  Uiso   1.00
H716   H     0.14248   0.41853   0.53758   0.00000  Uiso   1.00
H717   H     0.22638   0.45323   0.53085   0.00000  Uiso   1.00
H718   H     0.28920   0.41339   0.98631   0.00000  Uiso   1.00
H719   H     0.26860   0.33919   0.94853   0.00000  Uiso   1.00
H720   H     0.09516   0.21791   0.61636   0.00000  Uiso   1.00
H721   H     0.20223   0.31263   0.88127   0.00000  Uiso   1.00
H722   H     0.22715   0.29551   0.62597   0.00000  Uiso   1.00
H723   H     0.12731   0.18868   0.87456   0.00000  Uiso   1.00
H724   H     0.23281   0.28822   0.54144   0.00000  Uiso   1.00
H725   H     0.12830   0.18778   0.96105   0.00000  Uiso   1.00
H726   H     0.01524   0.30357   0.61174   0.00000  Uiso   1.00
N727   N     0.16667   0.24999   0.62624   0.00000  Uiso   1.00
N728   N     0.16667   0.25001   0.87376   0.00000  Uiso   1.00
O729   O     0.16667   0.18454   0.78974   0.00000  Uiso   1.00
O730   O     0.28939   0.31799   0.68585   0.00000  Uiso   1.00
O731   O     0.03406   0.29670   0.64319   0.00000  Uiso   1.00
O732   O     0.04774   0.17276   0.80090   0.00000  Uiso   1.00
O733   O     0.03603   0.23701   0.85468   0.00000  Uiso   1.00
O734   O     0.29630   0.17893   0.83714   0.00000  Uiso   1.00
O735   O     0.11839   0.11302   0.84467   0.00000  Uiso   1.00
O736   O     0.18352   0.05978   0.87695   0.00000  Uiso   1.00
O737   O     0.21146   0.14204   0.86714   0.00000  Uiso   1.00
O738   O     0.06322   0.35816   0.71944   0.00000  Uiso   1.00
O739   O     0.04931   0.42819   0.67527   0.00000  Uiso   1.00
O740   O     0.16666   0.31547   0.71026   0.00000  Uiso   1.00
O741   O     0.09992   0.36409   0.63802   0.00000  Uiso   1.00
O742   O     0.14631   0.13684   0.61807   0.00000  Uiso   1.00
O743   O     0.08997   0.07344   0.62848   0.00000  Uiso   1.00
O744   O     0.07654   0.14705   0.67546   0.00000  Uiso   1.00
O745   O     0.26588   0.33678   0.82438   0.00000  Uiso   1.00
O746   O     0.29505   0.41117   0.85220   0.00000  Uiso   1.00
O747   O     0.20364   0.38963   0.86486   0.00000  Uiso   1.00
O748   O     0.15524   0.00660   0.61044   0.00000  Uiso   1.00
O749   O     0.21569   0.06850   0.60672   0.00000  Uiso   1.00
O750   O     0.24989   0.49258   0.64188   0.00000  Uiso   1.00
O751   O     0.16667   0.18453   0.71026   0.00000  Uiso   1.00
O752   O     0.30694   0.49441   0.81782   0.00000  Uiso   1.00
O753   O     0.00573   0.43071   0.77300   0.00000  Uiso   1.00
O754   O     0.31490   0.00480   0.72847   0.00000  Uiso   1.00
O755   O     0.16666   0.31547   0.78974   0.00000  Uiso   1.00
O756   O     0.09058   0.25000   0.78045   0.00000  Uiso   1.00
O757   O     0.24275   0.25000   0.71955   0.00000  Uiso   1.00
O758   O     0.09058   0.25000   0.70097   0.00000  Uiso   1.00
O759   O     0.24275   0.25001   0.79903   0.00000  Uiso   1.00
O760   O     0.29386   0.24187   0.64729   0.00000  Uiso   1.00
S761   S     0.32288   0.27846   0.67602   0.00000  Uiso   1.00
S762   S     0.01024   0.20697   0.81585   0.00000  Uiso   1.00
S763   S     0.17337   0.09974   0.84509   0.00000  Uiso   1.00
S764   S     0.08662   0.39057   0.68816   0.00000  Uiso   1.00
S765   S     0.11892   0.11223   0.65332   0.00000  Uiso   1.00
S766   S     0.24997   0.38514   0.82908   0.00000  Uiso   1.00
S767   S     0.20127   0.02980   0.63593   0.00000  Uiso   1.00
S768   S     0.30160   0.46925   0.77093   0.00000  Uiso   1.00
Zn769  Zn    0.16667   0.25001   0.80307   0.00000  Uiso   1.00
Zn770  Zn    0.16667   0.25000   0.69693   0.00000  Uiso   1.00
C771   C     0.49878   0.16275   0.74926   0.00000  Uiso   1.00
C772   C     0.47655   0.21690   0.94488   0.00000  Uiso   1.00
C773   C     0.49293   0.25467   0.52602   0.00000  Uiso   1.00
C774   C     0.49369   0.25495   0.97258   0.00000  Uiso   1.00
C775   C     0.40091   0.24955   0.73808   0.00000  Uiso   1.00
C776   C     0.59935   0.24877   0.76159   0.00000  Uiso   1.00
C777   C     0.34746   0.25400   0.73150   0.00000  Uiso   1.00
C778   C     0.65292   0.24082   0.76631   0.00000  Uiso   1.00
C779   C     0.53467   0.04192   0.77877   0.00000  Uiso   1.00
C780   C     0.48938   0.45596   0.71027   0.00000  Uiso   1.00
C781   C     0.51804   0.08570   0.78611   0.00000  Uiso   1.00
C782   C     0.50295   0.33674   0.75057   0.00000  Uiso   1.00
C783   C     0.47771   0.41163   0.71801   0.00000  Uiso   1.00
C784   C     0.50238   0.11269   0.74597   0.00000  Uiso   1.00
C785   C     0.51080   0.38589   0.74995   0.00000  Uiso   1.00
C786   C     0.49777   0.09187   0.69973   0.00000  Uiso   1.00
C787   C     0.55650   0.40581   0.77300   0.00000  Uiso   1.00
C788   C     0.52182   0.05001   0.69317   0.00000  Uiso   1.00
C789   C     0.57161   0.44838   0.75778   0.00000  Uiso   1.00
C790   C     0.53673   0.02393   0.73324   0.00000  Uiso   1.00
C791   C     0.53560   0.47459   0.72976   0.00000  Uiso   1.00
C792   C     0.40231   0.22348   0.52216   0.00000  Uiso   1.00
C793   C     0.45257   0.23581   0.54859   0.00000  Uiso   1.00
C794   C     0.37629   0.25362   0.98979   0.00000  Uiso   1.00
C795   C     0.66145   0.24277   0.96652   0.00000  Uiso   1.00
C796   C     0.63838   0.20213   0.97577   0.00000  Uiso   1.00
C797   C     0.66370   0.17201   0.50793   0.00000  Uiso   1.00
C798   C     0.37872   0.18254   0.53103   0.00000  Uiso   1.00
C799   C     0.52663   0.33593   0.97162   0.00000  Uiso   1.00
C800   C     0.49116   0.35900   0.99674   0.00000  Uiso   1.00
C801   C     0.50324   0.40102   0.51821   0.00000  Uiso   1.00
C802   C     0.55056   0.42059   0.51447   0.00000  Uiso   1.00
C803   C     0.58593   0.39814   0.98931   0.00000  Uiso   1.00
C804   C     0.51380   0.29140   0.94846   0.00000  Uiso   1.00
C805   C     0.57408   0.35605   0.96790   0.00000  Uiso   1.00
C806   C     0.45865   0.23233   0.59885   0.00000  Uiso   1.00
C807   C     0.51873   0.28646   0.89954   0.00000  Uiso   1.00
C808   C     0.53399   0.27429   0.60504   0.00000  Uiso   1.00
C809   C     0.47780   0.21621   0.89555   0.00000  Uiso   1.00
C810   C     0.53419   0.27320   0.55582   0.00000  Uiso   1.00
H811   H     0.54249   0.01991   0.80887   0.00000  Uiso   1.00
H812   H     0.62423   0.19486   0.86722   0.00000  Uiso   1.00
H813   H     0.54781   0.13889   0.90213   0.00000  Uiso   1.00
H814   H     0.45021   0.38710   0.62046   0.00000  Uiso   1.00
H815   H     0.38317   0.15256   0.64853   0.00000  Uiso   1.00
H816   H     0.53082   0.42248   0.86825   0.00000  Uiso   1.00
H817   H     0.59312   0.48820   0.60943   0.00000  Uiso   1.00
H818   H     0.35104   0.01332   0.73731   0.00000  Uiso   1.00
H819   H     0.39296   0.28569   0.98283   0.00000  Uiso   1.00
H820   H     0.64188   0.26592   0.94139   0.00000  Uiso   1.00
H821   H     0.60089   0.19404   0.95804   0.00000  Uiso   1.00
H822   H     0.46113   0.47690   0.69014   0.00000  Uiso   1.00
H823   H     0.64581   0.14048   0.51505   0.00000  Uiso   1.00
H824   H     0.39772   0.15870   0.55573   0.00000  Uiso   1.00
H825   H     0.45415   0.34457   0.99964   0.00000  Uiso   1.00
H826   H     0.47582   0.41853   0.53758   0.00000  Uiso   1.00
H827   H     0.55972   0.45323   0.53085   0.00000  Uiso   1.00
H828   H     0.62253   0.41339   0.98631   0.00000  Uiso   1.00
H829   H     0.60193   0.33919   0.94853   0.00000  Uiso   1.00
H830   H     0.42850   0.21791   0.61636   0.00000  Uiso   1.00
H831   H     0.53556   0.31263   0.88127   0.00000  Uiso   1.00
H832   H     0.56048   0.29551   0.62597   0.00000  Uiso   1.00
H833   H     0.46065   0.18868   0.87456   0.00000  Uiso   1.00
H834   H     0.56615   0.28822   0.54144   0.00000  Uiso   1.00
H835   H     0.46164   0.18778   0.96105   0.00000  Uiso   1.00
H836   H     0.34857   0.30357   0.61174   0.00000  Uiso   1.00
N837   N     0.50000   0.24999   0.62624   0.00000  Uiso   1.00
N838   N     0.50000   0.25001   0.87376   0.00000  Uiso   1.00
O839   O     0.50000   0.18454   0.78974   0.00000  Uiso   1.00
O840   O     0.62272   0.31799   0.68585   0.00000  Uiso   1.00
O841   O     0.36740   0.29670   0.64319   0.00000  Uiso   1.00
O842   O     0.38107   0.17276   0.80090   0.00000  Uiso   1.00
O843   O     0.36937   0.23701   0.85468   0.00000  Uiso   1.00
O844   O     0.62963   0.17893   0.83714   0.00000  Uiso   1.00
O845   O     0.45172   0.11302   0.84467   0.00000  Uiso   1.00
O846   O     0.51685   0.05978   0.87695   0.00000  Uiso   1.00
O847   O     0.54480   0.14204   0.86714   0.00000  Uiso   1.00
O848   O     0.39656   0.35816   0.71944   0.00000  Uiso   1.00
O849   O     0.38264   0.42819   0.67527   0.00000  Uiso   1.00
O850   O     0.50000   0.31547   0.71026   0.00000  Uiso   1.00
O851   O     0.43325   0.36409   0.63802   0.00000  Uiso   1.00
O852   O     0.47964   0.13684   0.61807   0.00000  Uiso   1.00
O853   O     0.42331   0.07344   0.62848   0.00000  Uiso   1.00
O854   O     0.40987   0.14705   0.67546   0.00000  Uiso   1.00
O855   O     0.59921   0.33678   0.82438   0.00000  Uiso   1.00
O856   O     0.62839   0.41117   0.85220   0.00000  Uiso   1.00
O857   O     0.53698   0.38963   0.86486   0.00000  Uiso   1.00
O858   O     0.48857   0.00660   0.61044   0.00000  Uiso   1.00
O859   O     0.54902   0.06850   0.60672   0.00000  Uiso   1.00
O860   O     0.58322   0.49258   0.64188   0.00000  Uiso   1.00
O861   O     0.50000   0.18453   0.71026   0.00000  Uiso   1.00
O862   O     0.64027   0.49441   0.81782   0.00000  Uiso   1.00
O863   O     0.33907   0.43071   0.77300   0.00000  Uiso   1.00
O864   O     0.64824   0.00480   0.72847   0.00000  Uiso   1.00
O865   O     0.50000   0.31547   0.78974   0.00000  Uiso   1.00
O866   O     0.42392   0.25000   0.78045   0.00000  Uiso   1.00
O867   O     0.57608   0.25000   0.71955   0.00000  Uiso   1.00
O868   O     0.42392   0.25000   0.70097   0.00000  Uiso   1.00
O869   O     0.57608   0.25001   0.79903   0.00000  Uiso   1.00
O870   O     0.62719   0.24187   0.64729   0.00000  Uiso   1.00
S871   S     0.65621   0.27846   0.67602   0.00000  Uiso   1.00
S872   S     0.34358   0.20697   0.81585   0.00000  Uiso   1.00
S873   S     0.50670   0.09974   0.84509   0.00000  Uiso   1.00
S874   S     0.41995   0.39057   0.68816   0.00000  Uiso   1.00
S875   S     0.45225   0.11223   0.65332   0.00000  Uiso   1.00
S876   S     0.58331   0.38514   0.82908   0.00000  Uiso   1.00
S877   S     0.53460   0.02980   0.63593   0.00000  Uiso   1.00
S878   S     0.63493   0.46925   0.77093   0.00000  Uiso   1.00
Zn879  Zn    0.50000   0.25001   0.80307   0.00000  Uiso   1.00
Zn880  Zn    0.50000   0.25000   0.69693   0.00000  Uiso   1.00
C881   C     0.83211   0.16275   0.74926   0.00000  Uiso   1.00
C882   C     0.80989   0.21690   0.94488   0.00000  Uiso   1.00
C883   C     0.82626   0.25467   0.52602   0.00000  Uiso   1.00
C884   C     0.82703   0.25495   0.97258   0.00000  Uiso   1.00
C885   C     0.73424   0.24955   0.73808   0.00000  Uiso   1.00
C886   C     0.93268   0.24877   0.76159   0.00000  Uiso   1.00
C887   C     0.68079   0.25400   0.73150   0.00000  Uiso   1.00
C888   C     0.98626   0.24082   0.76631   0.00000  Uiso   1.00
C889   C     0.86800   0.04192   0.77877   0.00000  Uiso   1.00
C890   C     0.82271   0.45596   0.71027   0.00000  Uiso   1.00
C891   C     0.85138   0.08570   0.78611   0.00000  Uiso   1.00
C892   C     0.83628   0.33674   0.75057   0.00000  Uiso   1.00
C893   C     0.81105   0.41163   0.71801   0.00000  Uiso   1.00
C894   C     0.83571   0.11269   0.74597   0.00000  Uiso   1.00
C895   C     0.84413   0.38589   0.74995   0.00000  Uiso   1.00
C896   C     0.83110   0.09187   0.69973   0.00000  Uiso   1.00
C897   C     0.88983   0.40581   0.77300   0.00000  Uiso   1.00
C898   C     0.85515   0.05001   0.69317   0.00000  Uiso   1.00
C899   C     0.90494   0.44838   0.75778   0.00000  Uiso   1.00
C900   C     0.87006   0.02393   0.73324   0.00000  Uiso   1.00
C901   C     0.86893   0.47459   0.72976   0.00000  Uiso   1.00
C902   C     0.73564   0.22348   0.52216   0.00000  Uiso   1.00
C903   C     0.78591   0.23581   0.54859   0.00000  Uiso   1.00
C904   C     0.70962   0.25362   0.98979   0.00000  Uiso   1.00
C905   C     0.99478   0.24277   0.96652   0.00000  Uiso   1.00
C906   C     0.97172   0.20213   0.97577   0.00000  Uiso   1.00
C907   C     0.99703   0.17201   0.50793   0.00000  Uiso   1.00
C908   C     0.71206   0.18254   0.53103   0.00000  Uiso   1.00
C909   C     0.85996   0.33593   0.97162   0.00000  Uiso   1.00
C910   C     0.82449   0.35900   0.99674   0.00000  Uiso   1.00
C911   C     0.83658   0.40102   0.51821   0.00000  Uiso   1.00
C912   C     0.88390   0.42059   0.51447   0.00000  Uiso   1.00
C913   C     0.91927   0.39814   0.98931   0.00000  Uiso   1.00
C914   C     0.84714   0.29140   0.94846   0.00000  Uiso   1.00
C915   C     0.90741   0.35605   0.96790   0.00000  Uiso   1.00
C916   C     0.79198   0.23233   0.59885   0.00000  Uiso   1.00
C917   C     0.85206   0.28646   0.89954   0.00000  Uiso   1.00
C918   C     0.86732   0.27429   0.60504   0.00000  Uiso   1.00
C919   C     0.81113   0.21621   0.89555   0.00000  Uiso   1.00
C920   C     0.86752   0.27320   0.55582   0.00000  Uiso   1.00
H921   H     0.87582   0.01991   0.80887   0.00000  Uiso   1.00
H922   H     0.95757   0.19486   0.86722   0.00000  Uiso   1.00
H923   H     0.88114   0.13889   0.90213   0.00000  Uiso   1.00
H924   H     0.78354   0.38710   0.62046   0.00000  Uiso   1.00
H925   H     0.71651   0.15256   0.64853   0.00000  Uiso   1.00
H926   H     0.86415   0.42248   0.86825   0.00000  Uiso   1.00
H927   H     0.92645   0.48820   0.60943   0.00000  Uiso   1.00
H928   H     0.68438   0.01332   0.73731   0.00000  Uiso   1.00
H929   H     0.72630   0.28569   0.98283   0.00000  Uiso   1.00
H930   H     0.97521   0.26592   0.94139   0.00000  Uiso   1.00
H931   H     0.93423   0.19404   0.95804   0.00000  Uiso   1.00
H932   H     0.79446   0.47690   0.69014   0.00000  Uiso   1.00
H933   H     0.97915   0.14048   0.51505   0.00000  Uiso   1.00
H934   H     0.73106   0.15870   0.55573   0.00000  Uiso   1.00
H935   H     0.78749   0.34457   0.99964   0.00000  Uiso   1.00
H936   H     0.80915   0.41853   0.53758   0.00000  Uiso   1.00
H937   H     0.89305   0.45323   0.53085   0.00000  Uiso   1.00
H938   H     0.95586   0.41339   0.98631   0.00000  Uiso   1.00
H939   H     0.93526   0.33919   0.94853   0.00000  Uiso   1.00
H940   H     0.76183   0.21791   0.61636   0.00000  Uiso   1.00
H941   H     0.86889   0.31263   0.88127   0.00000  Uiso   1.00
H942   H     0.89382   0.29551   0.62597   0.00000  Uiso   1.00
H943   H     0.79398   0.18868   0.87456   0.00000  Uiso   1.00
H944   H     0.89948   0.28822   0.54144   0.00000  Uiso   1.00
H945   H     0.79497   0.18778   0.96105   0.00000  Uiso   1.00
H946   H     0.68191   0.30357   0.61174   0.00000  Uiso   1.00
N947   N     0.83333   0.24999   0.62624   0.00000  Uiso   1.00
N948   N     0.83333   0.25001   0.87376   0.00000  Uiso   1.00
O949   O     0.83334   0.18454   0.78974   0.00000  Uiso   1.00
O950   O     0.95606   0.31799   0.68585   0.00000  Uiso   1.00
O951   O     0.70073   0.29670   0.64319   0.00000  Uiso   1.00
O952   O     0.71440   0.17276   0.80090   0.00000  Uiso   1.00
O953   O     0.70270   0.23701   0.85468   0.00000  Uiso   1.00
O954   O     0.96296   0.17893   0.83714   0.00000  Uiso   1.00
O955   O     0.78506   0.11302   0.84467   0.00000  Uiso   1.00
O956   O     0.85018   0.05978   0.87695   0.00000  Uiso   1.00
O957   O     0.87813   0.14204   0.86714   0.00000  Uiso   1.00
O958   O     0.72989   0.35816   0.71944   0.00000  Uiso   1.00
O959   O     0.71598   0.42819   0.67527   0.00000  Uiso   1.00
O960   O     0.83333   0.31547   0.71026   0.00000  Uiso   1.00
O961   O     0.76659   0.36409   0.63802   0.00000  Uiso   1.00
O962   O     0.81297   0.13684   0.61807   0.00000  Uiso   1.00
O963   O     0.75664   0.07344   0.62848   0.00000  Uiso   1.00
O964   O     0.74320   0.14705   0.67546   0.00000  Uiso   1.00
O965   O     0.93254   0.33678   0.82438   0.00000  Uiso   1.00
O966   O     0.96172   0.41117   0.85220   0.00000  Uiso   1.00
O967   O     0.87031   0.38963   0.86486   0.00000  Uiso   1.00
O968   O     0.82190   0.00660   0.61044   0.00000  Uiso   1.00
O969   O     0.88235   0.06850   0.60672   0.00000  Uiso   1.00
O970   O     0.91656   0.49258   0.64188   0.00000  Uiso   1.00
O971   O     0.83334   0.18453   0.71026   0.00000  Uiso   1.00
O972   O     0.97361   0.49441   0.81782   0.00000  Uiso   1.00
O973   O     0.67240   0.43071   0.77300   0.00000  Uiso   1.00
O974   O     0.98157   0.00480   0.72847   0.00000  Uiso   1.00
O975   O     0.83333   0.31547   0.78974   0.00000  Uiso   1.00
O976   O     0.75725   0.25000   0.78045   0.00000  Uiso   1.00
O977   O     0.90942   0.25000   0.71955   0.00000  Uiso   1.00
O978   O     0.75725   0.25000   0.70097   0.00000  Uiso   1.00
O979   O     0.90942   0.25001   0.79903   0.00000  Uiso   1.00
O980   O     0.96053   0.24187   0.64729   0.00000  Uiso   1.00
S981   S     0.98955   0.27846   0.67602   0.00000  Uiso   1.00
S982   S     0.67691   0.20697   0.81585   0.00000  Uiso   1.00
S983   S     0.84003   0.09974   0.84509   0.00000  Uiso   1.00
S984   S     0.75328   0.39057   0.68816   0.00000  Uiso   1.00
S985   S     0.78559   0.11223   0.65332   0.00000  Uiso   1.00
S986   S     0.91664   0.38514   0.82908   0.00000  Uiso   1.00
S987   S     0.86793   0.02980   0.63593   0.00000  Uiso   1.00
S988   S     0.96827   0.46925   0.77093   0.00000  Uiso   1.00
Zn989  Zn    0.83333   0.25001   0.80307   0.00000  Uiso   1.00
Zn990  Zn    0.83333   0.25000   0.69693   0.00000  Uiso   1.00
C991   C     0.16545   0.66275   0.74926   0.00000  Uiso   1.00
C992   C     0.14322   0.71690   0.94488   0.00000  Uiso   1.00
C993   C     0.15960   0.75467   0.52602   0.00000  Uiso   1.00
C994   C     0.16036   0.75495   0.97258   0.00000  Uiso   1.00
C995   C     0.06758   0.74955   0.73808   0.00000  Uiso   1.00
C996   C     0.26602   0.74877   0.76159   0.00000  Uiso   1.00
C997   C     0.01413   0.75400   0.73150   0.00000  Uiso   1.00
C998   C     0.31959   0.74082   0.76631   0.00000  Uiso   1.00
C999   C     0.20134   0.54192   0.77877   0.00000  Uiso   1.00
C1000  C     0.15604   0.95596   0.71027   0.00000  Uiso   1.00
C1001  C     0.18471   0.58570   0.78611   0.00000  Uiso   1.00
C1002  C     0.16962   0.83674   0.75057   0.00000  Uiso   1.00
C1003  C     0.14438   0.91163   0.71801   0.00000  Uiso   1.00
C1004  C     0.16904   0.61269   0.74597   0.00000  Uiso   1.00
C1005  C     0.17747   0.88589   0.74995   0.00000  Uiso   1.00
C1006  C     0.16444   0.59187   0.69973   0.00000  Uiso   1.00
C1007  C     0.22316   0.90581   0.77300   0.00000  Uiso   1.00
C1008  C     0.18849   0.55001   0.69317   0.00000  Uiso   1.00
C1009  C     0.23828   0.94838   0.75778   0.00000  Uiso   1.00
C1010  C     0.20339   0.52393   0.73324   0.00000  Uiso   1.00
C1011  C     0.20227   0.97459   0.72976   0.00000  Uiso   1.00
C1012  C     0.06897   0.72348   0.52216   0.00000  Uiso   1.00
C1013  C     0.11924   0.73581   0.54859   0.00000  Uiso   1.00
C1014  C     0.04296   0.75362   0.98979   0.00000  Uiso   1.00
C1015  C     0.32811   0.74277   0.96652   0.00000  Uiso   1.00
C1016  C     0.30505   0.70213   0.97577   0.00000  Uiso   1.00
C1017  C     0.33037   0.67201   0.50793   0.00000  Uiso   1.00
C1018  C     0.04539   0.68254   0.53103   0.00000  Uiso   1.00
C1019  C     0.19330   0.83593   0.97162   0.00000  Uiso   1.00
C1020  C     0.15783   0.85900   0.99674   0.00000  Uiso   1.00
C1021  C     0.16991   0.90102   0.51821   0.00000  Uiso   1.00
C1022  C     0.21723   0.92059   0.51447   0.00000  Uiso   1.00
C1023  C     0.25260   0.89814   0.98931   0.00000  Uiso   1.00
C1024  C     0.18047   0.79140   0.94846   0.00000  Uiso   1.00
C1025  C     0.24075   0.85605   0.96790   0.00000  Uiso   1.00
C1026  C     0.12531   0.73233   0.59885   0.00000  Uiso   1.00
C1027  C     0.18539   0.78646   0.89954   0.00000  Uiso   1.00
C1028  C     0.20065   0.77429   0.60504   0.00000  Uiso   1.00
C1029  C     0.14446   0.71621   0.89555   0.00000  Uiso   1.00
C1030  C     0.20085   0.77320   0.55582   0.00000  Uiso   1.00
H1031  H     0.20915   0.51991   0.80887   0.00000  Uiso   1.00
H1032  H     0.29090   0.69486   0.86722   0.00000  Uiso   1.00
H1033  H     0.21448   0.63889   0.90213   0.00000  Uiso   1.00
H1034  H     0.11688   0.88710   0.62046   0.00000  Uiso   1.00
H1035  H     0.04984   0.65256   0.64853   0.00000  Uiso   1.00
H1036  H     0.19748   0.92248   0.86825   0.00000  Uiso   1.00
H1037  H     0.25978   0.98820   0.60943   0.00000  Uiso   1.00
H1038  H     0.01771   0.51332   0.73731   0.00000  Uiso   1.00
H1039  H     0.05963   0.78569   0.98283   0.00000  Uiso   1.00
H1040  H     0.30854   0.76592   0.94139   0.00000  Uiso   1.00
H1041  H     0.26756   0.69404   0.95804   0.00000  Uiso   1.00
H1042  H     0.12779   0.97690   0.69014   0.00000  Uiso   1.00
H1043  H     0.31248   0.64048   0.51505   0.00000  Uiso   1.00
H1044  H     0.06439   0.65870   0.55573   0.00000  Uiso   1.00
H1045  H     0.12082   0.84457   0.99964   0.00000  Uiso   1.00
H1046  H     0.14248   0.91853   0.53758   0.00000  Uiso   1.00
H1047  H     0.22638   0.95323   0.53085   0.00000  Uiso   1.00
H1048  H     0.28920   0.91339   0.98631   0.00000  Uiso   1.00
H1049  H     0.26860   0.83919   0.94853   0.00000  Uiso   1.00
H1050  H     0.09516   0.71791   0.61636   0.00000  Uiso   1.00
H1051  H     0.20223   0.81263   0.88127   0.00000  Uiso   1.00
H1052  H     0.22715   0.79551   0.62597   0.00000  Uiso   1.00
H1053  H     0.12731   0.68868   0.87456   0.00000  Uiso   1.00
H1054  H     0.23281   0.78822   0.54144   0.00000  Uiso   1.00
H1055  H     0.12830   0.68778   0.96105   0.00000  Uiso   1.00
H1056  H     0.01524   0.80357   0.61174   0.00000  Uiso   1.00
N1057  N     0.16667   0.74999   0.62624   0.00000  Uiso   1.00
N1058  N     0.16667   0.75001   0.87376   0.00000  Uiso   1.00
O1059  O     0.16667   0.68454   0.78974   0.00000  Uiso   1.00
O1060  O     0.28939   0.81799   0.68585   0.00000  Uiso   1.00
O1061  O     0.03406   0.79670   0.64319   0.00000  Uiso   1.00
O1062  O     0.04774   0.67276   0.80090   0.00000  Uiso   1.00
O1063  O     0.03603   0.73701   0.85468   0.00000  Uiso   1.00
O1064  O     0.29630   0.67893   0.83714   0.00000  Uiso   1.00
O1065  O     0.11839   0.61302   0.84467   0.00000  Uiso   1.00
O1066  O     0.18352   0.55978   0.87695   0.00000  Uiso   1.00
O1067  O     0.21146   0.64204   0.86714   0.00000  Uiso   1.00
O1068  O     0.06322   0.85816   0.71944   0.00000  Uiso   1.00
O1069  O     0.04931   0.92819   0.67527   0.00000  Uiso   1.00
O1070  O     0.16666   0.81547   0.71026   0.00000  Uiso   1.00
O1071  O     0.09992   0.86409   0.63802   0.00000  Uiso   1.00
O1072  O     0.14631   0.63684   0.61807   0.00000  Uiso   1.00
O1073  O     0.08997   0.57344   0.62848   0.00000  Uiso   1.00
O1074  O     0.07654   0.64705   0.67546   0.00000  Uiso   1.00
O1075  O     0.26588   0.83678   0.82438   0.00000  Uiso   1.00
O1076  O     0.29505   0.91117   0.85220   0.00000  Uiso   1.00
O1077  O     0.20364   0.88963   0.86486   0.00000  Uiso   1.00
O1078  O     0.15524   0.50660   0.61044   0.00000  Uiso   1.00
O1079  O     0.21569   0.56850   0.60672   0.00000  Uiso   1.00
O1080  O     0.24989   0.99258   0.64188   0.00000  Uiso   1.00
O1081  O     0.16667   0.68453   0.71026   0.00000  Uiso   1.00
O1082  O     0.30694   0.99441   0.81782   0.00000  Uiso   1.00
O1083  O     0.00573   0.93071   0.77300   0.00000  Uiso   1.00
O1084  O     0.31490   0.50480   0.72847   0.00000  Uiso   1.00
O1085  O     0.16666   0.81547   0.78974   0.00000  Uiso   1.00
O1086  O     0.09058   0.75000   0.78045   0.00000  Uiso   1.00
O1087  O     0.24275   0.75000   0.71955   0.00000  Uiso   1.00
O1088  O     0.09058   0.75000   0.70097   0.00000  Uiso   1.00
O1089  O     0.24275   0.75001   0.79903   0.00000  Uiso   1.00
O1090  O     0.29386   0.74187   0.64729   0.00000  Uiso   1.00
S1091  S     0.32288   0.77846   0.67602   0.00000  Uiso   1.00
S1092  S     0.01024   0.70697   0.81585   0.00000  Uiso   1.00
S1093  S     0.17337   0.59974   0.84509   0.00000  Uiso   1.00
S1094  S     0.08662   0.89057   0.68816   0.00000  Uiso   1.00
S1095  S     0.11892   0.61223   0.65332   0.00000  Uiso   1.00
S1096  S     0.24997   0.88514   0.82908   0.00000  Uiso   1.00
S1097  S     0.20127   0.52980   0.63593   0.00000  Uiso   1.00
S1098  S     0.30160   0.96925   0.77093   0.00000  Uiso   1.00
Zn1099 Zn    0.16667   0.75001   0.80307   0.00000  Uiso   1.00
Zn1100 Zn    0.16667   0.75000   0.69693   0.00000  Uiso   1.00
C1101  C     0.49878   0.66275   0.74926   0.00000  Uiso   1.00
C1102  C     0.47655   0.71690   0.94488   0.00000  Uiso   1.00
C1103  C     0.49293   0.75467   0.52602   0.00000  Uiso   1.00
C1104  C     0.49369   0.75495   0.97258   0.00000  Uiso   1.00
C1105  C     0.40091   0.74955   0.73808   0.00000  Uiso   1.00
C1106  C     0.59935   0.74877   0.76159   0.00000  Uiso   1.00
C1107  C     0.34746   0.75400   0.73150   0.00000  Uiso   1.00
C1108  C     0.65292   0.74082   0.76631   0.00000  Uiso   1.00
C1109  C     0.53467   0.54192   0.77877   0.00000  Uiso   1.00
C1110  C     0.48938   0.95596   0.71027   0.00000  Uiso   1.00
C1111  C     0.51804   0.58570   0.78611   0.00000  Uiso   1.00
C1112  C     0.50295   0.83674   0.75057   0.00000  Uiso   1.00
C1113  C     0.47771   0.91163   0.71801   0.00000  Uiso   1.00
C1114  C     0.50238   0.61269   0.74597   0.00000  Uiso   1.00
C1115  C     0.51080   0.88589   0.74995   0.00000  Uiso   1.00
C1116  C     0.49777   0.59187   0.69973   0.00000  Uiso   1.00
C1117  C     0.55650   0.90581   0.77300   0.00000  Uiso   1.00
C1118  C     0.52182   0.55001   0.69317   0.00000  Uiso   1.00
C1119  C     0.57161   0.94838   0.75778   0.00000  Uiso   1.00
C1120  C     0.53673   0.52393   0.73324   0.00000  Uiso   1.00
C1121  C     0.53560   0.97459   0.72976   0.00000  Uiso   1.00
C1122  C     0.40231   0.72348   0.52216   0.00000  Uiso   1.00
C1123  C     0.45257   0.73581   0.54859   0.00000  Uiso   1.00
C1124  C     0.37629   0.75362   0.98979   0.00000  Uiso   1.00
C1125  C     0.66145   0.74277   0.96652   0.00000  Uiso   1.00
C1126  C     0.63838   0.70213   0.97577   0.00000  Uiso   1.00
C1127  C     0.66370   0.67201   0.50793   0.00000  Uiso   1.00
C1128  C     0.37872   0.68254   0.53103   0.00000  Uiso   1.00
C1129  C     0.52663   0.83593   0.97162   0.00000  Uiso   1.00
C1130  C     0.49116   0.85900   0.99674   0.00000  Uiso   1.00
C1131  C     0.50324   0.90102   0.51821   0.00000  Uiso   1.00
C1132  C     0.55056   0.92059   0.51447   0.00000  Uiso   1.00
C1133  C     0.58593   0.89814   0.98931   0.00000  Uiso   1.00
C1134  C     0.51380   0.79140   0.94846   0.00000  Uiso   1.00
C1135  C     0.57408   0.85605   0.96790   0.00000  Uiso   1.00
C1136  C     0.45865   0.73233   0.59885   0.00000  Uiso   1.00
C1137  C     0.51873   0.78646   0.89954   0.00000  Uiso   1.00
C1138  C     0.53399   0.77429   0.60504   0.00000  Uiso   1.00
C1139  C     0.47780   0.71621   0.89555   0.00000  Uiso   1.00
C1140  C     0.53419   0.77320   0.55582   0.00000  Uiso   1.00
H1141  H     0.54249   0.51991   0.80887   0.00000  Uiso   1.00
H1142  H     0.62423   0.69486   0.86722   0.00000  Uiso   1.00
H1143  H     0.54781   0.63889   0.90213   0.00000  Uiso   1.00
H1144  H     0.45021   0.88710   0.62046   0.00000  Uiso   1.00
H1145  H     0.38317   0.65256   0.64853   0.00000  Uiso   1.00
H1146  H     0.53082   0.92248   0.86825   0.00000  Uiso   1.00
H1147  H     0.59312   0.98820   0.60943   0.00000  Uiso   1.00
H1148  H     0.35104   0.51332   0.73731   0.00000  Uiso   1.00
H1149  H     0.39296   0.78569   0.98283   0.00000  Uiso   1.00
H1150  H     0.64188   0.76592   0.94139   0.00000  Uiso   1.00
H1151  H     0.60089   0.69404   0.95804   0.00000  Uiso   1.00
H1152  H     0.46113   0.97690   0.69014   0.00000  Uiso   1.00
H1153  H     0.64581   0.64048   0.51505   0.00000  Uiso   1.00
H1154  H     0.39772   0.65870   0.55573   0.00000  Uiso   1.00
H1155  H     0.45415   0.84457   0.99964   0.00000  Uiso   1.00
H1156  H     0.47582   0.91853   0.53758   0.00000  Uiso   1.00
H1157  H     0.55972   0.95323   0.53085   0.00000  Uiso   1.00
H1158  H     0.62253   0.91339   0.98631   0.00000  Uiso   1.00
H1159  H     0.60193   0.83919   0.94853   0.00000  Uiso   1.00
H1160  H     0.42850   0.71791   0.61636   0.00000  Uiso   1.00
H1161  H     0.53556   0.81263   0.88127   0.00000  Uiso   1.00
H1162  H     0.56048   0.79551   0.62597   0.00000  Uiso   1.00
H1163  H     0.46065   0.68868   0.87456   0.00000  Uiso   1.00
H1164  H     0.56615   0.78822   0.54144   0.00000  Uiso   1.00
H1165  H     0.46164   0.68778   0.96105   0.00000  Uiso   1.00
H1166  H     0.34857   0.80357   0.61174   0.00000  Uiso   1.00
N1167  N     0.50000   0.74999   0.62624   0.00000  Uiso   1.00
N1168  N     0.50000   0.75001   0.87376   0.00000  Uiso   1.00
O1169  O     0.50000   0.68454   0.78974   0.00000  Uiso   1.00
O1170  O     0.62272   0.81799   0.68585   0.00000  Uiso   1.00
O1171  O     0.36740   0.79670   0.64319   0.00000  Uiso   1.00
O1172  O     0.38107   0.67276   0.80090   0.00000  Uiso   1.00
O1173  O     0.36937   0.73701   0.85468   0.00000  Uiso   1.00
O1174  O     0.62963   0.67893   0.83714   0.00000  Uiso   1.00
O1175  O     0.45172   0.61302   0.84467   0.00000  Uiso   1.00
O1176  O     0.51685   0.55978   0.87695   0.00000  Uiso   1.00
O1177  O     0.54480   0.64204   0.86714   0.00000  Uiso   1.00
O1178  O     0.39656   0.85816   0.71944   0.00000  Uiso   1.00
O1179  O     0.38264   0.92819   0.67527   0.00000  Uiso   1.00
O1180  O     0.50000   0.81547   0.71026   0.00000  Uiso   1.00
O1181  O     0.43325   0.86409   0.63802   0.00000  Uiso   1.00
O1182  O     0.47964   0.63684   0.61807   0.00000  Uiso   1.00
O1183  O     0.42331   0.57344   0.62848   0.00000  Uiso   1.00
O1184  O     0.40987   0.64705   0.67546   0.00000  Uiso   1.00
O1185  O     0.59921   0.83678   0.82438   0.00000  Uiso   1.00
O1186  O     0.62839   0.91117   0.85220   0.00000  Uiso   1.00
O1187  O     0.53698   0.88963   0.86486   0.00000  Uiso   1.00
O1188  O     0.48857   0.50660   0.61044   0.00000  Uiso   1.00
O1189  O     0.54902   0.56850   0.60672   0.00000  Uiso   1.00
O1190  O     0.58322   0.99258   0.64188   0.00000  Uiso   1.00
O1191  O     0.50000   0.68453   0.71026   0.00000  Uiso   1.00
O1192  O     0.64027   0.99441   0.81782   0.00000  Uiso   1.00
O1193  O     0.33907   0.93071   0.77300   0.00000  Uiso   1.00
O1194  O     0.64824   0.50480   0.72847   0.00000  Uiso   1.00
O1195  O     0.50000   0.81547   0.78974   0.00000  Uiso   1.00
O1196  O     0.42392   0.75000   0.78045   0.00000  Uiso   1.00
O1197  O     0.57608   0.75000   0.71955   0.00000  Uiso   1.00
O1198  O     0.42392   0.75000   0.70097   0.00000  Uiso   1.00
O1199  O     0.57608   0.75001   0.79903   0.00000  Uiso   1.00
O1200  O     0.62719   0.74187   0.64729   0.00000  Uiso   1.00
S1201  S     0.65621   0.77846   0.67602   0.00000  Uiso   1.00
S1202  S     0.34358   0.70697   0.81585   0.00000  Uiso   1.00
S1203  S     0.50670   0.59974   0.84509   0.00000  Uiso   1.00
S1204  S     0.41995   0.89057   0.68816   0.00000  Uiso   1.00
S1205  S     0.45225   0.61223   0.65332   0.00000  Uiso   1.00
S1206  S     0.58331   0.88514   0.82908   0.00000  Uiso   1.00
S1207  S     0.53460   0.52980   0.63593   0.00000  Uiso   1.00
S1208  S     0.63493   0.96925   0.77093   0.00000  Uiso   1.00
Zn1209 Zn    0.50000   0.75001   0.80307   0.00000  Uiso   1.00
Zn1210 Zn    0.50000   0.75000   0.69693   0.00000  Uiso   1.00
C1211  C     0.83211   0.66275   0.74926   0.00000  Uiso   1.00
C1212  C     0.80989   0.71690   0.94488   0.00000  Uiso   1.00
C1213  C     0.82626   0.75467   0.52602   0.00000  Uiso   1.00
C1214  C     0.82703   0.75495   0.97258   0.00000  Uiso   1.00
C1215  C     0.73424   0.74955   0.73808   0.00000  Uiso   1.00
C1216  C     0.93268   0.74877   0.76159   0.00000  Uiso   1.00
C1217  C     0.68079   0.75400   0.73150   0.00000  Uiso   1.00
C1218  C     0.98626   0.74082   0.76631   0.00000  Uiso   1.00
C1219  C     0.86800   0.54192   0.77877   0.00000  Uiso   1.00
C1220  C     0.82271   0.95596   0.71027   0.00000  Uiso   1.00
C1221  C     0.85138   0.58570   0.78611   0.00000  Uiso   1.00
C1222  C     0.83628   0.83674   0.75057   0.00000  Uiso   1.00
C1223  C     0.81105   0.91163   0.71801   0.00000  Uiso   1.00
C1224  C     0.83571   0.61269   0.74597   0.00000  Uiso   1.00
C1225  C     0.84413   0.88589   0.74995   0.00000  Uiso   1.00
C1226  C     0.83110   0.59187   0.69973   0.00000  Uiso   1.00
C1227  C     0.88983   0.90581   0.77300   0.00000  Uiso   1.00
C1228  C     0.85515   0.55001   0.69317   0.00000  Uiso   1.00
C1229  C     0.90494   0.94838   0.75778   0.00000  Uiso   1.00
C1230  C     0.87006   0.52393   0.73324   0.00000  Uiso   1.00
C1231  C     0.86893   0.97459   0.72976   0.00000  Uiso   1.00
C1232  C     0.73564   0.72348   0.52216   0.00000  Uiso   1.00
C1233  C     0.78591   0.73581   0.54859   0.00000  Uiso   1.00
C1234  C     0.70962   0.75362   0.98979   0.00000  Uiso   1.00
C1235  C     0.99478   0.74277   0.96652   0.00000  Uiso   1.00
C1236  C     0.97172   0.70213   0.97577   0.00000  Uiso   1.00
C1237  C     0.99703   0.67201   0.50793   0.00000  Uiso   1.00
C1238  C     0.71206   0.68254   0.53103   0.00000  Uiso   1.00
C1239  C     0.85996   0.83593   0.97162   0.00000  Uiso   1.00
C1240  C     0.82449   0.85900   0.99674   0.00000  Uiso   1.00
C1241  C     0.83658   0.90102   0.51821   0.00000  Uiso   1.00
C1242  C     0.88390   0.92059   0.51447   0.00000  Uiso   1.00
C1243  C     0.91927   0.89814   0.98931   0.00000  Uiso   1.00
C1244  C     0.84714   0.79140   0.94846   0.00000  Uiso   1.00
C1245  C     0.90741   0.85605   0.96790   0.00000  Uiso   1.00
C1246  C     0.79198   0.73233   0.59885   0.00000  Uiso   1.00
C1247  C     0.85206   0.78646   0.89954   0.00000  Uiso   1.00
C1248  C     0.86732   0.77429   0.60504   0.00000  Uiso   1.00
C1249  C     0.81113   0.71621   0.89555   0.00000  Uiso   1.00
C1250  C     0.86752   0.77320   0.55582   0.00000  Uiso   1.00
H1251  H     0.87582   0.51991   0.80887   0.00000  Uiso   1.00
H1252  H     0.95757   0.69486   0.86722   0.00000  Uiso   1.00
H1253  H     0.88114   0.63889   0.90213   0.00000  Uiso   1.00
H1254  H     0.78354   0.88710   0.62046   0.00000  Uiso   1.00
H1255  H     0.71651   0.65256   0.64853   0.00000  Uiso   1.00
H1256  H     0.86415   0.92248   0.86825   0.00000  Uiso   1.00
H1257  H     0.92645   0.98820   0.60943   0.00000  Uiso   1.00
H1258  H     0.68438   0.51332   0.73731   0.00000  Uiso   1.00
H1259  H     0.72630   0.78569   0.98283   0.00000  Uiso   1.00
H1260  H     0.97521   0.76592   0.94139   0.00000  Uiso   1.00
H1261  H     0.93423   0.69404   0.95804   0.00000  Uiso   1.00
H1262  H     0.79446   0.97690   0.69014   0.00000  Uiso   1.00
H1263  H     0.97915   0.64048   0.51505   0.00000  Uiso   1.00
H1264  H     0.73106   0.65870   0.55573   0.00000  Uiso   1.00
H1265  H     0.78749   0.84457   0.99964   0.00000  Uiso   1.00
H1266  H     0.80915   0.91853   0.53758   0.00000  Uiso   1.00
H1267  H     0.89305   0.95323   0.53085   0.00000  Uiso   1.00
H1268  H     0.95586   0.91339   0.98631   0.00000  Uiso   1.00
H1269  H     0.93526   0.83919   0.94853   0.00000  Uiso   1.00
H1270  H     0.76183   0.71791   0.61636   0.00000  Uiso   1.00
H1271  H     0.86889   0.81263   0.88127   0.00000  Uiso   1.00
H1272  H     0.89382   0.79551   0.62597   0.00000  Uiso   1.00
H1273  H     0.79398   0.68868   0.87456   0.00000  Uiso   1.00
H1274  H     0.89948   0.78822   0.54144   0.00000  Uiso   1.00
H1275  H     0.79497   0.68778   0.96105   0.00000  Uiso   1.00
H1276  H     0.68191   0.80357   0.61174   0.00000  Uiso   1.00
N1277  N     0.83333   0.74999   0.62624   0.00000  Uiso   1.00
N1278  N     0.83333   0.75001   0.87376   0.00000  Uiso   1.00
O1279  O     0.83334   0.68454   0.78974   0.00000  Uiso   1.00
O1280  O     0.95606   0.81799   0.68585   0.00000  Uiso   1.00
O1281  O     0.70073   0.79670   0.64319   0.00000  Uiso   1.00
O1282  O     0.71440   0.67276   0.80090   0.00000  Uiso   1.00
O1283  O     0.70270   0.73701   0.85468   0.00000  Uiso   1.00
O1284  O     0.96296   0.67893   0.83714   0.00000  Uiso   1.00
O1285  O     0.78506   0.61302   0.84467   0.00000  Uiso   1.00
O1286  O     0.85018   0.55978   0.87695   0.00000  Uiso   1.00
O1287  O     0.87813   0.64204   0.86714   0.00000  Uiso   1.00
O1288  O     0.72989   0.85816   0.71944   0.00000  Uiso   1.00
O1289  O     0.71598   0.92819   0.67527   0.00000  Uiso   1.00
O1290  O     0.83333   0.81547   0.71026   0.00000  Uiso   1.00
O1291  O     0.76659   0.86409   0.63802   0.00000  Uiso   1.00
O1292  O     0.81297   0.63684   0.61807   0.00000  Uiso   1.00
O1293  O     0.75664   0.57344   0.62848   0.00000  Uiso   1.00
O1294  O     0.74320   0.64705   0.67546   0.00000  Uiso   1.00
O1295  O     0.93254   0.83678   0.82438   0.00000  Uiso   1.00
O1296  O     0.96172   0.91117   0.85220   0.00000  Uiso   1.00
O1297  O     0.87031   0.88963   0.86486   0.00000  Uiso   1.00
O1298  O     0.82190   0.50660   0.61044   0.00000  Uiso   1.00
O1299  O     0.88235   0.56850   0.60672   0.00000  Uiso   1.00
O1300  O     0.91656   0.99258   0.64188   0.00000  Uiso   1.00
O1301  O     0.83334   0.68453   0.71026   0.00000  Uiso   1.00
O1302  O     0.97361   0.99441   0.81782   0.00000  Uiso   1.00
O1303  O     0.67240   0.93071   0.77300   0.00000  Uiso   1.00
O1304  O     0.98157   0.50480   0.72847   0.00000  Uiso   1.00
O1305  O     0.83333   0.81547   0.78974   0.00000  Uiso   1.00
O1306  O     0.75725   0.75000   0.78045   0.00000  Uiso   1.00
O1307  O     0.90942   0.75000   0.71955   0.00000  Uiso   1.00
O1308  O     0.75725   0.75000   0.70097   0.00000  Uiso   1.00
O1309  O     0.90942   0.75001   0.79903   0.00000  Uiso   1.00
O1310  O     0.96053   0.74187   0.64729   0.00000  Uiso   1.00
S1311  S     0.98955   0.77846   0.67602   0.00000  Uiso   1.00
S1312  S     0.67691   0.70697   0.81585   0.00000  Uiso   1.00
S1313  S     0.84003   0.59974   0.84509   0.00000  Uiso   1.00
S1314  S     0.75328   0.89057   0.68816   0.00000  Uiso   1.00
S1315  S     0.78559   0.61223   0.65332   0.00000  Uiso   1.00
S1316  S     0.91664   0.88514   0.82908   0.00000  Uiso   1.00
S1317  S     0.86793   0.52980   0.63593   0.00000  Uiso   1.00
S1318  S     0.96827   0.96925   0.77093   0.00000  Uiso   1.00
Zn1319 Zn    0.83333   0.75001   0.80307   0.00000  Uiso   1.00
Zn1320 Zn    0.83333   0.75000   0.69693   0.00000  Uiso   1.00
loop_
_geom_bond_atom_site_label_1
_geom_bond_atom_site_label_2
_geom_bond_distance
_geom_bond_site_symmetry_2
_ccdc_geom_bond_type
C1     O91     1.293   .     A
C1     O69     1.302   .     A
C1     C14     1.488   .     S
C2     H65     1.082   .     S
C2     C39     1.401   .     A
C2     C4      1.408   .     A
C3     C23     1.427   .     A
C3     C40     1.405   .     A
C3     C664    1.516   1_554 S
C4     C34     1.426   .     A
C4     C663    1.516   .     S
C5     C7      1.407   .     S
C5     O98     1.274   .     A
C5     O96     1.279   .     A
C6     O97     1.274   .     A
C6     C8      1.423   .     S
C6     O99     1.286   .     A
C7     C228    1.361   1_455 S
C7     S321    1.791   1_455 S
C8     C117    1.361   .     S
C8     S212    1.791   .     S
C9     C20     1.392   .     A
C9     C11     1.387   .     A
C9     H41     1.082   .     S
C10    H52     1.083   .     S
C10    C21     1.392   .     A
C10    C13     1.379   .     A
C11    C14     1.421   .     A
C11    S103    1.772   .     S
C12    O95     1.296   .     A
C12    C15     1.473   .     S
C12    O80     1.288   .     A
C13    S104    1.766   .     S
C13    C15     1.411   .     A
C14    C16     1.429   .     A
C15    C17     1.428   .     A
C16    S105    1.784   .     S
C16    C18     1.409   .     A
C17    C19     1.415   .     A
C17    S106    1.778   .     S
C18    S107    1.785   .     S
C18    C20     1.401   .     A
C19    C21     1.404   .     A
C19    S108    1.782   .     S
C20    C351    1.464   1_545 S
C21    C350    1.464   .     S
C22    C28     1.407   .     A
C22    C23     1.489   .     S
C22    C684    1.408   1_554 S
C23    C36     1.418   .     A
C24    H49     1.081   .     S
C24    C682    1.408   .     S
C24    C245    1.399   1_455 S
C25    H50     1.082   .     S
C25    C26     1.396   .     A
C25    C134    1.399   .     S
C26    H51     1.082   .     S
C26    C687    1.397   .     S
C27    H53     1.082   .     S
C27    C686    1.397   1_554 S
C27    C138    1.399   .     S
C28    H54     1.082   .     S
C28    C247    1.399   1_455 S
C29    C34     1.486   .     S
C29    C30     1.407   .     A
C29    C35     1.407   .     A
C30    H55     1.081   .     S
C30    C691    1.398   .     S
C31    C32     1.397   .     A
C31    H56     1.082   .     S
C31    C690    1.398   1_554 S
C32    H57     1.082   .     S
C32    C693    1.397   1_554 S
C33    H58     1.082   .     S
C33    C35     1.398   .     A
C33    C692    1.397   .     S
C34    C37     1.411   .     A
C35    H59     1.082   .     S
C36    N67     1.364   .     A
C36    H60     1.080   .     S
C37    N68     1.356   .     A
C37    H61     1.068   .     S
C38    N67     1.354   .     A
C38    C40     1.394   .     A
C38    H62     1.064   .     S
C39    N68     1.357   .     A
C39    H63     1.071   .     S
C40    H64     1.081   .     S
H42    O74     0.990   .     S
H43    O77     0.990   .     S
H44    O81     0.991   .     S
H45    O84     0.991   .     S
H46    O87     0.991   .     S
H47    O90     0.990   .     S
H48    O314    0.991   1_455 S
H66    O71     0.991   .     S
N67    Zn110   2.001   .     S
N68    Zn109   2.001   .     S
O69    Zn109   1.970   .     S
O70    S101    1.504   .     D
O71    S321    1.679   1_455 S
O72    S102    1.502   .     D
O73    S102    1.504   .     D
O74    S212    1.679   .     S
O75    S103    1.500   .     D
O76    S103    1.505   .     D
O77    S103    1.677   .     S
O78    S104    1.501   .     D
O79    S104    1.504   .     D
O80    Zn110   1.970   .     S
O81    S104    1.681   .     S
O82    S105    1.501   .     D
O83    S105    1.502   .     D
O84    S105    1.684   .     S
O85    S106    1.499   .     D
O86    S106    1.500   .     D
O87    S106    1.680   .     S
O88    S107    1.502   .     D
O89    S107    1.503   .     D
O90    S437    1.682   .     S
O91    Zn110   1.983   .     S
O92    S108    1.503   .     D
O93    S328    1.503   1_455 S
O94    H158    0.991   .     S
O94    S438    1.682   1_545 S
O95    Zn109   1.983   .     S
O96    Zn109   2.035   .     S
O97    Zn110   2.035   .     S
O98    Zn110   2.025   .     S
O99    Zn109   2.025   .     S
O100   S101    1.502   .     D
S101   C117    1.791   .     S
S101   O181    1.679   .     S
S102   O294    1.679   1_455 S
S102   C228    1.791   1_455 S
S107   O420    1.682   1_545 S
S108   O203    1.503   .     S
S108   O424    1.682   .     S
C111   O201    1.293   .     A
C111   O179    1.302   .     A
C111   C124    1.488   .     S
C112   H175    1.082   .     S
C112   C149    1.401   .     A
C112   C114    1.408   .     A
C113   C133    1.427   .     A
C113   C150    1.405   .     A
C113   C774    1.516   1_554 S
C114   C144    1.426   .     A
C114   C773    1.516   .     S
C115   C117    1.407   .     S
C115   O208    1.274   .     A
C115   O206    1.279   .     A
C116   O207    1.274   .     A
C116   C118    1.423   .     S
C116   O209    1.286   .     A
C118   C227    1.361   .     S
C118   S322    1.791   .     S
C119   C130    1.392   .     A
C119   C121    1.387   .     A
C119   H151    1.082   .     S
C120   H162    1.083   .     S
C120   C131    1.392   .     A
C120   C123    1.379   .     A
C121   C124    1.421   .     A
C121   S213    1.772   .     S
C122   O205    1.296   .     A
C122   C125    1.473   .     S
C122   O190    1.288   .     A
C123   S214    1.766   .     S
C123   C125    1.411   .     A
C124   C126    1.429   .     A
C125   C127    1.428   .     A
C126   S215    1.784   .     S
C126   C128    1.409   .     A
C127   C129    1.415   .     A
C127   S216    1.778   .     S
C128   S217    1.785   .     S
C128   C130    1.401   .     A
C129   C131    1.404   .     A
C129   S218    1.782   .     S
C130   C461    1.464   1_545 S
C131   C460    1.464   .     S
C132   C138    1.407   .     A
C132   C133    1.489   .     S
C132   C794    1.408   1_554 S
C133   C146    1.418   .     A
C134   H159    1.081   .     S
C134   C792    1.408   .     S
C135   H160    1.082   .     S
C135   C136    1.396   .     A
C135   C244    1.399   .     S
C136   H161    1.082   .     S
C136   C797    1.397   .     S
C137   H163    1.082   .     S
C137   C796    1.397   1_554 S
C137   C248    1.399   .     S
C138   H164    1.082   .     S
C139   C144    1.486   .     S
C139   C140    1.407   .     A
C139   C145    1.407   .     A
C140   H165    1.081   .     S
C140   C801    1.398   .     S
C141   C142    1.397   .     A
C141   H166    1.082   .     S
C141   C800    1.398   1_554 S
C142   H167    1.082   .     S
C142   C803    1.397   1_554 S
C143   H168    1.082   .     S
C143   C145    1.398   .     A
C143   C802    1.397   .     S
C144   C147    1.411   .     A
C145   H169    1.082   .     S
C146   N177    1.364   .     A
C146   H170    1.080   .     S
C147   N178    1.356   .     A
C147   H171    1.068   .     S
C148   N177    1.354   .     A
C148   C150    1.394   .     A
C148   H172    1.064   .     S
C149   N178    1.357   .     A
C149   H173    1.071   .     S
C150   H174    1.081   .     S
H152   O184    0.990   .     S
H153   O187    0.990   .     S
H154   O191    0.991   .     S
H155   O194    0.991   .     S
H156   O197    0.991   .     S
H157   O200    0.990   .     S
H176   O181    0.991   .     S
N177   Zn220   2.001   .     S
N178   Zn219   2.001   .     S
O179   Zn219   1.970   .     S
O180   S211    1.504   .     D
O182   S212    1.502   .     D
O183   S212    1.504   .     D
O184   S322    1.679   .     S
O185   S213    1.500   .     D
O186   S213    1.505   .     D
O187   S213    1.677   .     S
O188   S214    1.501   .     D
O189   S214    1.504   .     D
O190   Zn220   1.970   .     S
O191   S214    1.681   .     S
O192   S215    1.501   .     D
O193   S215    1.502   .     D
O194   S215    1.684   .     S
O195   S216    1.499   .     D
O196   S216    1.500   .     D
O197   S216    1.680   .     S
O198   S217    1.502   .     D
O199   S217    1.503   .     D
O200   S547    1.682   .     S
O201   Zn220   1.983   .     S
O202   S218    1.503   .     D
O204   H268    0.991   .     S
O204   S548    1.682   1_545 S
O205   Zn219   1.983   .     S
O206   Zn219   2.035   .     S
O207   Zn220   2.035   .     S
O208   Zn220   2.025   .     S
O209   Zn219   2.025   .     S
O210   S211    1.502   .     D
S211   C227    1.791   .     S
S211   O291    1.679   .     S
S217   O530    1.682   1_545 S
S218   O313    1.503   .     S
S218   O534    1.682   .     S
C221   O311    1.293   .     A
C221   O289    1.302   .     A
C221   C234    1.488   .     S
C222   H285    1.082   .     S
C222   C259    1.401   .     A
C222   C224    1.408   .     A
C223   C243    1.427   .     A
C223   C260    1.405   .     A
C223   C884    1.516   1_554 S
C224   C254    1.426   .     A
C224   C883    1.516   .     S
C225   C227    1.407   .     S
C225   O318    1.274   .     A
C225   O316    1.279   .     A
C226   O317    1.274   .     A
C226   C228    1.423   .     S
C226   O319    1.286   .     A
C228   C7      1.361   1_655 S
C228   S102    1.791   1_655 S
C229   C240    1.392   .     A
C229   C231    1.387   .     A
C229   H261    1.082   .     S
C230   H272    1.083   .     S
C230   C241    1.392   .     A
C230   C233    1.379   .     A
C231   C234    1.421   .     A
C231   S323    1.772   .     S
C232   O315    1.296   .     A
C232   C235    1.473   .     S
C232   O300    1.288   .     A
C233   S324    1.766   .     S
C233   C235    1.411   .     A
C234   C236    1.429   .     A
C235   C237    1.428   .     A
C236   S325    1.784   .     S
C236   C238    1.409   .     A
C237   C239    1.415   .     A
C237   S326    1.778   .     S
C238   S327    1.785   .     S
C238   C240    1.401   .     A
C239   C241    1.404   .     A
C239   S328    1.782   .     S
C240   C571    1.464   1_545 S
C241   C570    1.464   .     S
C242   C248    1.407   .     A
C242   C243    1.489   .     S
C242   C904    1.408   1_554 S
C243   C256    1.418   .     A
C244   H269    1.081   .     S
C244   C902    1.408   .     S
C245   H270    1.082   .     S
C245   C246    1.396   .     A
C245   C24     1.399   1_655 S
C246   H271    1.082   .     S
C246   C907    1.397   .     S
C247   H273    1.082   .     S
C247   C906    1.397   1_554 S
C247   C28     1.399   1_655 S
C248   H274    1.082   .     S
C249   C254    1.486   .     S
C249   C250    1.407   .     A
C249   C255    1.407   .     A
C250   H275    1.081   .     S
C250   C911    1.398   .     S
C251   C252    1.397   .     A
C251   H276    1.082   .     S
C251   C910    1.398   1_554 S
C252   H277    1.082   .     S
C252   C913    1.397   1_554 S
C253   H278    1.082   .     S
C253   C255    1.398   .     A
C253   C912    1.397   .     S
C254   C257    1.411   .     A
C255   H279    1.082   .     S
C256   N287    1.364   .     A
C256   H280    1.080   .     S
C257   N288    1.356   .     A
C257   H281    1.068   .     S
C258   N287    1.354   .     A
C258   C260    1.394   .     A
C258   H282    1.064   .     S
C259   N288    1.357   .     A
C259   H283    1.071   .     S
C260   H284    1.081   .     S
H262   O294    0.990   .     S
H263   O297    0.990   .     S
H264   O301    0.991   .     S
H265   O304    0.991   .     S
H266   O307    0.991   .     S
H267   O310    0.990   .     S
H286   O291    0.991   .     S
N287   Zn330   2.001   .     S
N288   Zn329   2.001   .     S
O289   Zn329   1.970   .     S
O290   S321    1.504   .     D
O292   S322    1.502   .     D
O293   S322    1.504   .     D
O294   S102    1.679   1_655 S
O295   S323    1.500   .     D
O296   S323    1.505   .     D
O297   S323    1.677   .     S
O298   S324    1.501   .     D
O299   S324    1.504   .     D
O300   Zn330   1.970   .     S
O301   S324    1.681   .     S
O302   S325    1.501   .     D
O303   S325    1.502   .     D
O304   S325    1.684   .     S
O305   S326    1.499   .     D
O306   S326    1.500   .     D
O307   S326    1.680   .     S
O308   S327    1.502   .     D
O309   S327    1.503   .     D
O310   S657    1.682   .     S
O311   Zn330   1.983   .     S
O312   S328    1.503   .     D
O314   H48     0.991   1_655 S
O314   S658    1.682   1_545 S
O315   Zn329   1.983   .     S
O316   Zn329   2.035   .     S
O317   Zn330   2.035   .     S
O318   Zn330   2.025   .     S
O319   Zn329   2.025   .     S
O320   S321    1.502   .     D
S321   C7      1.791   1_655 S
S321   O71     1.679   1_655 S
S327   O640    1.682   1_545 S
S328   O93     1.503   1_655 S
S328   O644    1.682   .     S
C331   O421    1.293   .     A
C331   O399    1.302   .     A
C331   C344    1.488   .     S
C332   H395    1.082   .     S
C332   C369    1.401   .     A
C332   C334    1.408   .     A
C333   C353    1.427   .     A
C333   C370    1.405   .     A
C333   C994    1.516   1_554 S
C334   C364    1.426   .     A
C334   C993    1.516   .     S
C335   C337    1.407   .     S
C335   O428    1.274   .     A
C335   O426    1.279   .     A
C336   O427    1.274   .     A
C336   C338    1.423   .     S
C336   O429    1.286   .     A
C337   C558    1.361   1_455 S
C337   S651    1.791   1_455 S
C338   C447    1.361   .     S
C338   S542    1.791   .     S
C339   C350    1.392   .     A
C339   C341    1.387   .     A
C339   H371    1.082   .     S
C340   H382    1.083   .     S
C340   C351    1.392   .     A
C340   C343    1.379   .     A
C341   C344    1.421   .     A
C341   S433    1.772   .     S
C342   O425    1.296   .     A
C342   C345    1.473   .     S
C342   O410    1.288   .     A
C343   S434    1.766   .     S
C343   C345    1.411   .     A
C344   C346    1.429   .     A
C345   C347    1.428   .     A
C346   S435    1.784   .     S
C346   C348    1.409   .     A
C347   C349    1.415   .     A
C347   S436    1.778   .     S
C348   S437    1.785   .     S
C348   C350    1.401   .     A
C349   C351    1.404   .     A
C349   S438    1.782   .     S
C351   C20     1.464   1_565 S
C352   C358    1.407   .     A
C352   C353    1.489   .     S
C352   C1014   1.408   1_554 S
C353   C366    1.418   .     A
C354   H379    1.081   .     S
C354   C1012   1.408   .     S
C354   C575    1.399   1_455 S
C355   H380    1.082   .     S
C355   C356    1.396   .     A
C355   C464    1.399   .     S
C356   H381    1.082   .     S
C356   C1017   1.397   .     S
C357   H383    1.082   .     S
C357   C1016   1.397   1_554 S
C357   C468    1.399   .     S
C358   H384    1.082   .     S
C358   C577    1.399   1_455 S
C359   C364    1.486   .     S
C359   C360    1.407   .     A
C359   C365    1.407   .     A
C360   H385    1.081   .     S
C360   C1021   1.398   .     S
C361   C362    1.397   .     A
C361   H386    1.082   .     S
C361   C1020   1.398   1_554 S
C362   H387    1.082   .     S
C362   C1023   1.397   1_554 S
C363   H388    1.082   .     S
C363   C365    1.398   .     A
C363   C1022   1.397   .     S
C364   C367    1.411   .     A
C365   H389    1.082   .     S
C366   N397    1.364   .     A
C366   H390    1.080   .     S
C367   N398    1.356   .     A
C367   H391    1.068   .     S
C368   N397    1.354   .     A
C368   C370    1.394   .     A
C368   H392    1.064   .     S
C369   N398    1.357   .     A
C369   H393    1.071   .     S
C370   H394    1.081   .     S
H372   O404    0.990   .     S
H373   O407    0.990   .     S
H374   O411    0.991   .     S
H375   O414    0.991   .     S
H376   O417    0.991   .     S
H377   O420    0.990   .     S
H378   O644    0.991   1_455 S
H396   O401    0.991   .     S
N397   Zn440   2.001   .     S
N398   Zn439   2.001   .     S
O399   Zn439   1.970   .     S
O400   S431    1.504   .     D
O401   S651    1.679   1_455 S
O402   S432    1.502   .     D
O403   S432    1.504   .     D
O404   S542    1.679   .     S
O405   S433    1.500   .     D
O406   S433    1.505   .     D
O407   S433    1.677   .     S
O408   S434    1.501   .     D
O409   S434    1.504   .     D
O410   Zn440   1.970   .     S
O411   S434    1.681   .     S
O412   S435    1.501   .     D
O413   S435    1.502   .     D
O414   S435    1.684   .     S
O415   S436    1.499   .     D
O416   S436    1.500   .     D
O417   S436    1.680   .     S
O418   S437    1.502   .     D
O419   S437    1.503   .     D
O420   S107    1.682   1_565 S
O421   Zn440   1.983   .     S
O422   S438    1.503   .     D
O423   S658    1.503   1_455 S
O424   H488    0.991   .     S
O425   Zn439   1.983   .     S
O426   Zn439   2.035   .     S
O427   Zn440   2.035   .     S
O428   Zn440   2.025   .     S
O429   Zn439   2.025   .     S
O430   S431    1.502   .     D
S431   C447    1.791   .     S
S431   O511    1.679   .     S
S432   O624    1.679   1_455 S
S432   C558    1.791   1_455 S
S438   O533    1.503   .     S
S438   O94     1.682   1_565 S
C441   O531    1.293   .     A
C441   O509    1.302   .     A
C441   C454    1.488   .     S
C442   H505    1.082   .     S
C442   C479    1.401   .     A
C442   C444    1.408   .     A
C443   C463    1.427   .     A
C443   C480    1.405   .     A
C443   C1104   1.516   1_554 S
C444   C474    1.426   .     A
C444   C1103   1.516   .     S
C445   C447    1.407   .     S
C445   O538    1.274   .     A
C445   O536    1.279   .     A
C446   O537    1.274   .     A
C446   C448    1.423   .     S
C446   O539    1.286   .     A
C448   C557    1.361   .     S
C448   S652    1.791   .     S
C449   C460    1.392   .     A
C449   C451    1.387   .     A
C449   H481    1.082   .     S
C450   H492    1.083   .     S
C450   C461    1.392   .     A
C450   C453    1.379   .     A
C451   C454    1.421   .     A
C451   S543    1.772   .     S
C452   O535    1.296   .     A
C452   C455    1.473   .     S
C452   O520    1.288   .     A
C453   S544    1.766   .     S
C453   C455    1.411   .     A
C454   C456    1.429   .     A
C455   C457    1.428   .     A
C456   S545    1.784   .     S
C456   C458    1.409   .     A
C457   C459    1.415   .     A
C457   S546    1.778   .     S
C458   S547    1.785   .     S
C458   C460    1.401   .     A
C459   C461    1.404   .     A
C459   S548    1.782   .     S
C461   C130    1.464   1_565 S
C462   C468    1.407   .     A
C462   C463    1.489   .     S
C462   C1124   1.408   1_554 S
C463   C476    1.418   .     A
C464   H489    1.081   .     S
C464   C1122   1.408   .     S
C465   H490    1.082   .     S
C465   C466    1.396   .     A
C465   C574    1.399   .     S
C466   H491    1.082   .     S
C466   C1127   1.397   .     S
C467   H493    1.082   .     S
C467   C1126   1.397   1_554 S
C467   C578    1.399   .     S
C468   H494    1.082   .     S
C469   C474    1.486   .     S
C469   C470    1.407   .     A
C469   C475    1.407   .     A
C470   H495    1.081   .     S
C470   C1131   1.398   .     S
C471   C472    1.397   .     A
C471   H496    1.082   .     S
C471   C1130   1.398   1_554 S
C472   H497    1.082   .     S
C472   C1133   1.397   1_554 S
C473   H498    1.082   .     S
C473   C475    1.398   .     A
C473   C1132   1.397   .     S
C474   C477    1.411   .     A
C475   H499    1.082   .     S
C476   N507    1.364   .     A
C476   H500    1.080   .     S
C477   N508    1.356   .     A
C477   H501    1.068   .     S
C478   N507    1.354   .     A
C478   C480    1.394   .     A
C478   H502    1.064   .     S
C479   N508    1.357   .     A
C479   H503    1.071   .     S
C480   H504    1.081   .     S
H482   O514    0.990   .     S
H483   O517    0.990   .     S
H484   O521    0.991   .     S
H485   O524    0.991   .     S
H486   O527    0.991   .     S
H487   O530    0.990   .     S
H506   O511    0.991   .     S
N507   Zn550   2.001   .     S
N508   Zn549   2.001   .     S
O509   Zn549   1.970   .     S
O510   S541    1.504   .     D
O512   S542    1.502   .     D
O513   S542    1.504   .     D
O514   S652    1.679   .     S
O515   S543    1.500   .     D
O516   S543    1.505   .     D
O517   S543    1.677   .     S
O518   S544    1.501   .     D
O519   S544    1.504   .     D
O520   Zn550   1.970   .     S
O521   S544    1.681   .     S
O522   S545    1.501   .     D
O523   S545    1.502   .     D
O524   S545    1.684   .     S
O525   S546    1.499   .     D
O526   S546    1.500   .     D
O527   S546    1.680   .     S
O528   S547    1.502   .     D
O529   S547    1.503   .     D
O530   S217    1.682   1_565 S
O531   Zn550   1.983   .     S
O532   S548    1.503   .     D
O534   H598    0.991   .     S
O535   Zn549   1.983   .     S
O536   Zn549   2.035   .     S
O537   Zn550   2.035   .     S
O538   Zn550   2.025   .     S
O539   Zn549   2.025   .     S
O540   S541    1.502   .     D
S541   C557    1.791   .     S
S541   O621    1.679   .     S
S548   O643    1.503   .     S
S548   O204    1.682   1_565 S
C551   O641    1.293   .     A
C551   O619    1.302   .     A
C551   C564    1.488   .     S
C552   H615    1.082   .     S
C552   C589    1.401   .     A
C552   C554    1.408   .     A
C553   C573    1.427   .     A
C553   C590    1.405   .     A
C553   C1214   1.516   1_554 S
C554   C584    1.426   .     A
C554   C1213   1.516   .     S
C555   C557    1.407   .     S
C555   O648    1.274   .     A
C555   O646    1.279   .     A
C556   O647    1.274   .     A
C556   C558    1.423   .     S
C556   O649    1.286   .     A
C558   C337    1.361   1_655 S
C558   S432    1.791   1_655 S
C559   C570    1.392   .     A
C559   C561    1.387   .     A
C559   H591    1.082   .     S
C560   H602    1.083   .     S
C560   C571    1.392   .     A
C560   C563    1.379   .     A
C561   C564    1.421   .     A
C561   S653    1.772   .     S
C562   O645    1.296   .     A
C562   C565    1.473   .     S
C562   O630    1.288   .     A
C563   S654    1.766   .     S
C563   C565    1.411   .     A
C564   C566    1.429   .     A
C565   C567    1.428   .     A
C566   S655    1.784   .     S
C566   C568    1.409   .     A
C567   C569    1.415   .     A
C567   S656    1.778   .     S
C568   S657    1.785   .     S
C568   C570    1.401   .     A
C569   C571    1.404   .     A
C569   S658    1.782   .     S
C571   C240    1.464   1_565 S
C572   C578    1.407   .     A
C572   C573    1.489   .     S
C572   C1234   1.408   1_554 S
C573   C586    1.418   .     A
C574   H599    1.081   .     S
C574   C1232   1.408   .     S
C575   H600    1.082   .     S
C575   C576    1.396   .     A
C575   C354    1.399   1_655 S
C576   H601    1.082   .     S
C576   C1237   1.397   .     S
C577   H603    1.082   .     S
C577   C1236   1.397   1_554 S
C577   C358    1.399   1_655 S
C578   H604    1.082   .     S
C579   C584    1.486   .     S
C579   C580    1.407   .     A
C579   C585    1.407   .     A
C580   H605    1.081   .     S
C580   C1241   1.398   .     S
C581   C582    1.397   .     A
C581   H606    1.082   .     S
C581   C1240   1.398   1_554 S
C582   H607    1.082   .     S
C582   C1243   1.397   1_554 S
C583   H608    1.082   .     S
C583   C585    1.398   .     A
C583   C1242   1.397   .     S
C584   C587    1.411   .     A
C585   H609    1.082   .     S
C586   N617    1.364   .     A
C586   H610    1.080   .     S
C587   N618    1.356   .     A
C587   H611    1.068   .     S
C588   N617    1.354   .     A
C588   C590    1.394   .     A
C588   H612    1.064   .     S
C589   N618    1.357   .     A
C589   H613    1.071   .     S
C590   H614    1.081   .     S
H592   O624    0.990   .     S
H593   O627    0.990   .     S
H594   O631    0.991   .     S
H595   O634    0.991   .     S
H596   O637    0.991   .     S
H597   O640    0.990   .     S
H616   O621    0.991   .     S
N617   Zn660   2.001   .     S
N618   Zn659   2.001   .     S
O619   Zn659   1.970   .     S
O620   S651    1.504   .     D
O622   S652    1.502   .     D
O623   S652    1.504   .     D
O624   S432    1.679   1_655 S
O625   S653    1.500   .     D
O626   S653    1.505   .     D
O627   S653    1.677   .     S
O628   S654    1.501   .     D
O629   S654    1.504   .     D
O630   Zn660   1.970   .     S
O631   S654    1.681   .     S
O632   S655    1.501   .     D
O633   S655    1.502   .     D
O634   S655    1.684   .     S
O635   S656    1.499   .     D
O636   S656    1.500   .     D
O637   S656    1.680   .     S
O638   S657    1.502   .     D
O639   S657    1.503   .     D
O640   S327    1.682   1_565 S
O641   Zn660   1.983   .     S
O642   S658    1.503   .     D
O644   H378    0.991   1_655 S
O645   Zn659   1.983   .     S
O646   Zn659   2.035   .     S
O647   Zn660   2.035   .     S
O648   Zn660   2.025   .     S
O649   Zn659   2.025   .     S
O650   S651    1.502   .     D
S651   C337    1.791   1_655 S
S651   O401    1.679   1_655 S
S658   O423    1.503   1_655 S
S658   O314    1.682   1_565 S
C661   O751    1.293   .     A
C661   O729    1.302   .     A
C661   C674    1.488   .     S
C662   H725    1.082   .     S
C662   C699    1.401   .     A
C662   C664    1.408   .     A
C663   C683    1.427   .     A
C663   C700    1.405   .     A
C664   C694    1.426   .     A
C664   C3      1.516   1_556 S
C665   C667    1.407   .     S
C665   O758    1.274   .     A
C665   O756    1.279   .     A
C666   O757    1.274   .     A
C666   C668    1.423   .     S
C666   O759    1.286   .     A
C667   C888    1.361   1_455 S
C667   S981    1.791   1_455 S
C668   C777    1.361   .     S
C668   S872    1.791   .     S
C669   C680    1.392   .     A
C669   C671    1.387   .     A
C669   H701    1.082   .     S
C670   H712    1.083   .     S
C670   C681    1.392   .     A
C670   C673    1.379   .     A
C671   C674    1.421   .     A
C671   S763    1.772   .     S
C672   O755    1.296   .     A
C672   C675    1.473   .     S
C672   O740    1.288   .     A
C673   S764    1.766   .     S
C673   C675    1.411   .     A
C674   C676    1.429   .     A
C675   C677    1.428   .     A
C676   S765    1.784   .     S
C676   C678    1.409   .     A
C677   C679    1.415   .     A
C677   S766    1.778   .     S
C678   S767    1.785   .     S
C678   C680    1.401   .     A
C679   C681    1.404   .     A
C679   S768    1.782   .     S
C680   C1011   1.464   1_545 S
C681   C1010   1.464   .     S
C682   C688    1.407   .     A
C682   C683    1.489   .     S
C683   C696    1.418   .     A
C684   H709    1.081   .     S
C684   C22     1.408   1_556 S
C684   C905    1.399   1_455 S
C685   H710    1.082   .     S
C685   C686    1.396   .     A
C685   C794    1.399   .     S
C686   H711    1.082   .     S
C686   C27     1.397   1_556 S
C687   H713    1.082   .     S
C687   C798    1.399   .     S
C688   H714    1.082   .     S
C688   C907    1.399   1_455 S
C689   C694    1.486   .     S
C689   C690    1.407   .     A
C689   C695    1.407   .     A
C690   H715    1.081   .     S
C690   C31     1.398   1_556 S
C691   C692    1.397   .     A
C691   H716    1.082   .     S
C692   H717    1.082   .     S
C693   H718    1.082   .     S
C693   C695    1.398   .     A
C693   C32     1.397   1_556 S
C694   C697    1.411   .     A
C695   H719    1.082   .     S
C696   N727    1.364   .     A
C696   H720    1.080   .     S
C697   N728    1.356   .     A
C697   H721    1.068   .     S
C698   N727    1.354   .     A
C698   C700    1.394   .     A
C698   H722    1.064   .     S
C699   N728    1.357   .     A
C699   H723    1.071   .     S
C700   H724    1.081   .     S
H702   O734    0.990   .     S
H703   O737    0.990   .     S
H704   O741    0.991   .     S
H705   O744    0.991   .     S
H706   O747    0.991   .     S
H707   O750    0.990   .     S
H708   O974    0.991   1_455 S
H726   O731    0.991   .     S
N727   Zn770   2.001   .     S
N728   Zn769   2.001   .     S
O729   Zn769   1.970   .     S
O730   S761    1.504   .     D
O731   S981    1.679   1_455 S
O732   S762    1.502   .     D
O733   S762    1.504   .     D
O734   S872    1.679   .     S
O735   S763    1.500   .     D
O736   S763    1.505   .     D
O737   S763    1.677   .     S
O738   S764    1.501   .     D
O739   S764    1.504   .     D
O740   Zn770   1.970   .     S
O741   S764    1.681   .     S
O742   S765    1.501   .     D
O743   S765    1.502   .     D
O744   S765    1.684   .     S
O745   S766    1.499   .     D
O746   S766    1.500   .     D
O747   S766    1.680   .     S
O748   S767    1.502   .     D
O749   S767    1.503   .     D
O750   S1097   1.682   .     S
O751   Zn770   1.983   .     S
O752   S768    1.503   .     D
O753   S988    1.503   1_455 S
O754   H818    0.991   .     S
O754   S1098   1.682   1_545 S
O755   Zn769   1.983   .     S
O756   Zn769   2.035   .     S
O757   Zn770   2.035   .     S
O758   Zn770   2.025   .     S
O759   Zn769   2.025   .     S
O760   S761    1.502   .     D
S761   C777    1.791   .     S
S761   O841    1.679   .     S
S762   O954    1.679   1_455 S
S762   C888    1.791   1_455 S
S767   O1080   1.682   1_545 S
S768   O863    1.503   .     S
S768   O1084   1.682   .     S
C771   O861    1.293   .     A
C771   O839    1.302   .     A
C771   C784    1.488   .     S
C772   H835    1.082   .     S
C772   C809    1.401   .     A
C772   C774    1.408   .     A
C773   C793    1.427   .     A
C773   C810    1.405   .     A
C774   C804    1.426   .     A
C774   C113    1.516   1_556 S
C775   C777    1.407   .     S
C775   O868    1.274   .     A
C775   O866    1.279   .     A
C776   O867    1.274   .     A
C776   C778    1.423   .     S
C776   O869    1.286   .     A
C778   C887    1.361   .     S
C778   S982    1.791   .     S
C779   C790    1.392   .     A
C779   C781    1.387   .     A
C779   H811    1.082   .     S
C780   H822    1.083   .     S
C780   C791    1.392   .     A
C780   C783    1.379   .     A
C781   C784    1.421   .     A
C781   S873    1.772   .     S
C782   O865    1.296   .     A
C782   C785    1.473   .     S
C782   O850    1.288   .     A
C783   S874    1.766   .     S
C783   C785    1.411   .     A
C784   C786    1.429   .     A
C785   C787    1.428   .     A
C786   S875    1.784   .     S
C786   C788    1.409   .     A
C787   C789    1.415   .     A
C787   S876    1.778   .     S
C788   S877    1.785   .     S
C788   C790    1.401   .     A
C789   C791    1.404   .     A
C789   S878    1.782   .     S
C790   C1121   1.464   1_545 S
C791   C1120   1.464   .     S
C792   C798    1.407   .     A
C792   C793    1.489   .     S
C793   C806    1.418   .     A
C794   H819    1.081   .     S
C794   C132    1.408   1_556 S
C795   H820    1.082   .     S
C795   C796    1.396   .     A
C795   C904    1.399   .     S
C796   H821    1.082   .     S
C796   C137    1.397   1_556 S
C797   H823    1.082   .     S
C797   C908    1.399   .     S
C798   H824    1.082   .     S
C799   C804    1.486   .     S
C799   C800    1.407   .     A
C799   C805    1.407   .     A
C800   H825    1.081   .     S
C800   C141    1.398   1_556 S
C801   C802    1.397   .     A
C801   H826    1.082   .     S
C802   H827    1.082   .     S
C803   H828    1.082   .     S
C803   C805    1.398   .     A
C803   C142    1.397   1_556 S
C804   C807    1.411   .     A
C805   H829    1.082   .     S
C806   N837    1.364   .     A
C806   H830    1.080   .     S
C807   N838    1.356   .     A
C807   H831    1.068   .     S
C808   N837    1.354   .     A
C808   C810    1.394   .     A
C808   H832    1.064   .     S
C809   N838    1.357   .     A
C809   H833    1.071   .     S
C810   H834    1.081   .     S
H812   O844    0.990   .     S
H813   O847    0.990   .     S
H814   O851    0.991   .     S
H815   O854    0.991   .     S
H816   O857    0.991   .     S
H817   O860    0.990   .     S
H836   O841    0.991   .     S
N837   Zn880   2.001   .     S
N838   Zn879   2.001   .     S
O839   Zn879   1.970   .     S
O840   S871    1.504   .     D
O842   S872    1.502   .     D
O843   S872    1.504   .     D
O844   S982    1.679   .     S
O845   S873    1.500   .     D
O846   S873    1.505   .     D
O847   S873    1.677   .     S
O848   S874    1.501   .     D
O849   S874    1.504   .     D
O850   Zn880   1.970   .     S
O851   S874    1.681   .     S
O852   S875    1.501   .     D
O853   S875    1.502   .     D
O854   S875    1.684   .     S
O855   S876    1.499   .     D
O856   S876    1.500   .     D
O857   S876    1.680   .     S
O858   S877    1.502   .     D
O859   S877    1.503   .     D
O860   S1207   1.682   .     S
O861   Zn880   1.983   .     S
O862   S878    1.503   .     D
O864   H928    0.991   .     S
O864   S1208   1.682   1_545 S
O865   Zn879   1.983   .     S
O866   Zn879   2.035   .     S
O867   Zn880   2.035   .     S
O868   Zn880   2.025   .     S
O869   Zn879   2.025   .     S
O870   S871    1.502   .     D
S871   C887    1.791   .     S
S871   O951    1.679   .     S
S877   O1190   1.682   1_545 S
S878   O973    1.503   .     S
S878   O1194   1.682   .     S
C881   O971    1.293   .     A
C881   O949    1.302   .     A
C881   C894    1.488   .     S
C882   H945    1.082   .     S
C882   C919    1.401   .     A
C882   C884    1.408   .     A
C883   C903    1.427   .     A
C883   C920    1.405   .     A
C884   C914    1.426   .     A
C884   C223    1.516   1_556 S
C885   C887    1.407   .     S
C885   O978    1.274   .     A
C885   O976    1.279   .     A
C886   O977    1.274   .     A
C886   C888    1.423   .     S
C886   O979    1.286   .     A
C888   C667    1.361   1_655 S
C888   S762    1.791   1_655 S
C889   C900    1.392   .     A
C889   C891    1.387   .     A
C889   H921    1.082   .     S
C890   H932    1.083   .     S
C890   C901    1.392   .     A
C890   C893    1.379   .     A
C891   C894    1.421   .     A
C891   S983    1.772   .     S
C892   O975    1.296   .     A
C892   C895    1.473   .     S
C892   O960    1.288   .     A
C893   S984    1.766   .     S
C893   C895    1.411   .     A
C894   C896    1.429   .     A
C895   C897    1.428   .     A
C896   S985    1.784   .     S
C896   C898    1.409   .     A
C897   C899    1.415   .     A
C897   S986    1.778   .     S
C898   S987    1.785   .     S
C898   C900    1.401   .     A
C899   C901    1.404   .     A
C899   S988    1.782   .     S
C900   C1231   1.464   1_545 S
C901   C1230   1.464   .     S
C902   C908    1.407   .     A
C902   C903    1.489   .     S
C903   C916    1.418   .     A
C904   H929    1.081   .     S
C904   C242    1.408   1_556 S
C905   H930    1.082   .     S
C905   C906    1.396   .     A
C905   C684    1.399   1_655 S
C906   H931    1.082   .     S
C906   C247    1.397   1_556 S
C907   H933    1.082   .     S
C907   C688    1.399   1_655 S
C908   H934    1.082   .     S
C909   C914    1.486   .     S
C909   C910    1.407   .     A
C909   C915    1.407   .     A
C910   H935    1.081   .     S
C910   C251    1.398   1_556 S
C911   C912    1.397   .     A
C911   H936    1.082   .     S
C912   H937    1.082   .     S
C913   H938    1.082   .     S
C913   C915    1.398   .     A
C913   C252    1.397   1_556 S
C914   C917    1.411   .     A
C915   H939    1.082   .     S
C916   N947    1.364   .     A
C916   H940    1.080   .     S
C917   N948    1.356   .     A
C917   H941    1.068   .     S
C918   N947    1.354   .     A
C918   C920    1.394   .     A
C918   H942    1.064   .     S
C919   N948    1.357   .     A
C919   H943    1.071   .     S
C920   H944    1.081   .     S
H922   O954    0.990   .     S
H923   O957    0.990   .     S
H924   O961    0.991   .     S
H925   O964    0.991   .     S
H926   O967    0.991   .     S
H927   O970    0.990   .     S
H946   O951    0.991   .     S
N947   Zn990   2.001   .     S
N948   Zn989   2.001   .     S
O949   Zn989   1.970   .     S
O950   S981    1.504   .     D
O952   S982    1.502   .     D
O953   S982    1.504   .     D
O954   S762    1.679   1_655 S
O955   S983    1.500   .     D
O956   S983    1.505   .     D
O957   S983    1.677   .     S
O958   S984    1.501   .     D
O959   S984    1.504   .     D
O960   Zn990   1.970   .     S
O961   S984    1.681   .     S
O962   S985    1.501   .     D
O963   S985    1.502   .     D
O964   S985    1.684   .     S
O965   S986    1.499   .     D
O966   S986    1.500   .     D
O967   S986    1.680   .     S
O968   S987    1.502   .     D
O969   S987    1.503   .     D
O970   S1317   1.682   .     S
O971   Zn990   1.983   .     S
O972   S988    1.503   .     D
O974   H708    0.991   1_655 S
O974   S1318   1.682   1_545 S
O975   Zn989   1.983   .     S
O976   Zn989   2.035   .     S
O977   Zn990   2.035   .     S
O978   Zn990   2.025   .     S
O979   Zn989   2.025   .     S
O980   S981    1.502   .     D
S981   C667    1.791   1_655 S
S981   O731    1.679   1_655 S
S987   O1300   1.682   1_545 S
S988   O753    1.503   1_655 S
S988   O1304   1.682   .     S
C991   O1081   1.293   .     A
C991   O1059   1.302   .     A
C991   C1004   1.488   .     S
C992   H1055   1.082   .     S
C992   C1029   1.401   .     A
C992   C994    1.408   .     A
C993   C1013   1.427   .     A
C993   C1030   1.405   .     A
C994   C1024   1.426   .     A
C994   C333    1.516   1_556 S
C995   C997    1.407   .     S
C995   O1088   1.274   .     A
C995   O1086   1.279   .     A
C996   O1087   1.274   .     A
C996   C998    1.423   .     S
C996   O1089   1.286   .     A
C997   C1218   1.361   1_455 S
C997   S1311   1.791   1_455 S
C998   C1107   1.361   .     S
C998   S1202   1.791   .     S
C999   C1010   1.392   .     A
C999   C1001   1.387   .     A
C999   H1031   1.082   .     S
C1000  H1042   1.083   .     S
C1000  C1011   1.392   .     A
C1000  C1003   1.379   .     A
C1001  C1004   1.421   .     A
C1001  S1093   1.772   .     S
C1002  O1085   1.296   .     A
C1002  C1005   1.473   .     S
C1002  O1070   1.288   .     A
C1003  S1094   1.766   .     S
C1003  C1005   1.411   .     A
C1004  C1006   1.429   .     A
C1005  C1007   1.428   .     A
C1006  S1095   1.784   .     S
C1006  C1008   1.409   .     A
C1007  C1009   1.415   .     A
C1007  S1096   1.778   .     S
C1008  S1097   1.785   .     S
C1008  C1010   1.401   .     A
C1009  C1011   1.404   .     A
C1009  S1098   1.782   .     S
C1011  C680    1.464   1_565 S
C1012  C1018   1.407   .     A
C1012  C1013   1.489   .     S
C1013  C1026   1.418   .     A
C1014  H1039   1.081   .     S
C1014  C352    1.408   1_556 S
C1014  C1235   1.399   1_455 S
C1015  H1040   1.082   .     S
C1015  C1016   1.396   .     A
C1015  C1124   1.399   .     S
C1016  H1041   1.082   .     S
C1016  C357    1.397   1_556 S
C1017  H1043   1.082   .     S
C1017  C1128   1.399   .     S
C1018  H1044   1.082   .     S
C1018  C1237   1.399   1_455 S
C1019  C1024   1.486   .     S
C1019  C1020   1.407   .     A
C1019  C1025   1.407   .     A
C1020  H1045   1.081   .     S
C1020  C361    1.398   1_556 S
C1021  C1022   1.397   .     A
C1021  H1046   1.082   .     S
C1022  H1047   1.082   .     S
C1023  H1048   1.082   .     S
C1023  C1025   1.398   .     A
C1023  C362    1.397   1_556 S
C1024  C1027   1.411   .     A
C1025  H1049   1.082   .     S
C1026  N1057   1.364   .     A
C1026  H1050   1.080   .     S
C1027  N1058   1.356   .     A
C1027  H1051   1.068   .     S
C1028  N1057   1.354   .     A
C1028  C1030   1.394   .     A
C1028  H1052   1.064   .     S
C1029  N1058   1.357   .     A
C1029  H1053   1.071   .     S
C1030  H1054   1.081   .     S
H1032  O1064   0.990   .     S
H1033  O1067   0.990   .     S
H1034  O1071   0.991   .     S
H1035  O1074   0.991   .     S
H1036  O1077   0.991   .     S
H1037  O1080   0.990   .     S
H1038  O1304   0.991   1_455 S
H1056  O1061   0.991   .     S
N1057  Zn1100  2.001   .     S
N1058  Zn1099  2.001   .     S
O1059  Zn1099  1.970   .     S
O1060  S1091   1.504   .     D
O1061  S1311   1.679   1_455 S
O1062  S1092   1.502   .     D
O1063  S1092   1.504   .     D
O1064  S1202   1.679   .     S
O1065  S1093   1.500   .     D
O1066  S1093   1.505   .     D
O1067  S1093   1.677   .     S
O1068  S1094   1.501   .     D
O1069  S1094   1.504   .     D
O1070  Zn1100  1.970   .     S
O1071  S1094   1.681   .     S
O1072  S1095   1.501   .     D
O1073  S1095   1.502   .     D
O1074  S1095   1.684   .     S
O1075  S1096   1.499   .     D
O1076  S1096   1.500   .     D
O1077  S1096   1.680   .     S
O1078  S1097   1.502   .     D
O1079  S1097   1.503   .     D
O1080  S767    1.682   1_565 S
O1081  Zn1100  1.983   .     S
O1082  S1098   1.503   .     D
O1083  S1318   1.503   1_455 S
O1084  H1148   0.991   .     S
O1085  Zn1099  1.983   .     S
O1086  Zn1099  2.035   .     S
O1087  Zn1100  2.035   .     S
O1088  Zn1100  2.025   .     S
O1089  Zn1099  2.025   .     S
O1090  S1091   1.502   .     D
S1091  C1107   1.791   .     S
S1091  O1171   1.679   .     S
S1092  O1284   1.679   1_455 S
S1092  C1218   1.791   1_455 S
S1098  O1193   1.503   .     S
S1098  O754    1.682   1_565 S
C1101  O1191   1.293   .     A
C1101  O1169   1.302   .     A
C1101  C1114   1.488   .     S
C1102  H1165   1.082   .     S
C1102  C1139   1.401   .     A
C1102  C1104   1.408   .     A
C1103  C1123   1.427   .     A
C1103  C1140   1.405   .     A
C1104  C1134   1.426   .     A
C1104  C443    1.516   1_556 S
C1105  C1107   1.407   .     S
C1105  O1198   1.274   .     A
C1105  O1196   1.279   .     A
C1106  O1197   1.274   .     A
C1106  C1108   1.423   .     S
C1106  O1199   1.286   .     A
C1108  C1217   1.361   .     S
C1108  S1312   1.791   .     S
C1109  C1120   1.392   .     A
C1109  C1111   1.387   .     A
C1109  H1141   1.082   .     S
C1110  H1152   1.083   .     S
C1110  C1121   1.392   .     A
C1110  C1113   1.379   .     A
C1111  C1114   1.421   .     A
C1111  S1203   1.772   .     S
C1112  O1195   1.296   .     A
C1112  C1115   1.473   .     S
C1112  O1180   1.288   .     A
C1113  S1204   1.766   .     S
C1113  C1115   1.411   .     A
C1114  C1116   1.429   .     A
C1115  C1117   1.428   .     A
C1116  S1205   1.784   .     S
C1116  C1118   1.409   .     A
C1117  C1119   1.415   .     A
C1117  S1206   1.778   .     S
C1118  S1207   1.785   .     S
C1118  C1120   1.401   .     A
C1119  C1121   1.404   .     A
C1119  S1208   1.782   .     S
C1121  C790    1.464   1_565 S
C1122  C1128   1.407   .     A
C1122  C1123   1.489   .     S
C1123  C1136   1.418   .     A
C1124  H1149   1.081   .     S
C1124  C462    1.408   1_556 S
C1125  H1150   1.082   .     S
C1125  C1126   1.396   .     A
C1125  C1234   1.399   .     S
C1126  H1151   1.082   .     S
C1126  C467    1.397   1_556 S
C1127  H1153   1.082   .     S
C1127  C1238   1.399   .     S
C1128  H1154   1.082   .     S
C1129  C1134   1.486   .     S
C1129  C1130   1.407   .     A
C1129  C1135   1.407   .     A
C1130  H1155   1.081   .     S
C1130  C471    1.398   1_556 S
C1131  C1132   1.397   .     A
C1131  H1156   1.082   .     S
C1132  H1157   1.082   .     S
C1133  H1158   1.082   .     S
C1133  C1135   1.398   .     A
C1133  C472    1.397   1_556 S
C1134  C1137   1.411   .     A
C1135  H1159   1.082   .     S
C1136  N1167   1.364   .     A
C1136  H1160   1.080   .     S
C1137  N1168   1.356   .     A
C1137  H1161   1.068   .     S
C1138  N1167   1.354   .     A
C1138  C1140   1.394   .     A
C1138  H1162   1.064   .     S
C1139  N1168   1.357   .     A
C1139  H1163   1.071   .     S
C1140  H1164   1.081   .     S
H1142  O1174   0.990   .     S
H1143  O1177   0.990   .     S
H1144  O1181   0.991   .     S
H1145  O1184   0.991   .     S
H1146  O1187   0.991   .     S
H1147  O1190   0.990   .     S
H1166  O1171   0.991   .     S
N1167  Zn1210  2.001   .     S
N1168  Zn1209  2.001   .     S
O1169  Zn1209  1.970   .     S
O1170  S1201   1.504   .     D
O1172  S1202   1.502   .     D
O1173  S1202   1.504   .     D
O1174  S1312   1.679   .     S
O1175  S1203   1.500   .     D
O1176  S1203   1.505   .     D
O1177  S1203   1.677   .     S
O1178  S1204   1.501   .     D
O1179  S1204   1.504   .     D
O1180  Zn1210  1.970   .     S
O1181  S1204   1.681   .     S
O1182  S1205   1.501   .     D
O1183  S1205   1.502   .     D
O1184  S1205   1.684   .     S
O1185  S1206   1.499   .     D
O1186  S1206   1.500   .     D
O1187  S1206   1.680   .     S
O1188  S1207   1.502   .     D
O1189  S1207   1.503   .     D
O1190  S877    1.682   1_565 S
O1191  Zn1210  1.983   .     S
O1192  S1208   1.503   .     D
O1194  H1258   0.991   .     S
O1195  Zn1209  1.983   .     S
O1196  Zn1209  2.035   .     S
O1197  Zn1210  2.035   .     S
O1198  Zn1210  2.025   .     S
O1199  Zn1209  2.025   .     S
O1200  S1201   1.502   .     D
S1201  C1217   1.791   .     S
S1201  O1281   1.679   .     S
S1208  O1303   1.503   .     S
S1208  O864    1.682   1_565 S
C1211  O1301   1.293   .     A
C1211  O1279   1.302   .     A
C1211  C1224   1.488   .     S
C1212  H1275   1.082   .     S
C1212  C1249   1.401   .     A
C1212  C1214   1.408   .     A
C1213  C1233   1.427   .     A
C1213  C1250   1.405   .     A
C1214  C1244   1.426   .     A
C1214  C553    1.516   1_556 S
C1215  C1217   1.407   .     S
C1215  O1308   1.274   .     A
C1215  O1306   1.279   .     A
C1216  O1307   1.274   .     A
C1216  C1218   1.423   .     S
C1216  O1309   1.286   .     A
C1218  C997    1.361   1_655 S
C1218  S1092   1.791   1_655 S
C1219  C1230   1.392   .     A
C1219  C1221   1.387   .     A
C1219  H1251   1.082   .     S
C1220  H1262   1.083   .     S
C1220  C1231   1.392   .     A
C1220  C1223   1.379   .     A
C1221  C1224   1.421   .     A
C1221  S1313   1.772   .     S
C1222  O1305   1.296   .     A
C1222  C1225   1.473   .     S
C1222  O1290   1.288   .     A
C1223  S1314   1.766   .     S
C1223  C1225   1.411   .     A
C1224  C1226   1.429   .     A
C1225  C1227   1.428   .     A
C1226  S1315   1.784   .     S
C1226  C1228   1.409   .     A
C1227  C1229   1.415   .     A
C1227  S1316   1.778   .     S
C1228  S1317   1.785   .     S
C1228  C1230   1.401   .     A
C1229  C1231   1.404   .     A
C1229  S1318   1.782   .     S
C1231  C900    1.464   1_565 S
C1232  C1238   1.407   .     A
C1232  C1233   1.489   .     S
C1233  C1246   1.418   .     A
C1234  H1259   1.081   .     S
C1234  C572    1.408   1_556 S
C1235  H1260   1.082   .     S
C1235  C1236   1.396   .     A
C1235  C1014   1.399   1_655 S
C1236  H1261   1.082   .     S
C1236  C577    1.397   1_556 S
C1237  H1263   1.082   .     S
C1237  C1018   1.399   1_655 S
C1238  H1264   1.082   .     S
C1239  C1244   1.486   .     S
C1239  C1240   1.407   .     A
C1239  C1245   1.407   .     A
C1240  H1265   1.081   .     S
C1240  C581    1.398   1_556 S
C1241  C1242   1.397   .     A
C1241  H1266   1.082   .     S
C1242  H1267   1.082   .     S
C1243  H1268   1.082   .     S
C1243  C1245   1.398   .     A
C1243  C582    1.397   1_556 S
C1244  C1247   1.411   .     A
C1245  H1269   1.082   .     S
C1246  N1277   1.364   .     A
C1246  H1270   1.080   .     S
C1247  N1278   1.356   .     A
C1247  H1271   1.068   .     S
C1248  N1277   1.354   .     A
C1248  C1250   1.394   .     A
C1248  H1272   1.064   .     S
C1249  N1278   1.357   .     A
C1249  H1273   1.071   .     S
C1250  H1274   1.081   .     S
H1252  O1284   0.990   .     S
H1253  O1287   0.990   .     S
H1254  O1291   0.991   .     S
H1255  O1294   0.991   .     S
H1256  O1297   0.991   .     S
H1257  O1300   0.990   .     S
H1276  O1281   0.991   .     S
N1277  Zn1320  2.001   .     S
N1278  Zn1319  2.001   .     S
O1279  Zn1319  1.970   .     S
O1280  S1311   1.504   .     D
O1282  S1312   1.502   .     D
O1283  S1312   1.504   .     D
O1284  S1092   1.679   1_655 S
O1285  S1313   1.500   .     D
O1286  S1313   1.505   .     D
O1287  S1313   1.677   .     S
O1288  S1314   1.501   .     D
O1289  S1314   1.504   .     D
O1290  Zn1320  1.970   .     S
O1291  S1314   1.681   .     S
O1292  S1315   1.501   .     D
O1293  S1315   1.502   .     D
O1294  S1315   1.684   .     S
O1295  S1316   1.499   .     D
O1296  S1316   1.500   .     D
O1297  S1316   1.680   .     S
O1298  S1317   1.502   .     D
O1299  S1317   1.503   .     D
O1300  S987    1.682   1_565 S
O1301  Zn1320  1.983   .     S
O1302  S1318   1.503   .     D
O1304  H1038   0.991   1_655 S
O1305  Zn1319  1.983   .     S
O1306  Zn1319  2.035   .     S
O1307  Zn1320  2.035   .     S
O1308  Zn1320  2.025   .     S
O1309  Zn1319  2.025   .     S
O1310  S1311   1.502   .     D
S1311  C997    1.791   1_655 S
S1311  O1061   1.679   1_655 S
S1318  O1083   1.503   1_655 S
S1318  O974    1.682   1_565 S
