data_str_m2_o5_o17_pcu_sym.21
_audit_creation_date              2020-01-03
_audit_creation_method            'Materials Studio'
_symmetry_space_group_name_H-M    'P1'
_symmetry_Int_Tables_number       1
_symmetry_cell_setting            triclinic
loop_
_symmetry_equiv_pos_as_xyz
  x,y,z
_cell_length_a                    30.2337
_cell_length_b                    27.4381
_cell_length_c                    23.3641
_cell_angle_alpha                 89.9527
_cell_angle_beta                  90.0000
_cell_angle_gamma                 90.0002
loop_
_atom_site_label
_atom_site_type_symbol
_atom_site_fract_x
_atom_site_fract_y
_atom_site_fract_z
_atom_site_U_iso_or_equiv
_atom_site_adp_type
_atom_site_occupancy
O1     O     0.25000   0.09613   0.21425   0.00000  Uiso   1.00
O2     O     0.25000   0.23720   0.11908   0.00000  Uiso   1.00
O3     O     0.25000   0.23720   0.21425   0.00000  Uiso   1.00
O4     O     0.25000   0.09613   0.11908   0.00000  Uiso   1.00
H5     H     0.46133   0.04240   0.18081   0.00000  Uiso   1.00
H6     H     0.03842   0.28563   0.12840   0.00000  Uiso   1.00
H7     H     0.46159   0.28563   0.12840   0.00000  Uiso   1.00
H8     H     0.03867   0.04240   0.18081   0.00000  Uiso   1.00
C9     C     0.25000   0.07332   0.16669   0.00000  Uiso   1.00
C10    C     0.25000   0.26002   0.16665   0.00000  Uiso   1.00
O11    O     0.18513   0.16667   0.21427   0.00000  Uiso   1.00
O12    O     0.31487   0.16667   0.11907   0.00000  Uiso   1.00
O13    O     0.31487   0.16667   0.21427   0.00000  Uiso   1.00
O14    O     0.18513   0.16667   0.11907   0.00000  Uiso   1.00
C15    C     0.16442   0.16592   0.16665   0.00000  Uiso   1.00
C16    C     0.33558   0.16592   0.16665   0.00000  Uiso   1.00
Cu17   Cu    0.25000   0.16667   0.22303   0.00000  Uiso   1.00
Cu18   Cu    0.25000   0.16667   0.11031   0.00000  Uiso   1.00
N19    N     0.25000   0.16667   0.02561   0.00000  Uiso   1.00
N20    N     0.25000   0.16667   0.30773   0.00000  Uiso   1.00
C21    C     0.40638   0.20932   0.15277   0.00000  Uiso   1.00
C22    C     0.09356   0.12187   0.17723   0.00000  Uiso   1.00
C23    C     0.40644   0.12187   0.17723   0.00000  Uiso   1.00
C24    C     0.09362   0.20932   0.15277   0.00000  Uiso   1.00
C25    C     0.38373   0.16590   0.16646   0.00000  Uiso   1.00
C26    C     0.11628   0.16590   0.16646   0.00000  Uiso   1.00
C27    C     0.45311   0.12125   0.17320   0.00000  Uiso   1.00
C28    C     0.04689   0.20898   0.15157   0.00000  Uiso   1.00
C29    C     0.45311   0.20898   0.15157   0.00000  Uiso   1.00
C30    C     0.04689   0.12125   0.17320   0.00000  Uiso   1.00
C31    C     0.47648   0.16517   0.16270   0.00000  Uiso   1.00
C32    C     0.02352   0.16517   0.16270   0.00000  Uiso   1.00
C33    C     0.47713   0.07758   0.17793   0.00000  Uiso   1.00
C34    C     0.02281   0.25142   0.13888   0.00000  Uiso   1.00
C35    C     0.47719   0.25142   0.13888   0.00000  Uiso   1.00
C36    C     0.02287   0.07758   0.17793   0.00000  Uiso   1.00
C37    C     0.25000   0.02175   0.16671   0.00000  Uiso   1.00
C38    C     0.25000   0.31158   0.16665   0.00000  Uiso   1.00
C39    C     0.38031   0.25563   0.13944   0.00000  Uiso   1.00
C40    C     0.37634   0.26340   0.07480   0.00000  Uiso   1.00
H41    H     0.40927   0.26964   0.05517   0.00000  Uiso   1.00
H42    H     0.36095   0.23106   0.05435   0.00000  Uiso   1.00
H43    H     0.35512   0.29549   0.06583   0.00000  Uiso   1.00
H44    H     0.34654   0.25488   0.15779   0.00000  Uiso   1.00
H45    H     0.39551   0.28752   0.16074   0.00000  Uiso   1.00
C46    C     0.11992   0.07581   0.19083   0.00000  Uiso   1.00
C47    C     0.13347   0.05002   0.13581   0.00000  Uiso   1.00
H48    H     0.10380   0.03625   0.11295   0.00000  Uiso   1.00
H49    H     0.15179   0.07508   0.10702   0.00000  Uiso   1.00
H50    H     0.15558   0.01912   0.14644   0.00000  Uiso   1.00
H51    H     0.15004   0.08428   0.21594   0.00000  Uiso   1.00
H52    H     0.10176   0.05057   0.21943   0.00000  Uiso   1.00
C53    C     0.38008   0.07581   0.19083   0.00000  Uiso   1.00
C54    C     0.36653   0.05002   0.13582   0.00000  Uiso   1.00
H55    H     0.34821   0.07507   0.10703   0.00000  Uiso   1.00
H56    H     0.39620   0.03625   0.11296   0.00000  Uiso   1.00
H57    H     0.34442   0.01912   0.14644   0.00000  Uiso   1.00
H58    H     0.39824   0.05057   0.21944   0.00000  Uiso   1.00
H59    H     0.34996   0.08428   0.21595   0.00000  Uiso   1.00
C60    C     0.11969   0.25563   0.13945   0.00000  Uiso   1.00
C61    C     0.12366   0.26341   0.07481   0.00000  Uiso   1.00
H62    H     0.14491   0.29548   0.06584   0.00000  Uiso   1.00
H63    H     0.13903   0.23106   0.05435   0.00000  Uiso   1.00
H64    H     0.09074   0.26967   0.05518   0.00000  Uiso   1.00
H65    H     0.10449   0.28752   0.16074   0.00000  Uiso   1.00
H66    H     0.15346   0.25488   0.15780   0.00000  Uiso   1.00
O67    O     0.75000   0.09613   0.21425   0.00000  Uiso   1.00
O68    O     0.75000   0.23720   0.11908   0.00000  Uiso   1.00
O69    O     0.75000   0.23720   0.21425   0.00000  Uiso   1.00
O70    O     0.75000   0.09613   0.11908   0.00000  Uiso   1.00
H71    H     0.96133   0.04240   0.18081   0.00000  Uiso   1.00
H72    H     0.53842   0.28563   0.12840   0.00000  Uiso   1.00
H73    H     0.96159   0.28563   0.12840   0.00000  Uiso   1.00
H74    H     0.53867   0.04240   0.18081   0.00000  Uiso   1.00
C75    C     0.75000   0.07332   0.16669   0.00000  Uiso   1.00
C76    C     0.75000   0.26002   0.16665   0.00000  Uiso   1.00
O77    O     0.68513   0.16667   0.21427   0.00000  Uiso   1.00
O78    O     0.81487   0.16667   0.11907   0.00000  Uiso   1.00
O79    O     0.81487   0.16667   0.21427   0.00000  Uiso   1.00
O80    O     0.68513   0.16667   0.11907   0.00000  Uiso   1.00
C81    C     0.66442   0.16592   0.16665   0.00000  Uiso   1.00
C82    C     0.83558   0.16592   0.16665   0.00000  Uiso   1.00
Cu83   Cu    0.75000   0.16667   0.22303   0.00000  Uiso   1.00
Cu84   Cu    0.75000   0.16667   0.11031   0.00000  Uiso   1.00
N85    N     0.75000   0.16667   0.02561   0.00000  Uiso   1.00
N86    N     0.75000   0.16667   0.30773   0.00000  Uiso   1.00
C87    C     0.90638   0.20932   0.15277   0.00000  Uiso   1.00
C88    C     0.59356   0.12187   0.17723   0.00000  Uiso   1.00
C89    C     0.90644   0.12187   0.17723   0.00000  Uiso   1.00
C90    C     0.59362   0.20932   0.15277   0.00000  Uiso   1.00
C91    C     0.88373   0.16590   0.16646   0.00000  Uiso   1.00
C92    C     0.61628   0.16590   0.16646   0.00000  Uiso   1.00
C93    C     0.95311   0.12125   0.17320   0.00000  Uiso   1.00
C94    C     0.54689   0.20898   0.15157   0.00000  Uiso   1.00
C95    C     0.95311   0.20898   0.15157   0.00000  Uiso   1.00
C96    C     0.54689   0.12125   0.17320   0.00000  Uiso   1.00
C97    C     0.97648   0.16517   0.16270   0.00000  Uiso   1.00
C98    C     0.52352   0.16517   0.16270   0.00000  Uiso   1.00
C99    C     0.97713   0.07758   0.17793   0.00000  Uiso   1.00
C100   C     0.52281   0.25142   0.13888   0.00000  Uiso   1.00
C101   C     0.97719   0.25142   0.13888   0.00000  Uiso   1.00
C102   C     0.52287   0.07758   0.17793   0.00000  Uiso   1.00
C103   C     0.75000   0.02175   0.16671   0.00000  Uiso   1.00
C104   C     0.75000   0.31158   0.16665   0.00000  Uiso   1.00
C105   C     0.88031   0.25563   0.13944   0.00000  Uiso   1.00
C106   C     0.87634   0.26340   0.07480   0.00000  Uiso   1.00
H107   H     0.90927   0.26964   0.05517   0.00000  Uiso   1.00
H108   H     0.86095   0.23106   0.05435   0.00000  Uiso   1.00
H109   H     0.85512   0.29549   0.06583   0.00000  Uiso   1.00
H110   H     0.84654   0.25488   0.15779   0.00000  Uiso   1.00
H111   H     0.89551   0.28752   0.16074   0.00000  Uiso   1.00
C112   C     0.61992   0.07581   0.19083   0.00000  Uiso   1.00
C113   C     0.63347   0.05002   0.13581   0.00000  Uiso   1.00
H114   H     0.60380   0.03625   0.11295   0.00000  Uiso   1.00
H115   H     0.65179   0.07508   0.10702   0.00000  Uiso   1.00
H116   H     0.65558   0.01912   0.14644   0.00000  Uiso   1.00
H117   H     0.65004   0.08428   0.21594   0.00000  Uiso   1.00
H118   H     0.60176   0.05057   0.21943   0.00000  Uiso   1.00
C119   C     0.88008   0.07581   0.19083   0.00000  Uiso   1.00
C120   C     0.86653   0.05002   0.13582   0.00000  Uiso   1.00
H121   H     0.84821   0.07507   0.10703   0.00000  Uiso   1.00
H122   H     0.89620   0.03625   0.11296   0.00000  Uiso   1.00
H123   H     0.84442   0.01912   0.14644   0.00000  Uiso   1.00
H124   H     0.89824   0.05057   0.21944   0.00000  Uiso   1.00
H125   H     0.84996   0.08428   0.21595   0.00000  Uiso   1.00
C126   C     0.61969   0.25563   0.13945   0.00000  Uiso   1.00
C127   C     0.62366   0.26341   0.07481   0.00000  Uiso   1.00
H128   H     0.64491   0.29548   0.06584   0.00000  Uiso   1.00
H129   H     0.63903   0.23106   0.05435   0.00000  Uiso   1.00
H130   H     0.59074   0.26967   0.05518   0.00000  Uiso   1.00
H131   H     0.60449   0.28752   0.16074   0.00000  Uiso   1.00
H132   H     0.65346   0.25488   0.15780   0.00000  Uiso   1.00
O133   O     0.25000   0.42946   0.21425   0.00000  Uiso   1.00
O134   O     0.25000   0.57054   0.11908   0.00000  Uiso   1.00
O135   O     0.25000   0.57054   0.21425   0.00000  Uiso   1.00
O136   O     0.25000   0.42946   0.11908   0.00000  Uiso   1.00
H137   H     0.46133   0.37573   0.18081   0.00000  Uiso   1.00
H138   H     0.03842   0.61897   0.12840   0.00000  Uiso   1.00
H139   H     0.46159   0.61897   0.12840   0.00000  Uiso   1.00
H140   H     0.03867   0.37573   0.18081   0.00000  Uiso   1.00
C141   C     0.25000   0.40665   0.16669   0.00000  Uiso   1.00
C142   C     0.25000   0.59335   0.16665   0.00000  Uiso   1.00
O143   O     0.18513   0.50000   0.21427   0.00000  Uiso   1.00
O144   O     0.31487   0.50000   0.11907   0.00000  Uiso   1.00
O145   O     0.31487   0.50000   0.21427   0.00000  Uiso   1.00
O146   O     0.18513   0.50000   0.11907   0.00000  Uiso   1.00
C147   C     0.16442   0.49925   0.16665   0.00000  Uiso   1.00
C148   C     0.33558   0.49925   0.16665   0.00000  Uiso   1.00
Cu149  Cu    0.25000   0.50000   0.22303   0.00000  Uiso   1.00
Cu150  Cu    0.25000   0.50000   0.11031   0.00000  Uiso   1.00
N151   N     0.25000   0.50000   0.02561   0.00000  Uiso   1.00
N152   N     0.25000   0.50000   0.30773   0.00000  Uiso   1.00
C153   C     0.40638   0.54266   0.15277   0.00000  Uiso   1.00
C154   C     0.09356   0.45521   0.17723   0.00000  Uiso   1.00
C155   C     0.40644   0.45521   0.17723   0.00000  Uiso   1.00
C156   C     0.09362   0.54266   0.15277   0.00000  Uiso   1.00
C157   C     0.38373   0.49923   0.16646   0.00000  Uiso   1.00
C158   C     0.11628   0.49923   0.16646   0.00000  Uiso   1.00
C159   C     0.45311   0.45458   0.17320   0.00000  Uiso   1.00
C160   C     0.04689   0.54231   0.15157   0.00000  Uiso   1.00
C161   C     0.45311   0.54231   0.15157   0.00000  Uiso   1.00
C162   C     0.04689   0.45458   0.17320   0.00000  Uiso   1.00
C163   C     0.47648   0.49850   0.16270   0.00000  Uiso   1.00
C164   C     0.02352   0.49850   0.16270   0.00000  Uiso   1.00
C165   C     0.47713   0.41092   0.17793   0.00000  Uiso   1.00
C166   C     0.02281   0.58475   0.13888   0.00000  Uiso   1.00
C167   C     0.47719   0.58475   0.13888   0.00000  Uiso   1.00
C168   C     0.02287   0.41092   0.17793   0.00000  Uiso   1.00
C169   C     0.25000   0.35509   0.16671   0.00000  Uiso   1.00
C170   C     0.25000   0.64491   0.16665   0.00000  Uiso   1.00
C171   C     0.38031   0.58896   0.13944   0.00000  Uiso   1.00
C172   C     0.37634   0.59674   0.07480   0.00000  Uiso   1.00
H173   H     0.40927   0.60297   0.05517   0.00000  Uiso   1.00
H174   H     0.36095   0.56440   0.05435   0.00000  Uiso   1.00
H175   H     0.35512   0.62882   0.06583   0.00000  Uiso   1.00
H176   H     0.34654   0.58821   0.15779   0.00000  Uiso   1.00
H177   H     0.39551   0.62085   0.16074   0.00000  Uiso   1.00
C178   C     0.11992   0.40915   0.19083   0.00000  Uiso   1.00
C179   C     0.13347   0.38335   0.13581   0.00000  Uiso   1.00
H180   H     0.10380   0.36958   0.11295   0.00000  Uiso   1.00
H181   H     0.15179   0.40841   0.10702   0.00000  Uiso   1.00
H182   H     0.15558   0.35246   0.14644   0.00000  Uiso   1.00
H183   H     0.15004   0.41762   0.21594   0.00000  Uiso   1.00
H184   H     0.10176   0.38391   0.21943   0.00000  Uiso   1.00
C185   C     0.38008   0.40915   0.19083   0.00000  Uiso   1.00
C186   C     0.36653   0.38335   0.13582   0.00000  Uiso   1.00
H187   H     0.34821   0.40841   0.10703   0.00000  Uiso   1.00
H188   H     0.39620   0.36959   0.11296   0.00000  Uiso   1.00
H189   H     0.34442   0.35245   0.14644   0.00000  Uiso   1.00
H190   H     0.39824   0.38391   0.21944   0.00000  Uiso   1.00
H191   H     0.34996   0.41762   0.21595   0.00000  Uiso   1.00
C192   C     0.11969   0.58897   0.13945   0.00000  Uiso   1.00
C193   C     0.12366   0.59674   0.07481   0.00000  Uiso   1.00
H194   H     0.14491   0.62881   0.06584   0.00000  Uiso   1.00
H195   H     0.13903   0.56439   0.05435   0.00000  Uiso   1.00
H196   H     0.09074   0.60300   0.05518   0.00000  Uiso   1.00
H197   H     0.10449   0.62085   0.16074   0.00000  Uiso   1.00
H198   H     0.15346   0.58821   0.15780   0.00000  Uiso   1.00
O199   O     0.75000   0.42946   0.21425   0.00000  Uiso   1.00
O200   O     0.75000   0.57054   0.11908   0.00000  Uiso   1.00
O201   O     0.75000   0.57054   0.21425   0.00000  Uiso   1.00
O202   O     0.75000   0.42946   0.11908   0.00000  Uiso   1.00
H203   H     0.96133   0.37573   0.18081   0.00000  Uiso   1.00
H204   H     0.53842   0.61897   0.12840   0.00000  Uiso   1.00
H205   H     0.96159   0.61897   0.12840   0.00000  Uiso   1.00
H206   H     0.53867   0.37573   0.18081   0.00000  Uiso   1.00
C207   C     0.75000   0.40665   0.16669   0.00000  Uiso   1.00
C208   C     0.75000   0.59335   0.16665   0.00000  Uiso   1.00
O209   O     0.68513   0.50000   0.21427   0.00000  Uiso   1.00
O210   O     0.81487   0.50000   0.11907   0.00000  Uiso   1.00
O211   O     0.81487   0.50000   0.21427   0.00000  Uiso   1.00
O212   O     0.68513   0.50000   0.11907   0.00000  Uiso   1.00
C213   C     0.66442   0.49925   0.16665   0.00000  Uiso   1.00
C214   C     0.83558   0.49925   0.16665   0.00000  Uiso   1.00
Cu215  Cu    0.75000   0.50000   0.22303   0.00000  Uiso   1.00
Cu216  Cu    0.75000   0.50000   0.11031   0.00000  Uiso   1.00
N217   N     0.75000   0.50000   0.02561   0.00000  Uiso   1.00
N218   N     0.75000   0.50000   0.30773   0.00000  Uiso   1.00
C219   C     0.90638   0.54266   0.15277   0.00000  Uiso   1.00
C220   C     0.59356   0.45521   0.17723   0.00000  Uiso   1.00
C221   C     0.90644   0.45521   0.17723   0.00000  Uiso   1.00
C222   C     0.59362   0.54266   0.15277   0.00000  Uiso   1.00
C223   C     0.88373   0.49923   0.16646   0.00000  Uiso   1.00
C224   C     0.61628   0.49923   0.16646   0.00000  Uiso   1.00
C225   C     0.95311   0.45458   0.17320   0.00000  Uiso   1.00
C226   C     0.54689   0.54231   0.15157   0.00000  Uiso   1.00
C227   C     0.95311   0.54231   0.15157   0.00000  Uiso   1.00
C228   C     0.54689   0.45458   0.17320   0.00000  Uiso   1.00
C229   C     0.97648   0.49850   0.16270   0.00000  Uiso   1.00
C230   C     0.52352   0.49850   0.16270   0.00000  Uiso   1.00
C231   C     0.97713   0.41092   0.17793   0.00000  Uiso   1.00
C232   C     0.52281   0.58475   0.13888   0.00000  Uiso   1.00
C233   C     0.97719   0.58475   0.13888   0.00000  Uiso   1.00
C234   C     0.52287   0.41092   0.17793   0.00000  Uiso   1.00
C235   C     0.75000   0.35509   0.16671   0.00000  Uiso   1.00
C236   C     0.75000   0.64491   0.16665   0.00000  Uiso   1.00
C237   C     0.88031   0.58896   0.13944   0.00000  Uiso   1.00
C238   C     0.87634   0.59674   0.07480   0.00000  Uiso   1.00
H239   H     0.90927   0.60297   0.05517   0.00000  Uiso   1.00
H240   H     0.86095   0.56440   0.05435   0.00000  Uiso   1.00
H241   H     0.85512   0.62882   0.06583   0.00000  Uiso   1.00
H242   H     0.84654   0.58821   0.15779   0.00000  Uiso   1.00
H243   H     0.89551   0.62085   0.16074   0.00000  Uiso   1.00
C244   C     0.61992   0.40915   0.19083   0.00000  Uiso   1.00
C245   C     0.63347   0.38335   0.13581   0.00000  Uiso   1.00
H246   H     0.60380   0.36958   0.11295   0.00000  Uiso   1.00
H247   H     0.65179   0.40841   0.10702   0.00000  Uiso   1.00
H248   H     0.65558   0.35246   0.14644   0.00000  Uiso   1.00
H249   H     0.65004   0.41762   0.21594   0.00000  Uiso   1.00
H250   H     0.60176   0.38391   0.21943   0.00000  Uiso   1.00
C251   C     0.88008   0.40915   0.19083   0.00000  Uiso   1.00
C252   C     0.86653   0.38335   0.13582   0.00000  Uiso   1.00
H253   H     0.84821   0.40841   0.10703   0.00000  Uiso   1.00
H254   H     0.89620   0.36959   0.11296   0.00000  Uiso   1.00
H255   H     0.84442   0.35245   0.14644   0.00000  Uiso   1.00
H256   H     0.89824   0.38391   0.21944   0.00000  Uiso   1.00
H257   H     0.84996   0.41762   0.21595   0.00000  Uiso   1.00
C258   C     0.61969   0.58897   0.13945   0.00000  Uiso   1.00
C259   C     0.62366   0.59674   0.07481   0.00000  Uiso   1.00
H260   H     0.64491   0.62881   0.06584   0.00000  Uiso   1.00
H261   H     0.63903   0.56439   0.05435   0.00000  Uiso   1.00
H262   H     0.59074   0.60300   0.05518   0.00000  Uiso   1.00
H263   H     0.60449   0.62085   0.16074   0.00000  Uiso   1.00
H264   H     0.65346   0.58821   0.15780   0.00000  Uiso   1.00
O265   O     0.25000   0.76280   0.21425   0.00000  Uiso   1.00
O266   O     0.25000   0.90387   0.11908   0.00000  Uiso   1.00
O267   O     0.25000   0.90387   0.21425   0.00000  Uiso   1.00
O268   O     0.25000   0.76280   0.11908   0.00000  Uiso   1.00
H269   H     0.46133   0.70907   0.18081   0.00000  Uiso   1.00
H270   H     0.03842   0.95230   0.12840   0.00000  Uiso   1.00
H271   H     0.46159   0.95230   0.12840   0.00000  Uiso   1.00
H272   H     0.03867   0.70907   0.18081   0.00000  Uiso   1.00
C273   C     0.25000   0.73998   0.16669   0.00000  Uiso   1.00
C274   C     0.25000   0.92669   0.16665   0.00000  Uiso   1.00
O275   O     0.18513   0.83333   0.21427   0.00000  Uiso   1.00
O276   O     0.31487   0.83333   0.11907   0.00000  Uiso   1.00
O277   O     0.31487   0.83333   0.21427   0.00000  Uiso   1.00
O278   O     0.18513   0.83333   0.11907   0.00000  Uiso   1.00
C279   C     0.16442   0.83258   0.16665   0.00000  Uiso   1.00
C280   C     0.33558   0.83258   0.16665   0.00000  Uiso   1.00
Cu281  Cu    0.25000   0.83333   0.22303   0.00000  Uiso   1.00
Cu282  Cu    0.25000   0.83333   0.11031   0.00000  Uiso   1.00
N283   N     0.25000   0.83333   0.02561   0.00000  Uiso   1.00
N284   N     0.25000   0.83333   0.30773   0.00000  Uiso   1.00
C285   C     0.40638   0.87599   0.15277   0.00000  Uiso   1.00
C286   C     0.09356   0.78854   0.17723   0.00000  Uiso   1.00
C287   C     0.40644   0.78854   0.17723   0.00000  Uiso   1.00
C288   C     0.09362   0.87599   0.15277   0.00000  Uiso   1.00
C289   C     0.38373   0.83257   0.16646   0.00000  Uiso   1.00
C290   C     0.11628   0.83257   0.16646   0.00000  Uiso   1.00
C291   C     0.45311   0.78791   0.17320   0.00000  Uiso   1.00
C292   C     0.04689   0.87564   0.15157   0.00000  Uiso   1.00
C293   C     0.45311   0.87564   0.15157   0.00000  Uiso   1.00
C294   C     0.04689   0.78791   0.17320   0.00000  Uiso   1.00
C295   C     0.47648   0.83183   0.16270   0.00000  Uiso   1.00
C296   C     0.02352   0.83183   0.16270   0.00000  Uiso   1.00
C297   C     0.47713   0.74425   0.17793   0.00000  Uiso   1.00
C298   C     0.02281   0.91808   0.13888   0.00000  Uiso   1.00
C299   C     0.47719   0.91808   0.13888   0.00000  Uiso   1.00
C300   C     0.02287   0.74425   0.17793   0.00000  Uiso   1.00
C301   C     0.25000   0.68842   0.16671   0.00000  Uiso   1.00
C302   C     0.25000   0.97824   0.16665   0.00000  Uiso   1.00
C303   C     0.38031   0.92230   0.13944   0.00000  Uiso   1.00
C304   C     0.37634   0.93007   0.07480   0.00000  Uiso   1.00
H305   H     0.40927   0.93631   0.05517   0.00000  Uiso   1.00
H306   H     0.36095   0.89773   0.05435   0.00000  Uiso   1.00
H307   H     0.35512   0.96215   0.06583   0.00000  Uiso   1.00
H308   H     0.34654   0.92155   0.15779   0.00000  Uiso   1.00
H309   H     0.39551   0.95418   0.16074   0.00000  Uiso   1.00
C310   C     0.11992   0.74248   0.19083   0.00000  Uiso   1.00
C311   C     0.13347   0.71669   0.13581   0.00000  Uiso   1.00
H312   H     0.10380   0.70292   0.11295   0.00000  Uiso   1.00
H313   H     0.15179   0.74174   0.10702   0.00000  Uiso   1.00
H314   H     0.15558   0.68579   0.14644   0.00000  Uiso   1.00
H315   H     0.15004   0.75095   0.21594   0.00000  Uiso   1.00
H316   H     0.10176   0.71724   0.21943   0.00000  Uiso   1.00
C317   C     0.38008   0.74248   0.19083   0.00000  Uiso   1.00
C318   C     0.36653   0.71669   0.13582   0.00000  Uiso   1.00
H319   H     0.34821   0.74174   0.10703   0.00000  Uiso   1.00
H320   H     0.39620   0.70292   0.11296   0.00000  Uiso   1.00
H321   H     0.34442   0.68579   0.14644   0.00000  Uiso   1.00
H322   H     0.39824   0.71724   0.21944   0.00000  Uiso   1.00
H323   H     0.34996   0.75095   0.21595   0.00000  Uiso   1.00
C324   C     0.11969   0.92230   0.13945   0.00000  Uiso   1.00
C325   C     0.12366   0.93007   0.07481   0.00000  Uiso   1.00
H326   H     0.14491   0.96214   0.06584   0.00000  Uiso   1.00
H327   H     0.13903   0.89772   0.05435   0.00000  Uiso   1.00
H328   H     0.09074   0.93634   0.05518   0.00000  Uiso   1.00
H329   H     0.10449   0.95418   0.16074   0.00000  Uiso   1.00
H330   H     0.15346   0.92155   0.15780   0.00000  Uiso   1.00
O331   O     0.75000   0.76280   0.21425   0.00000  Uiso   1.00
O332   O     0.75000   0.90387   0.11908   0.00000  Uiso   1.00
O333   O     0.75000   0.90387   0.21425   0.00000  Uiso   1.00
O334   O     0.75000   0.76280   0.11908   0.00000  Uiso   1.00
H335   H     0.96133   0.70907   0.18081   0.00000  Uiso   1.00
H336   H     0.53842   0.95230   0.12840   0.00000  Uiso   1.00
H337   H     0.96159   0.95230   0.12840   0.00000  Uiso   1.00
H338   H     0.53867   0.70907   0.18081   0.00000  Uiso   1.00
C339   C     0.75000   0.73998   0.16669   0.00000  Uiso   1.00
C340   C     0.75000   0.92669   0.16665   0.00000  Uiso   1.00
O341   O     0.68513   0.83333   0.21427   0.00000  Uiso   1.00
O342   O     0.81487   0.83333   0.11907   0.00000  Uiso   1.00
O343   O     0.81487   0.83333   0.21427   0.00000  Uiso   1.00
O344   O     0.68513   0.83333   0.11907   0.00000  Uiso   1.00
C345   C     0.66442   0.83258   0.16665   0.00000  Uiso   1.00
C346   C     0.83558   0.83258   0.16665   0.00000  Uiso   1.00
Cu347  Cu    0.75000   0.83333   0.22303   0.00000  Uiso   1.00
Cu348  Cu    0.75000   0.83333   0.11031   0.00000  Uiso   1.00
N349   N     0.75000   0.83333   0.02561   0.00000  Uiso   1.00
N350   N     0.75000   0.83333   0.30773   0.00000  Uiso   1.00
C351   C     0.90638   0.87599   0.15277   0.00000  Uiso   1.00
C352   C     0.59356   0.78854   0.17723   0.00000  Uiso   1.00
C353   C     0.90644   0.78854   0.17723   0.00000  Uiso   1.00
C354   C     0.59362   0.87599   0.15277   0.00000  Uiso   1.00
C355   C     0.88373   0.83257   0.16646   0.00000  Uiso   1.00
C356   C     0.61628   0.83257   0.16646   0.00000  Uiso   1.00
C357   C     0.95311   0.78791   0.17320   0.00000  Uiso   1.00
C358   C     0.54689   0.87564   0.15157   0.00000  Uiso   1.00
C359   C     0.95311   0.87564   0.15157   0.00000  Uiso   1.00
C360   C     0.54689   0.78791   0.17320   0.00000  Uiso   1.00
C361   C     0.97648   0.83183   0.16270   0.00000  Uiso   1.00
C362   C     0.52352   0.83183   0.16270   0.00000  Uiso   1.00
C363   C     0.97713   0.74425   0.17793   0.00000  Uiso   1.00
C364   C     0.52281   0.91808   0.13888   0.00000  Uiso   1.00
C365   C     0.97719   0.91808   0.13888   0.00000  Uiso   1.00
C366   C     0.52287   0.74425   0.17793   0.00000  Uiso   1.00
C367   C     0.75000   0.68842   0.16671   0.00000  Uiso   1.00
C368   C     0.75000   0.97824   0.16665   0.00000  Uiso   1.00
C369   C     0.88031   0.92230   0.13944   0.00000  Uiso   1.00
C370   C     0.87634   0.93007   0.07480   0.00000  Uiso   1.00
H371   H     0.90927   0.93631   0.05517   0.00000  Uiso   1.00
H372   H     0.86095   0.89773   0.05435   0.00000  Uiso   1.00
H373   H     0.85512   0.96215   0.06583   0.00000  Uiso   1.00
H374   H     0.84654   0.92155   0.15779   0.00000  Uiso   1.00
H375   H     0.89551   0.95418   0.16074   0.00000  Uiso   1.00
C376   C     0.61992   0.74248   0.19083   0.00000  Uiso   1.00
C377   C     0.63347   0.71669   0.13581   0.00000  Uiso   1.00
H378   H     0.60380   0.70292   0.11295   0.00000  Uiso   1.00
H379   H     0.65179   0.74174   0.10702   0.00000  Uiso   1.00
H380   H     0.65558   0.68579   0.14644   0.00000  Uiso   1.00
H381   H     0.65004   0.75095   0.21594   0.00000  Uiso   1.00
H382   H     0.60176   0.71724   0.21943   0.00000  Uiso   1.00
C383   C     0.88008   0.74248   0.19083   0.00000  Uiso   1.00
C384   C     0.86653   0.71669   0.13582   0.00000  Uiso   1.00
H385   H     0.84821   0.74174   0.10703   0.00000  Uiso   1.00
H386   H     0.89620   0.70292   0.11296   0.00000  Uiso   1.00
H387   H     0.84442   0.68579   0.14644   0.00000  Uiso   1.00
H388   H     0.89824   0.71724   0.21944   0.00000  Uiso   1.00
H389   H     0.84996   0.75095   0.21595   0.00000  Uiso   1.00
C390   C     0.61969   0.92230   0.13945   0.00000  Uiso   1.00
C391   C     0.62366   0.93007   0.07481   0.00000  Uiso   1.00
H392   H     0.64491   0.96214   0.06584   0.00000  Uiso   1.00
H393   H     0.63903   0.89772   0.05435   0.00000  Uiso   1.00
H394   H     0.59074   0.93634   0.05518   0.00000  Uiso   1.00
H395   H     0.60449   0.95418   0.16074   0.00000  Uiso   1.00
H396   H     0.65346   0.92155   0.15780   0.00000  Uiso   1.00
O397   O     0.25000   0.09613   0.54759   0.00000  Uiso   1.00
O398   O     0.25000   0.23720   0.45241   0.00000  Uiso   1.00
O399   O     0.25000   0.23720   0.54759   0.00000  Uiso   1.00
O400   O     0.25000   0.09613   0.45241   0.00000  Uiso   1.00
H401   H     0.46133   0.04240   0.51415   0.00000  Uiso   1.00
H402   H     0.03842   0.28563   0.46174   0.00000  Uiso   1.00
H403   H     0.46159   0.28563   0.46173   0.00000  Uiso   1.00
H404   H     0.03867   0.04240   0.51415   0.00000  Uiso   1.00
C405   C     0.25000   0.07332   0.50002   0.00000  Uiso   1.00
C406   C     0.25000   0.26002   0.49998   0.00000  Uiso   1.00
O407   O     0.18513   0.16667   0.54760   0.00000  Uiso   1.00
O408   O     0.31487   0.16667   0.45240   0.00000  Uiso   1.00
O409   O     0.31487   0.16667   0.54760   0.00000  Uiso   1.00
O410   O     0.18513   0.16667   0.45240   0.00000  Uiso   1.00
C411   C     0.16442   0.16592   0.49998   0.00000  Uiso   1.00
C412   C     0.33558   0.16592   0.49998   0.00000  Uiso   1.00
Cu413  Cu    0.25000   0.16667   0.55636   0.00000  Uiso   1.00
Cu414  Cu    0.25000   0.16667   0.44364   0.00000  Uiso   1.00
N415   N     0.25000   0.16667   0.35894   0.00000  Uiso   1.00
N416   N     0.25000   0.16667   0.64106   0.00000  Uiso   1.00
C417   C     0.40638   0.20932   0.48610   0.00000  Uiso   1.00
C418   C     0.09356   0.12187   0.51056   0.00000  Uiso   1.00
C419   C     0.40644   0.12187   0.51056   0.00000  Uiso   1.00
C420   C     0.09362   0.20932   0.48611   0.00000  Uiso   1.00
C421   C     0.38373   0.16590   0.49979   0.00000  Uiso   1.00
C422   C     0.11628   0.16590   0.49979   0.00000  Uiso   1.00
C423   C     0.45311   0.12125   0.50654   0.00000  Uiso   1.00
C424   C     0.04689   0.20898   0.48490   0.00000  Uiso   1.00
C425   C     0.45311   0.20898   0.48490   0.00000  Uiso   1.00
C426   C     0.04689   0.12125   0.50653   0.00000  Uiso   1.00
C427   C     0.47648   0.16517   0.49603   0.00000  Uiso   1.00
C428   C     0.02352   0.16517   0.49603   0.00000  Uiso   1.00
C429   C     0.47713   0.07758   0.51127   0.00000  Uiso   1.00
C430   C     0.02281   0.25142   0.47221   0.00000  Uiso   1.00
C431   C     0.47719   0.25142   0.47221   0.00000  Uiso   1.00
C432   C     0.02287   0.07758   0.51127   0.00000  Uiso   1.00
C433   C     0.25000   0.02175   0.50004   0.00000  Uiso   1.00
C434   C     0.25000   0.31158   0.49999   0.00000  Uiso   1.00
C435   C     0.38031   0.25563   0.47277   0.00000  Uiso   1.00
C436   C     0.37634   0.26340   0.40813   0.00000  Uiso   1.00
H437   H     0.40927   0.26964   0.38851   0.00000  Uiso   1.00
H438   H     0.36095   0.23106   0.38769   0.00000  Uiso   1.00
H439   H     0.35512   0.29549   0.39916   0.00000  Uiso   1.00
H440   H     0.34654   0.25488   0.49113   0.00000  Uiso   1.00
H441   H     0.39551   0.28752   0.49407   0.00000  Uiso   1.00
C442   C     0.11992   0.07581   0.52416   0.00000  Uiso   1.00
C443   C     0.13347   0.05002   0.46914   0.00000  Uiso   1.00
H444   H     0.10380   0.03625   0.44629   0.00000  Uiso   1.00
H445   H     0.15179   0.07508   0.44036   0.00000  Uiso   1.00
H446   H     0.15558   0.01912   0.47977   0.00000  Uiso   1.00
H447   H     0.15004   0.08428   0.54928   0.00000  Uiso   1.00
H448   H     0.10176   0.05057   0.55277   0.00000  Uiso   1.00
C449   C     0.38008   0.07581   0.52417   0.00000  Uiso   1.00
C450   C     0.36653   0.05002   0.46915   0.00000  Uiso   1.00
H451   H     0.34821   0.07507   0.44036   0.00000  Uiso   1.00
H452   H     0.39620   0.03625   0.44629   0.00000  Uiso   1.00
H453   H     0.34442   0.01912   0.47978   0.00000  Uiso   1.00
H454   H     0.39824   0.05057   0.55277   0.00000  Uiso   1.00
H455   H     0.34996   0.08428   0.54928   0.00000  Uiso   1.00
C456   C     0.11969   0.25563   0.47278   0.00000  Uiso   1.00
C457   C     0.12366   0.26341   0.40814   0.00000  Uiso   1.00
H458   H     0.14491   0.29548   0.39917   0.00000  Uiso   1.00
H459   H     0.13903   0.23106   0.38769   0.00000  Uiso   1.00
H460   H     0.09074   0.26967   0.38852   0.00000  Uiso   1.00
H461   H     0.10449   0.28752   0.49408   0.00000  Uiso   1.00
H462   H     0.15346   0.25488   0.49113   0.00000  Uiso   1.00
O463   O     0.75000   0.09613   0.54759   0.00000  Uiso   1.00
O464   O     0.75000   0.23720   0.45241   0.00000  Uiso   1.00
O465   O     0.75000   0.23720   0.54759   0.00000  Uiso   1.00
O466   O     0.75000   0.09613   0.45241   0.00000  Uiso   1.00
H467   H     0.96133   0.04240   0.51415   0.00000  Uiso   1.00
H468   H     0.53842   0.28563   0.46174   0.00000  Uiso   1.00
H469   H     0.96159   0.28563   0.46173   0.00000  Uiso   1.00
H470   H     0.53867   0.04240   0.51415   0.00000  Uiso   1.00
C471   C     0.75000   0.07332   0.50002   0.00000  Uiso   1.00
C472   C     0.75000   0.26002   0.49998   0.00000  Uiso   1.00
O473   O     0.68513   0.16667   0.54760   0.00000  Uiso   1.00
O474   O     0.81487   0.16667   0.45240   0.00000  Uiso   1.00
O475   O     0.81487   0.16667   0.54760   0.00000  Uiso   1.00
O476   O     0.68513   0.16667   0.45240   0.00000  Uiso   1.00
C477   C     0.66442   0.16592   0.49998   0.00000  Uiso   1.00
C478   C     0.83558   0.16592   0.49998   0.00000  Uiso   1.00
Cu479  Cu    0.75000   0.16667   0.55636   0.00000  Uiso   1.00
Cu480  Cu    0.75000   0.16667   0.44364   0.00000  Uiso   1.00
N481   N     0.75000   0.16667   0.35894   0.00000  Uiso   1.00
N482   N     0.75000   0.16667   0.64106   0.00000  Uiso   1.00
C483   C     0.90638   0.20932   0.48610   0.00000  Uiso   1.00
C484   C     0.59356   0.12187   0.51056   0.00000  Uiso   1.00
C485   C     0.90644   0.12187   0.51056   0.00000  Uiso   1.00
C486   C     0.59362   0.20932   0.48611   0.00000  Uiso   1.00
C487   C     0.88373   0.16590   0.49979   0.00000  Uiso   1.00
C488   C     0.61628   0.16590   0.49979   0.00000  Uiso   1.00
C489   C     0.95311   0.12125   0.50654   0.00000  Uiso   1.00
C490   C     0.54689   0.20898   0.48490   0.00000  Uiso   1.00
C491   C     0.95311   0.20898   0.48490   0.00000  Uiso   1.00
C492   C     0.54689   0.12125   0.50653   0.00000  Uiso   1.00
C493   C     0.97648   0.16517   0.49603   0.00000  Uiso   1.00
C494   C     0.52352   0.16517   0.49603   0.00000  Uiso   1.00
C495   C     0.97713   0.07758   0.51127   0.00000  Uiso   1.00
C496   C     0.52281   0.25142   0.47221   0.00000  Uiso   1.00
C497   C     0.97719   0.25142   0.47221   0.00000  Uiso   1.00
C498   C     0.52287   0.07758   0.51127   0.00000  Uiso   1.00
C499   C     0.75000   0.02175   0.50004   0.00000  Uiso   1.00
C500   C     0.75000   0.31158   0.49999   0.00000  Uiso   1.00
C501   C     0.88031   0.25563   0.47277   0.00000  Uiso   1.00
C502   C     0.87634   0.26340   0.40813   0.00000  Uiso   1.00
H503   H     0.90927   0.26964   0.38851   0.00000  Uiso   1.00
H504   H     0.86095   0.23106   0.38769   0.00000  Uiso   1.00
H505   H     0.85512   0.29549   0.39916   0.00000  Uiso   1.00
H506   H     0.84654   0.25488   0.49113   0.00000  Uiso   1.00
H507   H     0.89551   0.28752   0.49407   0.00000  Uiso   1.00
C508   C     0.61992   0.07581   0.52416   0.00000  Uiso   1.00
C509   C     0.63347   0.05002   0.46914   0.00000  Uiso   1.00
H510   H     0.60380   0.03625   0.44629   0.00000  Uiso   1.00
H511   H     0.65179   0.07508   0.44036   0.00000  Uiso   1.00
H512   H     0.65558   0.01912   0.47977   0.00000  Uiso   1.00
H513   H     0.65004   0.08428   0.54928   0.00000  Uiso   1.00
H514   H     0.60176   0.05057   0.55277   0.00000  Uiso   1.00
C515   C     0.88008   0.07581   0.52417   0.00000  Uiso   1.00
C516   C     0.86653   0.05002   0.46915   0.00000  Uiso   1.00
H517   H     0.84821   0.07507   0.44036   0.00000  Uiso   1.00
H518   H     0.89620   0.03625   0.44629   0.00000  Uiso   1.00
H519   H     0.84442   0.01912   0.47978   0.00000  Uiso   1.00
H520   H     0.89824   0.05057   0.55277   0.00000  Uiso   1.00
H521   H     0.84996   0.08428   0.54928   0.00000  Uiso   1.00
C522   C     0.61969   0.25563   0.47278   0.00000  Uiso   1.00
C523   C     0.62366   0.26341   0.40814   0.00000  Uiso   1.00
H524   H     0.64491   0.29548   0.39917   0.00000  Uiso   1.00
H525   H     0.63903   0.23106   0.38769   0.00000  Uiso   1.00
H526   H     0.59074   0.26967   0.38852   0.00000  Uiso   1.00
H527   H     0.60449   0.28752   0.49408   0.00000  Uiso   1.00
H528   H     0.65346   0.25488   0.49113   0.00000  Uiso   1.00
O529   O     0.25000   0.42946   0.54759   0.00000  Uiso   1.00
O530   O     0.25000   0.57054   0.45241   0.00000  Uiso   1.00
O531   O     0.25000   0.57054   0.54759   0.00000  Uiso   1.00
O532   O     0.25000   0.42946   0.45241   0.00000  Uiso   1.00
H533   H     0.46133   0.37573   0.51415   0.00000  Uiso   1.00
H534   H     0.03842   0.61897   0.46174   0.00000  Uiso   1.00
H535   H     0.46159   0.61897   0.46173   0.00000  Uiso   1.00
H536   H     0.03867   0.37573   0.51415   0.00000  Uiso   1.00
C537   C     0.25000   0.40665   0.50002   0.00000  Uiso   1.00
C538   C     0.25000   0.59335   0.49998   0.00000  Uiso   1.00
O539   O     0.18513   0.50000   0.54760   0.00000  Uiso   1.00
O540   O     0.31487   0.50000   0.45240   0.00000  Uiso   1.00
O541   O     0.31487   0.50000   0.54760   0.00000  Uiso   1.00
O542   O     0.18513   0.50000   0.45240   0.00000  Uiso   1.00
C543   C     0.16442   0.49925   0.49998   0.00000  Uiso   1.00
C544   C     0.33558   0.49925   0.49998   0.00000  Uiso   1.00
Cu545  Cu    0.25000   0.50000   0.55636   0.00000  Uiso   1.00
Cu546  Cu    0.25000   0.50000   0.44364   0.00000  Uiso   1.00
N547   N     0.25000   0.50000   0.35894   0.00000  Uiso   1.00
N548   N     0.25000   0.50000   0.64106   0.00000  Uiso   1.00
C549   C     0.40638   0.54266   0.48610   0.00000  Uiso   1.00
C550   C     0.09356   0.45521   0.51056   0.00000  Uiso   1.00
C551   C     0.40644   0.45521   0.51056   0.00000  Uiso   1.00
C552   C     0.09362   0.54266   0.48611   0.00000  Uiso   1.00
C553   C     0.38373   0.49923   0.49979   0.00000  Uiso   1.00
C554   C     0.11628   0.49923   0.49979   0.00000  Uiso   1.00
C555   C     0.45311   0.45458   0.50654   0.00000  Uiso   1.00
C556   C     0.04689   0.54231   0.48490   0.00000  Uiso   1.00
C557   C     0.45311   0.54231   0.48490   0.00000  Uiso   1.00
C558   C     0.04689   0.45458   0.50653   0.00000  Uiso   1.00
C559   C     0.47648   0.49850   0.49603   0.00000  Uiso   1.00
C560   C     0.02352   0.49850   0.49603   0.00000  Uiso   1.00
C561   C     0.47713   0.41092   0.51127   0.00000  Uiso   1.00
C562   C     0.02281   0.58475   0.47221   0.00000  Uiso   1.00
C563   C     0.47719   0.58475   0.47221   0.00000  Uiso   1.00
C564   C     0.02287   0.41092   0.51127   0.00000  Uiso   1.00
C565   C     0.25000   0.35509   0.50004   0.00000  Uiso   1.00
C566   C     0.25000   0.64491   0.49999   0.00000  Uiso   1.00
C567   C     0.38031   0.58896   0.47277   0.00000  Uiso   1.00
C568   C     0.37634   0.59674   0.40813   0.00000  Uiso   1.00
H569   H     0.40927   0.60297   0.38851   0.00000  Uiso   1.00
H570   H     0.36095   0.56440   0.38769   0.00000  Uiso   1.00
H571   H     0.35512   0.62882   0.39916   0.00000  Uiso   1.00
H572   H     0.34654   0.58821   0.49113   0.00000  Uiso   1.00
H573   H     0.39551   0.62085   0.49407   0.00000  Uiso   1.00
C574   C     0.11992   0.40915   0.52416   0.00000  Uiso   1.00
C575   C     0.13347   0.38335   0.46914   0.00000  Uiso   1.00
H576   H     0.10380   0.36958   0.44629   0.00000  Uiso   1.00
H577   H     0.15179   0.40841   0.44036   0.00000  Uiso   1.00
H578   H     0.15558   0.35246   0.47977   0.00000  Uiso   1.00
H579   H     0.15004   0.41762   0.54928   0.00000  Uiso   1.00
H580   H     0.10176   0.38391   0.55277   0.00000  Uiso   1.00
C581   C     0.38008   0.40915   0.52417   0.00000  Uiso   1.00
C582   C     0.36653   0.38335   0.46915   0.00000  Uiso   1.00
H583   H     0.34821   0.40841   0.44036   0.00000  Uiso   1.00
H584   H     0.39620   0.36959   0.44629   0.00000  Uiso   1.00
H585   H     0.34442   0.35245   0.47978   0.00000  Uiso   1.00
H586   H     0.39824   0.38391   0.55277   0.00000  Uiso   1.00
H587   H     0.34996   0.41762   0.54928   0.00000  Uiso   1.00
C588   C     0.11969   0.58897   0.47278   0.00000  Uiso   1.00
C589   C     0.12366   0.59674   0.40814   0.00000  Uiso   1.00
H590   H     0.14491   0.62881   0.39917   0.00000  Uiso   1.00
H591   H     0.13903   0.56439   0.38769   0.00000  Uiso   1.00
H592   H     0.09074   0.60300   0.38852   0.00000  Uiso   1.00
H593   H     0.10449   0.62085   0.49408   0.00000  Uiso   1.00
H594   H     0.15346   0.58821   0.49113   0.00000  Uiso   1.00
O595   O     0.75000   0.42946   0.54759   0.00000  Uiso   1.00
O596   O     0.75000   0.57054   0.45241   0.00000  Uiso   1.00
O597   O     0.75000   0.57054   0.54759   0.00000  Uiso   1.00
O598   O     0.75000   0.42946   0.45241   0.00000  Uiso   1.00
H599   H     0.96133   0.37573   0.51415   0.00000  Uiso   1.00
H600   H     0.53842   0.61897   0.46174   0.00000  Uiso   1.00
H601   H     0.96159   0.61897   0.46173   0.00000  Uiso   1.00
H602   H     0.53867   0.37573   0.51415   0.00000  Uiso   1.00
C603   C     0.75000   0.40665   0.50002   0.00000  Uiso   1.00
C604   C     0.75000   0.59335   0.49998   0.00000  Uiso   1.00
O605   O     0.68513   0.50000   0.54760   0.00000  Uiso   1.00
O606   O     0.81487   0.50000   0.45240   0.00000  Uiso   1.00
O607   O     0.81487   0.50000   0.54760   0.00000  Uiso   1.00
O608   O     0.68513   0.50000   0.45240   0.00000  Uiso   1.00
C609   C     0.66442   0.49925   0.49998   0.00000  Uiso   1.00
C610   C     0.83558   0.49925   0.49998   0.00000  Uiso   1.00
Cu611  Cu    0.75000   0.50000   0.55636   0.00000  Uiso   1.00
Cu612  Cu    0.75000   0.50000   0.44364   0.00000  Uiso   1.00
N613   N     0.75000   0.50000   0.35894   0.00000  Uiso   1.00
N614   N     0.75000   0.50000   0.64106   0.00000  Uiso   1.00
C615   C     0.90638   0.54266   0.48610   0.00000  Uiso   1.00
C616   C     0.59356   0.45521   0.51056   0.00000  Uiso   1.00
C617   C     0.90644   0.45521   0.51056   0.00000  Uiso   1.00
C618   C     0.59362   0.54266   0.48611   0.00000  Uiso   1.00
C619   C     0.88373   0.49923   0.49979   0.00000  Uiso   1.00
C620   C     0.61628   0.49923   0.49979   0.00000  Uiso   1.00
C621   C     0.95311   0.45458   0.50654   0.00000  Uiso   1.00
C622   C     0.54689   0.54231   0.48490   0.00000  Uiso   1.00
C623   C     0.95311   0.54231   0.48490   0.00000  Uiso   1.00
C624   C     0.54689   0.45458   0.50653   0.00000  Uiso   1.00
C625   C     0.97648   0.49850   0.49603   0.00000  Uiso   1.00
C626   C     0.52352   0.49850   0.49603   0.00000  Uiso   1.00
C627   C     0.97713   0.41092   0.51127   0.00000  Uiso   1.00
C628   C     0.52281   0.58475   0.47221   0.00000  Uiso   1.00
C629   C     0.97719   0.58475   0.47221   0.00000  Uiso   1.00
C630   C     0.52287   0.41092   0.51127   0.00000  Uiso   1.00
C631   C     0.75000   0.35509   0.50004   0.00000  Uiso   1.00
C632   C     0.75000   0.64491   0.49999   0.00000  Uiso   1.00
C633   C     0.88031   0.58896   0.47277   0.00000  Uiso   1.00
C634   C     0.87634   0.59674   0.40813   0.00000  Uiso   1.00
H635   H     0.90927   0.60297   0.38851   0.00000  Uiso   1.00
H636   H     0.86095   0.56440   0.38769   0.00000  Uiso   1.00
H637   H     0.85512   0.62882   0.39916   0.00000  Uiso   1.00
H638   H     0.84654   0.58821   0.49113   0.00000  Uiso   1.00
H639   H     0.89551   0.62085   0.49407   0.00000  Uiso   1.00
C640   C     0.61992   0.40915   0.52416   0.00000  Uiso   1.00
C641   C     0.63347   0.38335   0.46914   0.00000  Uiso   1.00
H642   H     0.60380   0.36958   0.44629   0.00000  Uiso   1.00
H643   H     0.65179   0.40841   0.44036   0.00000  Uiso   1.00
H644   H     0.65558   0.35246   0.47977   0.00000  Uiso   1.00
H645   H     0.65004   0.41762   0.54928   0.00000  Uiso   1.00
H646   H     0.60176   0.38391   0.55277   0.00000  Uiso   1.00
C647   C     0.88008   0.40915   0.52417   0.00000  Uiso   1.00
C648   C     0.86653   0.38335   0.46915   0.00000  Uiso   1.00
H649   H     0.84821   0.40841   0.44036   0.00000  Uiso   1.00
H650   H     0.89620   0.36959   0.44629   0.00000  Uiso   1.00
H651   H     0.84442   0.35245   0.47978   0.00000  Uiso   1.00
H652   H     0.89824   0.38391   0.55277   0.00000  Uiso   1.00
H653   H     0.84996   0.41762   0.54928   0.00000  Uiso   1.00
C654   C     0.61969   0.58897   0.47278   0.00000  Uiso   1.00
C655   C     0.62366   0.59674   0.40814   0.00000  Uiso   1.00
H656   H     0.64491   0.62881   0.39917   0.00000  Uiso   1.00
H657   H     0.63903   0.56439   0.38769   0.00000  Uiso   1.00
H658   H     0.59074   0.60300   0.38852   0.00000  Uiso   1.00
H659   H     0.60449   0.62085   0.49408   0.00000  Uiso   1.00
H660   H     0.65346   0.58821   0.49113   0.00000  Uiso   1.00
O661   O     0.25000   0.76280   0.54759   0.00000  Uiso   1.00
O662   O     0.25000   0.90387   0.45241   0.00000  Uiso   1.00
O663   O     0.25000   0.90387   0.54759   0.00000  Uiso   1.00
O664   O     0.25000   0.76280   0.45241   0.00000  Uiso   1.00
H665   H     0.46133   0.70907   0.51415   0.00000  Uiso   1.00
H666   H     0.03842   0.95230   0.46174   0.00000  Uiso   1.00
H667   H     0.46159   0.95230   0.46173   0.00000  Uiso   1.00
H668   H     0.03867   0.70907   0.51415   0.00000  Uiso   1.00
C669   C     0.25000   0.73998   0.50002   0.00000  Uiso   1.00
C670   C     0.25000   0.92669   0.49998   0.00000  Uiso   1.00
O671   O     0.18513   0.83333   0.54760   0.00000  Uiso   1.00
O672   O     0.31487   0.83333   0.45240   0.00000  Uiso   1.00
O673   O     0.31487   0.83333   0.54760   0.00000  Uiso   1.00
O674   O     0.18513   0.83333   0.45240   0.00000  Uiso   1.00
C675   C     0.16442   0.83258   0.49998   0.00000  Uiso   1.00
C676   C     0.33558   0.83258   0.49998   0.00000  Uiso   1.00
Cu677  Cu    0.25000   0.83333   0.55636   0.00000  Uiso   1.00
Cu678  Cu    0.25000   0.83333   0.44364   0.00000  Uiso   1.00
N679   N     0.25000   0.83333   0.35894   0.00000  Uiso   1.00
N680   N     0.25000   0.83333   0.64106   0.00000  Uiso   1.00
C681   C     0.40638   0.87599   0.48610   0.00000  Uiso   1.00
C682   C     0.09356   0.78854   0.51056   0.00000  Uiso   1.00
C683   C     0.40644   0.78854   0.51056   0.00000  Uiso   1.00
C684   C     0.09362   0.87599   0.48611   0.00000  Uiso   1.00
C685   C     0.38373   0.83257   0.49979   0.00000  Uiso   1.00
C686   C     0.11628   0.83257   0.49979   0.00000  Uiso   1.00
C687   C     0.45311   0.78791   0.50654   0.00000  Uiso   1.00
C688   C     0.04689   0.87564   0.48490   0.00000  Uiso   1.00
C689   C     0.45311   0.87564   0.48490   0.00000  Uiso   1.00
C690   C     0.04689   0.78791   0.50653   0.00000  Uiso   1.00
C691   C     0.47648   0.83183   0.49603   0.00000  Uiso   1.00
C692   C     0.02352   0.83183   0.49603   0.00000  Uiso   1.00
C693   C     0.47713   0.74425   0.51127   0.00000  Uiso   1.00
C694   C     0.02281   0.91808   0.47221   0.00000  Uiso   1.00
C695   C     0.47719   0.91808   0.47221   0.00000  Uiso   1.00
C696   C     0.02287   0.74425   0.51127   0.00000  Uiso   1.00
C697   C     0.25000   0.68842   0.50004   0.00000  Uiso   1.00
C698   C     0.25000   0.97824   0.49999   0.00000  Uiso   1.00
C699   C     0.38031   0.92230   0.47277   0.00000  Uiso   1.00
C700   C     0.37634   0.93007   0.40813   0.00000  Uiso   1.00
H701   H     0.40927   0.93631   0.38851   0.00000  Uiso   1.00
H702   H     0.36095   0.89773   0.38769   0.00000  Uiso   1.00
H703   H     0.35512   0.96215   0.39916   0.00000  Uiso   1.00
H704   H     0.34654   0.92155   0.49113   0.00000  Uiso   1.00
H705   H     0.39551   0.95418   0.49407   0.00000  Uiso   1.00
C706   C     0.11992   0.74248   0.52416   0.00000  Uiso   1.00
C707   C     0.13347   0.71669   0.46914   0.00000  Uiso   1.00
H708   H     0.10380   0.70292   0.44629   0.00000  Uiso   1.00
H709   H     0.15179   0.74174   0.44036   0.00000  Uiso   1.00
H710   H     0.15558   0.68579   0.47977   0.00000  Uiso   1.00
H711   H     0.15004   0.75095   0.54928   0.00000  Uiso   1.00
H712   H     0.10176   0.71724   0.55277   0.00000  Uiso   1.00
C713   C     0.38008   0.74248   0.52417   0.00000  Uiso   1.00
C714   C     0.36653   0.71669   0.46915   0.00000  Uiso   1.00
H715   H     0.34821   0.74174   0.44036   0.00000  Uiso   1.00
H716   H     0.39620   0.70292   0.44629   0.00000  Uiso   1.00
H717   H     0.34442   0.68579   0.47978   0.00000  Uiso   1.00
H718   H     0.39824   0.71724   0.55277   0.00000  Uiso   1.00
H719   H     0.34996   0.75095   0.54928   0.00000  Uiso   1.00
C720   C     0.11969   0.92230   0.47278   0.00000  Uiso   1.00
C721   C     0.12366   0.93007   0.40814   0.00000  Uiso   1.00
H722   H     0.14491   0.96214   0.39917   0.00000  Uiso   1.00
H723   H     0.13903   0.89772   0.38769   0.00000  Uiso   1.00
H724   H     0.09074   0.93634   0.38852   0.00000  Uiso   1.00
H725   H     0.10449   0.95418   0.49408   0.00000  Uiso   1.00
H726   H     0.15346   0.92155   0.49113   0.00000  Uiso   1.00
O727   O     0.75000   0.76280   0.54759   0.00000  Uiso   1.00
O728   O     0.75000   0.90387   0.45241   0.00000  Uiso   1.00
O729   O     0.75000   0.90387   0.54759   0.00000  Uiso   1.00
O730   O     0.75000   0.76280   0.45241   0.00000  Uiso   1.00
H731   H     0.96133   0.70907   0.51415   0.00000  Uiso   1.00
H732   H     0.53842   0.95230   0.46174   0.00000  Uiso   1.00
H733   H     0.96159   0.95230   0.46173   0.00000  Uiso   1.00
H734   H     0.53867   0.70907   0.51415   0.00000  Uiso   1.00
C735   C     0.75000   0.73998   0.50002   0.00000  Uiso   1.00
C736   C     0.75000   0.92669   0.49998   0.00000  Uiso   1.00
O737   O     0.68513   0.83333   0.54760   0.00000  Uiso   1.00
O738   O     0.81487   0.83333   0.45240   0.00000  Uiso   1.00
O739   O     0.81487   0.83333   0.54760   0.00000  Uiso   1.00
O740   O     0.68513   0.83333   0.45240   0.00000  Uiso   1.00
C741   C     0.66442   0.83258   0.49998   0.00000  Uiso   1.00
C742   C     0.83558   0.83258   0.49998   0.00000  Uiso   1.00
Cu743  Cu    0.75000   0.83333   0.55636   0.00000  Uiso   1.00
Cu744  Cu    0.75000   0.83333   0.44364   0.00000  Uiso   1.00
N745   N     0.75000   0.83333   0.35894   0.00000  Uiso   1.00
N746   N     0.75000   0.83333   0.64106   0.00000  Uiso   1.00
C747   C     0.90638   0.87599   0.48610   0.00000  Uiso   1.00
C748   C     0.59356   0.78854   0.51056   0.00000  Uiso   1.00
C749   C     0.90644   0.78854   0.51056   0.00000  Uiso   1.00
C750   C     0.59362   0.87599   0.48611   0.00000  Uiso   1.00
C751   C     0.88373   0.83257   0.49979   0.00000  Uiso   1.00
C752   C     0.61628   0.83257   0.49979   0.00000  Uiso   1.00
C753   C     0.95311   0.78791   0.50654   0.00000  Uiso   1.00
C754   C     0.54689   0.87564   0.48490   0.00000  Uiso   1.00
C755   C     0.95311   0.87564   0.48490   0.00000  Uiso   1.00
C756   C     0.54689   0.78791   0.50653   0.00000  Uiso   1.00
C757   C     0.97648   0.83183   0.49603   0.00000  Uiso   1.00
C758   C     0.52352   0.83183   0.49603   0.00000  Uiso   1.00
C759   C     0.97713   0.74425   0.51127   0.00000  Uiso   1.00
C760   C     0.52281   0.91808   0.47221   0.00000  Uiso   1.00
C761   C     0.97719   0.91808   0.47221   0.00000  Uiso   1.00
C762   C     0.52287   0.74425   0.51127   0.00000  Uiso   1.00
C763   C     0.75000   0.68842   0.50004   0.00000  Uiso   1.00
C764   C     0.75000   0.97824   0.49999   0.00000  Uiso   1.00
C765   C     0.88031   0.92230   0.47277   0.00000  Uiso   1.00
C766   C     0.87634   0.93007   0.40813   0.00000  Uiso   1.00
H767   H     0.90927   0.93631   0.38851   0.00000  Uiso   1.00
H768   H     0.86095   0.89773   0.38769   0.00000  Uiso   1.00
H769   H     0.85512   0.96215   0.39916   0.00000  Uiso   1.00
H770   H     0.84654   0.92155   0.49113   0.00000  Uiso   1.00
H771   H     0.89551   0.95418   0.49407   0.00000  Uiso   1.00
C772   C     0.61992   0.74248   0.52416   0.00000  Uiso   1.00
C773   C     0.63347   0.71669   0.46914   0.00000  Uiso   1.00
H774   H     0.60380   0.70292   0.44629   0.00000  Uiso   1.00
H775   H     0.65179   0.74174   0.44036   0.00000  Uiso   1.00
H776   H     0.65558   0.68579   0.47977   0.00000  Uiso   1.00
H777   H     0.65004   0.75095   0.54928   0.00000  Uiso   1.00
H778   H     0.60176   0.71724   0.55277   0.00000  Uiso   1.00
C779   C     0.88008   0.74248   0.52417   0.00000  Uiso   1.00
C780   C     0.86653   0.71669   0.46915   0.00000  Uiso   1.00
H781   H     0.84821   0.74174   0.44036   0.00000  Uiso   1.00
H782   H     0.89620   0.70292   0.44629   0.00000  Uiso   1.00
H783   H     0.84442   0.68579   0.47978   0.00000  Uiso   1.00
H784   H     0.89824   0.71724   0.55277   0.00000  Uiso   1.00
H785   H     0.84996   0.75095   0.54928   0.00000  Uiso   1.00
C786   C     0.61969   0.92230   0.47278   0.00000  Uiso   1.00
C787   C     0.62366   0.93007   0.40814   0.00000  Uiso   1.00
H788   H     0.64491   0.96214   0.39917   0.00000  Uiso   1.00
H789   H     0.63903   0.89772   0.38769   0.00000  Uiso   1.00
H790   H     0.59074   0.93634   0.38852   0.00000  Uiso   1.00
H791   H     0.60449   0.95418   0.49408   0.00000  Uiso   1.00
H792   H     0.65346   0.92155   0.49113   0.00000  Uiso   1.00
O793   O     0.25000   0.09613   0.88092   0.00000  Uiso   1.00
O794   O     0.25000   0.23720   0.78575   0.00000  Uiso   1.00
O795   O     0.25000   0.23720   0.88092   0.00000  Uiso   1.00
O796   O     0.25000   0.09613   0.78575   0.00000  Uiso   1.00
H797   H     0.46133   0.04240   0.84748   0.00000  Uiso   1.00
H798   H     0.03842   0.28563   0.79507   0.00000  Uiso   1.00
H799   H     0.46159   0.28563   0.79507   0.00000  Uiso   1.00
H800   H     0.03867   0.04240   0.84748   0.00000  Uiso   1.00
C801   C     0.25000   0.07332   0.83335   0.00000  Uiso   1.00
C802   C     0.25000   0.26002   0.83332   0.00000  Uiso   1.00
O803   O     0.18513   0.16667   0.88093   0.00000  Uiso   1.00
O804   O     0.31487   0.16667   0.78573   0.00000  Uiso   1.00
O805   O     0.31487   0.16667   0.88093   0.00000  Uiso   1.00
O806   O     0.18513   0.16667   0.78573   0.00000  Uiso   1.00
C807   C     0.16442   0.16592   0.83331   0.00000  Uiso   1.00
C808   C     0.33558   0.16592   0.83331   0.00000  Uiso   1.00
Cu809  Cu    0.25000   0.16667   0.88969   0.00000  Uiso   1.00
Cu810  Cu    0.25000   0.16667   0.77697   0.00000  Uiso   1.00
N811   N     0.25000   0.16667   0.69227   0.00000  Uiso   1.00
N812   N     0.25000   0.16667   0.97439   0.00000  Uiso   1.00
C813   C     0.40638   0.20932   0.81944   0.00000  Uiso   1.00
C814   C     0.09356   0.12187   0.84389   0.00000  Uiso   1.00
C815   C     0.40644   0.12187   0.84390   0.00000  Uiso   1.00
C816   C     0.09362   0.20932   0.81944   0.00000  Uiso   1.00
C817   C     0.38373   0.16590   0.83312   0.00000  Uiso   1.00
C818   C     0.11628   0.16590   0.83312   0.00000  Uiso   1.00
C819   C     0.45311   0.12125   0.83987   0.00000  Uiso   1.00
C820   C     0.04689   0.20898   0.81824   0.00000  Uiso   1.00
C821   C     0.45311   0.20898   0.81824   0.00000  Uiso   1.00
C822   C     0.04689   0.12125   0.83987   0.00000  Uiso   1.00
C823   C     0.47648   0.16517   0.82937   0.00000  Uiso   1.00
C824   C     0.02352   0.16517   0.82937   0.00000  Uiso   1.00
C825   C     0.47713   0.07758   0.84460   0.00000  Uiso   1.00
C826   C     0.02281   0.25142   0.80555   0.00000  Uiso   1.00
C827   C     0.47719   0.25142   0.80555   0.00000  Uiso   1.00
C828   C     0.02287   0.07758   0.84460   0.00000  Uiso   1.00
C829   C     0.25000   0.02175   0.83338   0.00000  Uiso   1.00
C830   C     0.25000   0.31158   0.83332   0.00000  Uiso   1.00
C831   C     0.38031   0.25563   0.80611   0.00000  Uiso   1.00
C832   C     0.37634   0.26340   0.74147   0.00000  Uiso   1.00
H833   H     0.40927   0.26964   0.72184   0.00000  Uiso   1.00
H834   H     0.36095   0.23106   0.72102   0.00000  Uiso   1.00
H835   H     0.35512   0.29549   0.73250   0.00000  Uiso   1.00
H836   H     0.34654   0.25488   0.82446   0.00000  Uiso   1.00
H837   H     0.39551   0.28752   0.82740   0.00000  Uiso   1.00
C838   C     0.11992   0.07581   0.85749   0.00000  Uiso   1.00
C839   C     0.13347   0.05002   0.80248   0.00000  Uiso   1.00
H840   H     0.10380   0.03625   0.77962   0.00000  Uiso   1.00
H841   H     0.15179   0.07508   0.77369   0.00000  Uiso   1.00
H842   H     0.15558   0.01912   0.81310   0.00000  Uiso   1.00
H843   H     0.15004   0.08428   0.88261   0.00000  Uiso   1.00
H844   H     0.10176   0.05057   0.88610   0.00000  Uiso   1.00
C845   C     0.38008   0.07581   0.85750   0.00000  Uiso   1.00
C846   C     0.36653   0.05002   0.80248   0.00000  Uiso   1.00
H847   H     0.34821   0.07507   0.77370   0.00000  Uiso   1.00
H848   H     0.39620   0.03625   0.77962   0.00000  Uiso   1.00
H849   H     0.34442   0.01912   0.81311   0.00000  Uiso   1.00
H850   H     0.39824   0.05057   0.88611   0.00000  Uiso   1.00
H851   H     0.34996   0.08428   0.88262   0.00000  Uiso   1.00
C852   C     0.11969   0.25563   0.80611   0.00000  Uiso   1.00
C853   C     0.12366   0.26341   0.74147   0.00000  Uiso   1.00
H854   H     0.14491   0.29548   0.73250   0.00000  Uiso   1.00
H855   H     0.13903   0.23106   0.72102   0.00000  Uiso   1.00
H856   H     0.09074   0.26967   0.72185   0.00000  Uiso   1.00
H857   H     0.10449   0.28752   0.82741   0.00000  Uiso   1.00
H858   H     0.15346   0.25488   0.82447   0.00000  Uiso   1.00
O859   O     0.75000   0.09613   0.88092   0.00000  Uiso   1.00
O860   O     0.75000   0.23720   0.78575   0.00000  Uiso   1.00
O861   O     0.75000   0.23720   0.88092   0.00000  Uiso   1.00
O862   O     0.75000   0.09613   0.78575   0.00000  Uiso   1.00
H863   H     0.96133   0.04240   0.84748   0.00000  Uiso   1.00
H864   H     0.53842   0.28563   0.79507   0.00000  Uiso   1.00
H865   H     0.96159   0.28563   0.79507   0.00000  Uiso   1.00
H866   H     0.53867   0.04240   0.84748   0.00000  Uiso   1.00
C867   C     0.75000   0.07332   0.83335   0.00000  Uiso   1.00
C868   C     0.75000   0.26002   0.83332   0.00000  Uiso   1.00
O869   O     0.68513   0.16667   0.88093   0.00000  Uiso   1.00
O870   O     0.81487   0.16667   0.78573   0.00000  Uiso   1.00
O871   O     0.81487   0.16667   0.88093   0.00000  Uiso   1.00
O872   O     0.68513   0.16667   0.78573   0.00000  Uiso   1.00
C873   C     0.66442   0.16592   0.83331   0.00000  Uiso   1.00
C874   C     0.83558   0.16592   0.83331   0.00000  Uiso   1.00
Cu875  Cu    0.75000   0.16667   0.88969   0.00000  Uiso   1.00
Cu876  Cu    0.75000   0.16667   0.77697   0.00000  Uiso   1.00
N877   N     0.75000   0.16667   0.69227   0.00000  Uiso   1.00
N878   N     0.75000   0.16667   0.97439   0.00000  Uiso   1.00
C879   C     0.90638   0.20932   0.81944   0.00000  Uiso   1.00
C880   C     0.59356   0.12187   0.84389   0.00000  Uiso   1.00
C881   C     0.90644   0.12187   0.84390   0.00000  Uiso   1.00
C882   C     0.59362   0.20932   0.81944   0.00000  Uiso   1.00
C883   C     0.88373   0.16590   0.83312   0.00000  Uiso   1.00
C884   C     0.61628   0.16590   0.83312   0.00000  Uiso   1.00
C885   C     0.95311   0.12125   0.83987   0.00000  Uiso   1.00
C886   C     0.54689   0.20898   0.81824   0.00000  Uiso   1.00
C887   C     0.95311   0.20898   0.81824   0.00000  Uiso   1.00
C888   C     0.54689   0.12125   0.83987   0.00000  Uiso   1.00
C889   C     0.97648   0.16517   0.82937   0.00000  Uiso   1.00
C890   C     0.52352   0.16517   0.82937   0.00000  Uiso   1.00
C891   C     0.97713   0.07758   0.84460   0.00000  Uiso   1.00
C892   C     0.52281   0.25142   0.80555   0.00000  Uiso   1.00
C893   C     0.97719   0.25142   0.80555   0.00000  Uiso   1.00
C894   C     0.52287   0.07758   0.84460   0.00000  Uiso   1.00
C895   C     0.75000   0.02175   0.83338   0.00000  Uiso   1.00
C896   C     0.75000   0.31158   0.83332   0.00000  Uiso   1.00
C897   C     0.88031   0.25563   0.80611   0.00000  Uiso   1.00
C898   C     0.87634   0.26340   0.74147   0.00000  Uiso   1.00
H899   H     0.90927   0.26964   0.72184   0.00000  Uiso   1.00
H900   H     0.86095   0.23106   0.72102   0.00000  Uiso   1.00
H901   H     0.85512   0.29549   0.73250   0.00000  Uiso   1.00
H902   H     0.84654   0.25488   0.82446   0.00000  Uiso   1.00
H903   H     0.89551   0.28752   0.82740   0.00000  Uiso   1.00
C904   C     0.61992   0.07581   0.85749   0.00000  Uiso   1.00
C905   C     0.63347   0.05002   0.80248   0.00000  Uiso   1.00
H906   H     0.60380   0.03625   0.77962   0.00000  Uiso   1.00
H907   H     0.65179   0.07508   0.77369   0.00000  Uiso   1.00
H908   H     0.65558   0.01912   0.81310   0.00000  Uiso   1.00
H909   H     0.65004   0.08428   0.88261   0.00000  Uiso   1.00
H910   H     0.60176   0.05057   0.88610   0.00000  Uiso   1.00
C911   C     0.88008   0.07581   0.85750   0.00000  Uiso   1.00
C912   C     0.86653   0.05002   0.80248   0.00000  Uiso   1.00
H913   H     0.84821   0.07507   0.77370   0.00000  Uiso   1.00
H914   H     0.89620   0.03625   0.77962   0.00000  Uiso   1.00
H915   H     0.84442   0.01912   0.81311   0.00000  Uiso   1.00
H916   H     0.89824   0.05057   0.88611   0.00000  Uiso   1.00
H917   H     0.84996   0.08428   0.88262   0.00000  Uiso   1.00
C918   C     0.61969   0.25563   0.80611   0.00000  Uiso   1.00
C919   C     0.62366   0.26341   0.74147   0.00000  Uiso   1.00
H920   H     0.64491   0.29548   0.73250   0.00000  Uiso   1.00
H921   H     0.63903   0.23106   0.72102   0.00000  Uiso   1.00
H922   H     0.59074   0.26967   0.72185   0.00000  Uiso   1.00
H923   H     0.60449   0.28752   0.82741   0.00000  Uiso   1.00
H924   H     0.65346   0.25488   0.82447   0.00000  Uiso   1.00
O925   O     0.25000   0.42946   0.88092   0.00000  Uiso   1.00
O926   O     0.25000   0.57054   0.78575   0.00000  Uiso   1.00
O927   O     0.25000   0.57054   0.88092   0.00000  Uiso   1.00
O928   O     0.25000   0.42946   0.78575   0.00000  Uiso   1.00
H929   H     0.46133   0.37573   0.84748   0.00000  Uiso   1.00
H930   H     0.03842   0.61897   0.79507   0.00000  Uiso   1.00
H931   H     0.46159   0.61897   0.79507   0.00000  Uiso   1.00
H932   H     0.03867   0.37573   0.84748   0.00000  Uiso   1.00
C933   C     0.25000   0.40665   0.83335   0.00000  Uiso   1.00
C934   C     0.25000   0.59335   0.83332   0.00000  Uiso   1.00
O935   O     0.18513   0.50000   0.88093   0.00000  Uiso   1.00
O936   O     0.31487   0.50000   0.78573   0.00000  Uiso   1.00
O937   O     0.31487   0.50000   0.88093   0.00000  Uiso   1.00
O938   O     0.18513   0.50000   0.78573   0.00000  Uiso   1.00
C939   C     0.16442   0.49925   0.83331   0.00000  Uiso   1.00
C940   C     0.33558   0.49925   0.83331   0.00000  Uiso   1.00
Cu941  Cu    0.25000   0.50000   0.88969   0.00000  Uiso   1.00
Cu942  Cu    0.25000   0.50000   0.77697   0.00000  Uiso   1.00
N943   N     0.25000   0.50000   0.69227   0.00000  Uiso   1.00
N944   N     0.25000   0.50000   0.97439   0.00000  Uiso   1.00
C945   C     0.40638   0.54266   0.81944   0.00000  Uiso   1.00
C946   C     0.09356   0.45521   0.84389   0.00000  Uiso   1.00
C947   C     0.40644   0.45521   0.84390   0.00000  Uiso   1.00
C948   C     0.09362   0.54266   0.81944   0.00000  Uiso   1.00
C949   C     0.38373   0.49923   0.83312   0.00000  Uiso   1.00
C950   C     0.11628   0.49923   0.83312   0.00000  Uiso   1.00
C951   C     0.45311   0.45458   0.83987   0.00000  Uiso   1.00
C952   C     0.04689   0.54231   0.81824   0.00000  Uiso   1.00
C953   C     0.45311   0.54231   0.81824   0.00000  Uiso   1.00
C954   C     0.04689   0.45458   0.83987   0.00000  Uiso   1.00
C955   C     0.47648   0.49850   0.82937   0.00000  Uiso   1.00
C956   C     0.02352   0.49850   0.82937   0.00000  Uiso   1.00
C957   C     0.47713   0.41092   0.84460   0.00000  Uiso   1.00
C958   C     0.02281   0.58475   0.80555   0.00000  Uiso   1.00
C959   C     0.47719   0.58475   0.80555   0.00000  Uiso   1.00
C960   C     0.02287   0.41092   0.84460   0.00000  Uiso   1.00
C961   C     0.25000   0.35509   0.83338   0.00000  Uiso   1.00
C962   C     0.25000   0.64491   0.83332   0.00000  Uiso   1.00
C963   C     0.38031   0.58896   0.80611   0.00000  Uiso   1.00
C964   C     0.37634   0.59674   0.74147   0.00000  Uiso   1.00
H965   H     0.40927   0.60297   0.72184   0.00000  Uiso   1.00
H966   H     0.36095   0.56440   0.72102   0.00000  Uiso   1.00
H967   H     0.35512   0.62882   0.73250   0.00000  Uiso   1.00
H968   H     0.34654   0.58821   0.82446   0.00000  Uiso   1.00
H969   H     0.39551   0.62085   0.82740   0.00000  Uiso   1.00
C970   C     0.11992   0.40915   0.85749   0.00000  Uiso   1.00
C971   C     0.13347   0.38335   0.80248   0.00000  Uiso   1.00
H972   H     0.10380   0.36958   0.77962   0.00000  Uiso   1.00
H973   H     0.15179   0.40841   0.77369   0.00000  Uiso   1.00
H974   H     0.15558   0.35246   0.81310   0.00000  Uiso   1.00
H975   H     0.15004   0.41762   0.88261   0.00000  Uiso   1.00
H976   H     0.10176   0.38391   0.88610   0.00000  Uiso   1.00
C977   C     0.38008   0.40915   0.85750   0.00000  Uiso   1.00
C978   C     0.36653   0.38335   0.80248   0.00000  Uiso   1.00
H979   H     0.34821   0.40841   0.77370   0.00000  Uiso   1.00
H980   H     0.39620   0.36959   0.77962   0.00000  Uiso   1.00
H981   H     0.34442   0.35245   0.81311   0.00000  Uiso   1.00
H982   H     0.39824   0.38391   0.88611   0.00000  Uiso   1.00
H983   H     0.34996   0.41762   0.88262   0.00000  Uiso   1.00
C984   C     0.11969   0.58897   0.80611   0.00000  Uiso   1.00
C985   C     0.12366   0.59674   0.74147   0.00000  Uiso   1.00
H986   H     0.14491   0.62881   0.73250   0.00000  Uiso   1.00
H987   H     0.13903   0.56439   0.72102   0.00000  Uiso   1.00
H988   H     0.09074   0.60300   0.72185   0.00000  Uiso   1.00
H989   H     0.10449   0.62085   0.82741   0.00000  Uiso   1.00
H990   H     0.15346   0.58821   0.82447   0.00000  Uiso   1.00
O991   O     0.75000   0.42946   0.88092   0.00000  Uiso   1.00
O992   O     0.75000   0.57054   0.78575   0.00000  Uiso   1.00
O993   O     0.75000   0.57054   0.88092   0.00000  Uiso   1.00
O994   O     0.75000   0.42946   0.78575   0.00000  Uiso   1.00
H995   H     0.96133   0.37573   0.84748   0.00000  Uiso   1.00
H996   H     0.53842   0.61897   0.79507   0.00000  Uiso   1.00
H997   H     0.96159   0.61897   0.79507   0.00000  Uiso   1.00
H998   H     0.53867   0.37573   0.84748   0.00000  Uiso   1.00
C999   C     0.75000   0.40665   0.83335   0.00000  Uiso   1.00
C1000  C     0.75000   0.59335   0.83332   0.00000  Uiso   1.00
O1001  O     0.68513   0.50000   0.88093   0.00000  Uiso   1.00
O1002  O     0.81487   0.50000   0.78573   0.00000  Uiso   1.00
O1003  O     0.81487   0.50000   0.88093   0.00000  Uiso   1.00
O1004  O     0.68513   0.50000   0.78573   0.00000  Uiso   1.00
C1005  C     0.66442   0.49925   0.83331   0.00000  Uiso   1.00
C1006  C     0.83558   0.49925   0.83331   0.00000  Uiso   1.00
Cu1007 Cu    0.75000   0.50000   0.88969   0.00000  Uiso   1.00
Cu1008 Cu    0.75000   0.50000   0.77697   0.00000  Uiso   1.00
N1009  N     0.75000   0.50000   0.69227   0.00000  Uiso   1.00
N1010  N     0.75000   0.50000   0.97439   0.00000  Uiso   1.00
C1011  C     0.90638   0.54266   0.81944   0.00000  Uiso   1.00
C1012  C     0.59356   0.45521   0.84389   0.00000  Uiso   1.00
C1013  C     0.90644   0.45521   0.84390   0.00000  Uiso   1.00
C1014  C     0.59362   0.54266   0.81944   0.00000  Uiso   1.00
C1015  C     0.88373   0.49923   0.83312   0.00000  Uiso   1.00
C1016  C     0.61628   0.49923   0.83312   0.00000  Uiso   1.00
C1017  C     0.95311   0.45458   0.83987   0.00000  Uiso   1.00
C1018  C     0.54689   0.54231   0.81824   0.00000  Uiso   1.00
C1019  C     0.95311   0.54231   0.81824   0.00000  Uiso   1.00
C1020  C     0.54689   0.45458   0.83987   0.00000  Uiso   1.00
C1021  C     0.97648   0.49850   0.82937   0.00000  Uiso   1.00
C1022  C     0.52352   0.49850   0.82937   0.00000  Uiso   1.00
C1023  C     0.97713   0.41092   0.84460   0.00000  Uiso   1.00
C1024  C     0.52281   0.58475   0.80555   0.00000  Uiso   1.00
C1025  C     0.97719   0.58475   0.80555   0.00000  Uiso   1.00
C1026  C     0.52287   0.41092   0.84460   0.00000  Uiso   1.00
C1027  C     0.75000   0.35509   0.83338   0.00000  Uiso   1.00
C1028  C     0.75000   0.64491   0.83332   0.00000  Uiso   1.00
C1029  C     0.88031   0.58896   0.80611   0.00000  Uiso   1.00
C1030  C     0.87634   0.59674   0.74147   0.00000  Uiso   1.00
H1031  H     0.90927   0.60297   0.72184   0.00000  Uiso   1.00
H1032  H     0.86095   0.56440   0.72102   0.00000  Uiso   1.00
H1033  H     0.85512   0.62882   0.73250   0.00000  Uiso   1.00
H1034  H     0.84654   0.58821   0.82446   0.00000  Uiso   1.00
H1035  H     0.89551   0.62085   0.82740   0.00000  Uiso   1.00
C1036  C     0.61992   0.40915   0.85749   0.00000  Uiso   1.00
C1037  C     0.63347   0.38335   0.80248   0.00000  Uiso   1.00
H1038  H     0.60380   0.36958   0.77962   0.00000  Uiso   1.00
H1039  H     0.65179   0.40841   0.77369   0.00000  Uiso   1.00
H1040  H     0.65558   0.35246   0.81310   0.00000  Uiso   1.00
H1041  H     0.65004   0.41762   0.88261   0.00000  Uiso   1.00
H1042  H     0.60176   0.38391   0.88610   0.00000  Uiso   1.00
C1043  C     0.88008   0.40915   0.85750   0.00000  Uiso   1.00
C1044  C     0.86653   0.38335   0.80248   0.00000  Uiso   1.00
H1045  H     0.84821   0.40841   0.77370   0.00000  Uiso   1.00
H1046  H     0.89620   0.36959   0.77962   0.00000  Uiso   1.00
H1047  H     0.84442   0.35245   0.81311   0.00000  Uiso   1.00
H1048  H     0.89824   0.38391   0.88611   0.00000  Uiso   1.00
H1049  H     0.84996   0.41762   0.88262   0.00000  Uiso   1.00
C1050  C     0.61969   0.58897   0.80611   0.00000  Uiso   1.00
C1051  C     0.62366   0.59674   0.74147   0.00000  Uiso   1.00
H1052  H     0.64491   0.62881   0.73250   0.00000  Uiso   1.00
H1053  H     0.63903   0.56439   0.72102   0.00000  Uiso   1.00
H1054  H     0.59074   0.60300   0.72185   0.00000  Uiso   1.00
H1055  H     0.60449   0.62085   0.82741   0.00000  Uiso   1.00
H1056  H     0.65346   0.58821   0.82447   0.00000  Uiso   1.00
O1057  O     0.25000   0.76280   0.88092   0.00000  Uiso   1.00
O1058  O     0.25000   0.90387   0.78575   0.00000  Uiso   1.00
O1059  O     0.25000   0.90387   0.88092   0.00000  Uiso   1.00
O1060  O     0.25000   0.76280   0.78575   0.00000  Uiso   1.00
H1061  H     0.46133   0.70907   0.84748   0.00000  Uiso   1.00
H1062  H     0.03842   0.95230   0.79507   0.00000  Uiso   1.00
H1063  H     0.46159   0.95230   0.79507   0.00000  Uiso   1.00
H1064  H     0.03867   0.70907   0.84748   0.00000  Uiso   1.00
C1065  C     0.25000   0.73998   0.83335   0.00000  Uiso   1.00
C1066  C     0.25000   0.92669   0.83332   0.00000  Uiso   1.00
O1067  O     0.18513   0.83333   0.88093   0.00000  Uiso   1.00
O1068  O     0.31487   0.83333   0.78573   0.00000  Uiso   1.00
O1069  O     0.31487   0.83333   0.88093   0.00000  Uiso   1.00
O1070  O     0.18513   0.83333   0.78573   0.00000  Uiso   1.00
C1071  C     0.16442   0.83258   0.83331   0.00000  Uiso   1.00
C1072  C     0.33558   0.83258   0.83331   0.00000  Uiso   1.00
Cu1073 Cu    0.25000   0.83333   0.88969   0.00000  Uiso   1.00
Cu1074 Cu    0.25000   0.83333   0.77697   0.00000  Uiso   1.00
N1075  N     0.25000   0.83333   0.69227   0.00000  Uiso   1.00
N1076  N     0.25000   0.83333   0.97439   0.00000  Uiso   1.00
C1077  C     0.40638   0.87599   0.81944   0.00000  Uiso   1.00
C1078  C     0.09356   0.78854   0.84389   0.00000  Uiso   1.00
C1079  C     0.40644   0.78854   0.84390   0.00000  Uiso   1.00
C1080  C     0.09362   0.87599   0.81944   0.00000  Uiso   1.00
C1081  C     0.38373   0.83257   0.83312   0.00000  Uiso   1.00
C1082  C     0.11628   0.83257   0.83312   0.00000  Uiso   1.00
C1083  C     0.45311   0.78791   0.83987   0.00000  Uiso   1.00
C1084  C     0.04689   0.87564   0.81824   0.00000  Uiso   1.00
C1085  C     0.45311   0.87564   0.81824   0.00000  Uiso   1.00
C1086  C     0.04689   0.78791   0.83987   0.00000  Uiso   1.00
C1087  C     0.47648   0.83183   0.82937   0.00000  Uiso   1.00
C1088  C     0.02352   0.83183   0.82937   0.00000  Uiso   1.00
C1089  C     0.47713   0.74425   0.84460   0.00000  Uiso   1.00
C1090  C     0.02281   0.91808   0.80555   0.00000  Uiso   1.00
C1091  C     0.47719   0.91808   0.80555   0.00000  Uiso   1.00
C1092  C     0.02287   0.74425   0.84460   0.00000  Uiso   1.00
C1093  C     0.25000   0.68842   0.83338   0.00000  Uiso   1.00
C1094  C     0.25000   0.97824   0.83332   0.00000  Uiso   1.00
C1095  C     0.38031   0.92230   0.80611   0.00000  Uiso   1.00
C1096  C     0.37634   0.93007   0.74147   0.00000  Uiso   1.00
H1097  H     0.40927   0.93631   0.72184   0.00000  Uiso   1.00
H1098  H     0.36095   0.89773   0.72102   0.00000  Uiso   1.00
H1099  H     0.35512   0.96215   0.73250   0.00000  Uiso   1.00
H1100  H     0.34654   0.92155   0.82446   0.00000  Uiso   1.00
H1101  H     0.39551   0.95418   0.82740   0.00000  Uiso   1.00
C1102  C     0.11992   0.74248   0.85749   0.00000  Uiso   1.00
C1103  C     0.13347   0.71669   0.80248   0.00000  Uiso   1.00
H1104  H     0.10380   0.70292   0.77962   0.00000  Uiso   1.00
H1105  H     0.15179   0.74174   0.77369   0.00000  Uiso   1.00
H1106  H     0.15558   0.68579   0.81310   0.00000  Uiso   1.00
H1107  H     0.15004   0.75095   0.88261   0.00000  Uiso   1.00
H1108  H     0.10176   0.71724   0.88610   0.00000  Uiso   1.00
C1109  C     0.38008   0.74248   0.85750   0.00000  Uiso   1.00
C1110  C     0.36653   0.71669   0.80248   0.00000  Uiso   1.00
H1111  H     0.34821   0.74174   0.77370   0.00000  Uiso   1.00
H1112  H     0.39620   0.70292   0.77962   0.00000  Uiso   1.00
H1113  H     0.34442   0.68579   0.81311   0.00000  Uiso   1.00
H1114  H     0.39824   0.71724   0.88611   0.00000  Uiso   1.00
H1115  H     0.34996   0.75095   0.88262   0.00000  Uiso   1.00
C1116  C     0.11969   0.92230   0.80611   0.00000  Uiso   1.00
C1117  C     0.12366   0.93007   0.74147   0.00000  Uiso   1.00
H1118  H     0.14491   0.96214   0.73250   0.00000  Uiso   1.00
H1119  H     0.13903   0.89772   0.72102   0.00000  Uiso   1.00
H1120  H     0.09074   0.93634   0.72185   0.00000  Uiso   1.00
H1121  H     0.10449   0.95418   0.82741   0.00000  Uiso   1.00
H1122  H     0.15346   0.92155   0.82447   0.00000  Uiso   1.00
O1123  O     0.75000   0.76280   0.88092   0.00000  Uiso   1.00
O1124  O     0.75000   0.90387   0.78575   0.00000  Uiso   1.00
O1125  O     0.75000   0.90387   0.88092   0.00000  Uiso   1.00
O1126  O     0.75000   0.76280   0.78575   0.00000  Uiso   1.00
H1127  H     0.96133   0.70907   0.84748   0.00000  Uiso   1.00
H1128  H     0.53842   0.95230   0.79507   0.00000  Uiso   1.00
H1129  H     0.96159   0.95230   0.79507   0.00000  Uiso   1.00
H1130  H     0.53867   0.70907   0.84748   0.00000  Uiso   1.00
C1131  C     0.75000   0.73998   0.83335   0.00000  Uiso   1.00
C1132  C     0.75000   0.92669   0.83332   0.00000  Uiso   1.00
O1133  O     0.68513   0.83333   0.88093   0.00000  Uiso   1.00
O1134  O     0.81487   0.83333   0.78573   0.00000  Uiso   1.00
O1135  O     0.81487   0.83333   0.88093   0.00000  Uiso   1.00
O1136  O     0.68513   0.83333   0.78573   0.00000  Uiso   1.00
C1137  C     0.66442   0.83258   0.83331   0.00000  Uiso   1.00
C1138  C     0.83558   0.83258   0.83331   0.00000  Uiso   1.00
Cu1139 Cu    0.75000   0.83333   0.88969   0.00000  Uiso   1.00
Cu1140 Cu    0.75000   0.83333   0.77697   0.00000  Uiso   1.00
N1141  N     0.75000   0.83333   0.69227   0.00000  Uiso   1.00
N1142  N     0.75000   0.83333   0.97439   0.00000  Uiso   1.00
C1143  C     0.90638   0.87599   0.81944   0.00000  Uiso   1.00
C1144  C     0.59356   0.78854   0.84389   0.00000  Uiso   1.00
C1145  C     0.90644   0.78854   0.84390   0.00000  Uiso   1.00
C1146  C     0.59362   0.87599   0.81944   0.00000  Uiso   1.00
C1147  C     0.88373   0.83257   0.83312   0.00000  Uiso   1.00
C1148  C     0.61628   0.83257   0.83312   0.00000  Uiso   1.00
C1149  C     0.95311   0.78791   0.83987   0.00000  Uiso   1.00
C1150  C     0.54689   0.87564   0.81824   0.00000  Uiso   1.00
C1151  C     0.95311   0.87564   0.81824   0.00000  Uiso   1.00
C1152  C     0.54689   0.78791   0.83987   0.00000  Uiso   1.00
C1153  C     0.97648   0.83183   0.82937   0.00000  Uiso   1.00
C1154  C     0.52352   0.83183   0.82937   0.00000  Uiso   1.00
C1155  C     0.97713   0.74425   0.84460   0.00000  Uiso   1.00
C1156  C     0.52281   0.91808   0.80555   0.00000  Uiso   1.00
C1157  C     0.97719   0.91808   0.80555   0.00000  Uiso   1.00
C1158  C     0.52287   0.74425   0.84460   0.00000  Uiso   1.00
C1159  C     0.75000   0.68842   0.83338   0.00000  Uiso   1.00
C1160  C     0.75000   0.97824   0.83332   0.00000  Uiso   1.00
C1161  C     0.88031   0.92230   0.80611   0.00000  Uiso   1.00
C1162  C     0.87634   0.93007   0.74147   0.00000  Uiso   1.00
H1163  H     0.90927   0.93631   0.72184   0.00000  Uiso   1.00
H1164  H     0.86095   0.89773   0.72102   0.00000  Uiso   1.00
H1165  H     0.85512   0.96215   0.73250   0.00000  Uiso   1.00
H1166  H     0.84654   0.92155   0.82446   0.00000  Uiso   1.00
H1167  H     0.89551   0.95418   0.82740   0.00000  Uiso   1.00
C1168  C     0.61992   0.74248   0.85749   0.00000  Uiso   1.00
C1169  C     0.63347   0.71669   0.80248   0.00000  Uiso   1.00
H1170  H     0.60380   0.70292   0.77962   0.00000  Uiso   1.00
H1171  H     0.65179   0.74174   0.77369   0.00000  Uiso   1.00
H1172  H     0.65558   0.68579   0.81310   0.00000  Uiso   1.00
H1173  H     0.65004   0.75095   0.88261   0.00000  Uiso   1.00
H1174  H     0.60176   0.71724   0.88610   0.00000  Uiso   1.00
C1175  C     0.88008   0.74248   0.85750   0.00000  Uiso   1.00
C1176  C     0.86653   0.71669   0.80248   0.00000  Uiso   1.00
H1177  H     0.84821   0.74174   0.77370   0.00000  Uiso   1.00
H1178  H     0.89620   0.70292   0.77962   0.00000  Uiso   1.00
H1179  H     0.84442   0.68579   0.81311   0.00000  Uiso   1.00
H1180  H     0.89824   0.71724   0.88611   0.00000  Uiso   1.00
H1181  H     0.84996   0.75095   0.88262   0.00000  Uiso   1.00
C1182  C     0.61969   0.92230   0.80611   0.00000  Uiso   1.00
C1183  C     0.62366   0.93007   0.74147   0.00000  Uiso   1.00
H1184  H     0.64491   0.96214   0.73250   0.00000  Uiso   1.00
H1185  H     0.63903   0.89772   0.72102   0.00000  Uiso   1.00
H1186  H     0.59074   0.93634   0.72185   0.00000  Uiso   1.00
H1187  H     0.60449   0.95418   0.82741   0.00000  Uiso   1.00
H1188  H     0.65346   0.92155   0.82447   0.00000  Uiso   1.00
loop_
_geom_bond_atom_site_label_1
_geom_bond_atom_site_label_2
_geom_bond_distance
_geom_bond_site_symmetry_2
_ccdc_geom_bond_type
O1     Cu17    1.946   .     S
O1     C9      1.276   .     A
O2     Cu18    1.946   .     S
O2     C10     1.276   .     A
O3     C10     1.276   .     A
O3     Cu17    1.946   .     S
O4     Cu18    1.946   .     S
O4     C9      1.276   .     A
H5     C33     1.079   .     S
H6     C34     1.079   .     S
H7     C35     1.079   .     S
H8     C36     1.079   .     S
C9     C37     1.415   .     S
C10    C38     1.415   .     S
O11    Cu17    1.972   .     S
O11    C15     1.277   .     A
O12    C16     1.276   .     A
O12    Cu18    1.972   .     S
O13    Cu17    1.972   .     S
O13    C16     1.277   .     A
O14    Cu18    1.972   .     S
O14    C15     1.276   .     A
C15    C26     1.456   .     S
C16    C25     1.456   .     S
Cu17   N20     1.979   .     S
Cu17   Cu18    2.634   .     S
Cu18   N19     1.979   .     S
N19    N812    1.197   1_554 S
N20    N415    1.197   .     S
C21    C39     1.527   .     S
C21    C29     1.413   .     A
C21    C25     1.411   .     A
C22    C46     1.527   .     S
C22    C26     1.412   .     A
C22    C30     1.414   .     A
C23    C53     1.527   .     S
C23    C27     1.414   .     A
C23    C25     1.412   .     A
C24    C26     1.411   .     A
C24    C60     1.527   .     S
C24    C28     1.413   .     A
C27    C33     1.405   .     A
C27    C31     1.418   .     A
C28    C32     1.418   .     A
C28    C34     1.405   .     A
C29    C35     1.405   .     A
C29    C31     1.418   .     A
C30    C36     1.405   .     A
C30    C32     1.418   .     A
C31    C98     1.422   .     S
C32    C97     1.422   1_455 S
C33    C102    1.383   .     S
C34    C101    1.379   1_455 S
C35    C100    1.379   .     S
C36    C99     1.383   1_455 S
C37    C302    1.194   1_545 S
C38    C169    1.194   .     S
C39    H44     1.108   .     S
C39    C40     1.530   .     S
C39    H45     1.107   .     S
C40    H42     1.110   .     S
C40    H41     1.109   .     S
C40    H43     1.109   .     S
C46    H52     1.108   .     S
C46    C47     1.524   .     S
C46    H51     1.108   .     S
C47    H48     1.110   .     S
C47    H50     1.108   .     S
C47    H49     1.109   .     S
C53    H58     1.108   .     S
C53    H59     1.108   .     S
C53    C54     1.524   .     S
C54    H56     1.110   .     S
C54    H55     1.109   .     S
C54    H57     1.108   .     S
C60    H66     1.108   .     S
C60    H65     1.107   .     S
C60    C61     1.530   .     S
C61    H64     1.109   .     S
C61    H62     1.109   .     S
C61    H63     1.110   .     S
O67    Cu83    1.946   .     S
O67    C75     1.276   .     A
O68    Cu84    1.946   .     S
O68    C76     1.276   .     A
O69    C76     1.276   .     A
O69    Cu83    1.946   .     S
O70    Cu84    1.946   .     S
O70    C75     1.276   .     A
H71    C99     1.079   .     S
H72    C100    1.079   .     S
H73    C101    1.079   .     S
H74    C102    1.079   .     S
C75    C103    1.415   .     S
C76    C104    1.415   .     S
O77    Cu83    1.972   .     S
O77    C81     1.277   .     A
O78    C82     1.276   .     A
O78    Cu84    1.972   .     S
O79    Cu83    1.972   .     S
O79    C82     1.277   .     A
O80    Cu84    1.972   .     S
O80    C81     1.276   .     A
C81    C92     1.456   .     S
C82    C91     1.456   .     S
Cu83   N86     1.979   .     S
Cu83   Cu84    2.634   .     S
Cu84   N85     1.979   .     S
N85    N878    1.197   1_554 S
N86    N481    1.197   .     S
C87    C105    1.527   .     S
C87    C95     1.413   .     A
C87    C91     1.411   .     A
C88    C112    1.527   .     S
C88    C92     1.412   .     A
C88    C96     1.414   .     A
C89    C119    1.527   .     S
C89    C93     1.414   .     A
C89    C91     1.412   .     A
C90    C92     1.411   .     A
C90    C126    1.527   .     S
C90    C94     1.413   .     A
C93    C99     1.405   .     A
C93    C97     1.418   .     A
C94    C98     1.418   .     A
C94    C100    1.405   .     A
C95    C101    1.405   .     A
C95    C97     1.418   .     A
C96    C102    1.405   .     A
C96    C98     1.418   .     A
C97    C32     1.422   1_655 S
C99    C36     1.383   1_655 S
C101   C34     1.379   1_655 S
C103   C368    1.194   1_545 S
C104   C235    1.194   .     S
C105   H110    1.108   .     S
C105   C106    1.530   .     S
C105   H111    1.107   .     S
C106   H108    1.110   .     S
C106   H107    1.109   .     S
C106   H109    1.109   .     S
C112   H118    1.108   .     S
C112   C113    1.524   .     S
C112   H117    1.108   .     S
C113   H114    1.110   .     S
C113   H116    1.108   .     S
C113   H115    1.109   .     S
C119   H124    1.108   .     S
C119   H125    1.108   .     S
C119   C120    1.524   .     S
C120   H122    1.110   .     S
C120   H121    1.109   .     S
C120   H123    1.108   .     S
C126   H132    1.108   .     S
C126   H131    1.107   .     S
C126   C127    1.530   .     S
C127   H130    1.109   .     S
C127   H128    1.109   .     S
C127   H129    1.110   .     S
O133   Cu149   1.946   .     S
O133   C141    1.276   .     A
O134   Cu150   1.946   .     S
O134   C142    1.276   .     A
O135   C142    1.276   .     A
O135   Cu149   1.946   .     S
O136   Cu150   1.946   .     S
O136   C141    1.276   .     A
H137   C165    1.079   .     S
H138   C166    1.079   .     S
H139   C167    1.079   .     S
H140   C168    1.079   .     S
C141   C169    1.415   .     S
C142   C170    1.415   .     S
O143   Cu149   1.972   .     S
O143   C147    1.277   .     A
O144   C148    1.276   .     A
O144   Cu150   1.972   .     S
O145   Cu149   1.972   .     S
O145   C148    1.277   .     A
O146   Cu150   1.972   .     S
O146   C147    1.276   .     A
C147   C158    1.456   .     S
C148   C157    1.456   .     S
Cu149  N152    1.979   .     S
Cu149  Cu150   2.634   .     S
Cu150  N151    1.979   .     S
N151   N944    1.197   1_554 S
N152   N547    1.197   .     S
C153   C171    1.527   .     S
C153   C161    1.413   .     A
C153   C157    1.411   .     A
C154   C178    1.527   .     S
C154   C158    1.412   .     A
C154   C162    1.414   .     A
C155   C185    1.527   .     S
C155   C159    1.414   .     A
C155   C157    1.412   .     A
C156   C158    1.411   .     A
C156   C192    1.527   .     S
C156   C160    1.413   .     A
C159   C165    1.405   .     A
C159   C163    1.418   .     A
C160   C164    1.418   .     A
C160   C166    1.405   .     A
C161   C167    1.405   .     A
C161   C163    1.418   .     A
C162   C168    1.405   .     A
C162   C164    1.418   .     A
C163   C230    1.422   .     S
C164   C229    1.422   1_455 S
C165   C234    1.383   .     S
C166   C233    1.379   1_455 S
C167   C232    1.379   .     S
C168   C231    1.383   1_455 S
C170   C301    1.194   .     S
C171   H176    1.108   .     S
C171   C172    1.530   .     S
C171   H177    1.107   .     S
C172   H174    1.110   .     S
C172   H173    1.109   .     S
C172   H175    1.109   .     S
C178   H184    1.108   .     S
C178   C179    1.524   .     S
C178   H183    1.108   .     S
C179   H180    1.110   .     S
C179   H182    1.108   .     S
C179   H181    1.109   .     S
C185   H190    1.108   .     S
C185   H191    1.108   .     S
C185   C186    1.524   .     S
C186   H188    1.110   .     S
C186   H187    1.109   .     S
C186   H189    1.108   .     S
C192   H198    1.108   .     S
C192   H197    1.107   .     S
C192   C193    1.530   .     S
C193   H196    1.109   .     S
C193   H194    1.109   .     S
C193   H195    1.110   .     S
O199   Cu215   1.946   .     S
O199   C207    1.276   .     A
O200   Cu216   1.946   .     S
O200   C208    1.276   .     A
O201   C208    1.276   .     A
O201   Cu215   1.946   .     S
O202   Cu216   1.946   .     S
O202   C207    1.276   .     A
H203   C231    1.079   .     S
H204   C232    1.079   .     S
H205   C233    1.079   .     S
H206   C234    1.079   .     S
C207   C235    1.415   .     S
C208   C236    1.415   .     S
O209   Cu215   1.972   .     S
O209   C213    1.277   .     A
O210   C214    1.276   .     A
O210   Cu216   1.972   .     S
O211   Cu215   1.972   .     S
O211   C214    1.277   .     A
O212   Cu216   1.972   .     S
O212   C213    1.276   .     A
C213   C224    1.456   .     S
C214   C223    1.456   .     S
Cu215  N218    1.979   .     S
Cu215  Cu216   2.634   .     S
Cu216  N217    1.979   .     S
N217   N1010   1.197   1_554 S
N218   N613    1.197   .     S
C219   C237    1.527   .     S
C219   C227    1.413   .     A
C219   C223    1.411   .     A
C220   C244    1.527   .     S
C220   C224    1.412   .     A
C220   C228    1.414   .     A
C221   C251    1.527   .     S
C221   C225    1.414   .     A
C221   C223    1.412   .     A
C222   C224    1.411   .     A
C222   C258    1.527   .     S
C222   C226    1.413   .     A
C225   C231    1.405   .     A
C225   C229    1.418   .     A
C226   C230    1.418   .     A
C226   C232    1.405   .     A
C227   C233    1.405   .     A
C227   C229    1.418   .     A
C228   C234    1.405   .     A
C228   C230    1.418   .     A
C229   C164    1.422   1_655 S
C231   C168    1.383   1_655 S
C233   C166    1.379   1_655 S
C236   C367    1.194   .     S
C237   H242    1.108   .     S
C237   C238    1.530   .     S
C237   H243    1.107   .     S
C238   H240    1.110   .     S
C238   H239    1.109   .     S
C238   H241    1.109   .     S
C244   H250    1.108   .     S
C244   C245    1.524   .     S
C244   H249    1.108   .     S
C245   H246    1.110   .     S
C245   H248    1.108   .     S
C245   H247    1.109   .     S
C251   H256    1.108   .     S
C251   H257    1.108   .     S
C251   C252    1.524   .     S
C252   H254    1.110   .     S
C252   H253    1.109   .     S
C252   H255    1.108   .     S
C258   H264    1.108   .     S
C258   H263    1.107   .     S
C258   C259    1.530   .     S
C259   H262    1.109   .     S
C259   H260    1.109   .     S
C259   H261    1.110   .     S
O265   Cu281   1.946   .     S
O265   C273    1.276   .     A
O266   Cu282   1.946   .     S
O266   C274    1.276   .     A
O267   C274    1.276   .     A
O267   Cu281   1.946   .     S
O268   Cu282   1.946   .     S
O268   C273    1.276   .     A
H269   C297    1.079   .     S
H270   C298    1.079   .     S
H271   C299    1.079   .     S
H272   C300    1.079   .     S
C273   C301    1.415   .     S
C274   C302    1.415   .     S
O275   Cu281   1.972   .     S
O275   C279    1.277   .     A
O276   C280    1.276   .     A
O276   Cu282   1.972   .     S
O277   Cu281   1.972   .     S
O277   C280    1.277   .     A
O278   Cu282   1.972   .     S
O278   C279    1.276   .     A
C279   C290    1.456   .     S
C280   C289    1.456   .     S
Cu281  N284    1.979   .     S
Cu281  Cu282   2.634   .     S
Cu282  N283    1.979   .     S
N283   N1076   1.197   1_554 S
N284   N679    1.197   .     S
C285   C303    1.527   .     S
C285   C293    1.413   .     A
C285   C289    1.411   .     A
C286   C310    1.527   .     S
C286   C290    1.412   .     A
C286   C294    1.414   .     A
C287   C317    1.527   .     S
C287   C291    1.414   .     A
C287   C289    1.412   .     A
C288   C290    1.411   .     A
C288   C324    1.527   .     S
C288   C292    1.413   .     A
C291   C297    1.405   .     A
C291   C295    1.418   .     A
C292   C296    1.418   .     A
C292   C298    1.405   .     A
C293   C299    1.405   .     A
C293   C295    1.418   .     A
C294   C300    1.405   .     A
C294   C296    1.418   .     A
C295   C362    1.422   .     S
C296   C361    1.422   1_455 S
C297   C366    1.383   .     S
C298   C365    1.379   1_455 S
C299   C364    1.379   .     S
C300   C363    1.383   1_455 S
C302   C37     1.194   1_565 S
C303   H308    1.108   .     S
C303   C304    1.530   .     S
C303   H309    1.107   .     S
C304   H306    1.110   .     S
C304   H305    1.109   .     S
C304   H307    1.109   .     S
C310   H316    1.108   .     S
C310   C311    1.524   .     S
C310   H315    1.108   .     S
C311   H312    1.110   .     S
C311   H314    1.108   .     S
C311   H313    1.109   .     S
C317   H322    1.108   .     S
C317   H323    1.108   .     S
C317   C318    1.524   .     S
C318   H320    1.110   .     S
C318   H319    1.109   .     S
C318   H321    1.108   .     S
C324   H330    1.108   .     S
C324   H329    1.107   .     S
C324   C325    1.530   .     S
C325   H328    1.109   .     S
C325   H326    1.109   .     S
C325   H327    1.110   .     S
O331   Cu347   1.946   .     S
O331   C339    1.276   .     A
O332   Cu348   1.946   .     S
O332   C340    1.276   .     A
O333   C340    1.276   .     A
O333   Cu347   1.946   .     S
O334   Cu348   1.946   .     S
O334   C339    1.276   .     A
H335   C363    1.079   .     S
H336   C364    1.079   .     S
H337   C365    1.079   .     S
H338   C366    1.079   .     S
C339   C367    1.415   .     S
C340   C368    1.415   .     S
O341   Cu347   1.972   .     S
O341   C345    1.277   .     A
O342   C346    1.276   .     A
O342   Cu348   1.972   .     S
O343   Cu347   1.972   .     S
O343   C346    1.277   .     A
O344   Cu348   1.972   .     S
O344   C345    1.276   .     A
C345   C356    1.456   .     S
C346   C355    1.456   .     S
Cu347  N350    1.979   .     S
Cu347  Cu348   2.634   .     S
Cu348  N349    1.979   .     S
N349   N1142   1.197   1_554 S
N350   N745    1.197   .     S
C351   C369    1.527   .     S
C351   C359    1.413   .     A
C351   C355    1.411   .     A
C352   C376    1.527   .     S
C352   C356    1.412   .     A
C352   C360    1.414   .     A
C353   C383    1.527   .     S
C353   C357    1.414   .     A
C353   C355    1.412   .     A
C354   C356    1.411   .     A
C354   C390    1.527   .     S
C354   C358    1.413   .     A
C357   C363    1.405   .     A
C357   C361    1.418   .     A
C358   C362    1.418   .     A
C358   C364    1.405   .     A
C359   C365    1.405   .     A
C359   C361    1.418   .     A
C360   C366    1.405   .     A
C360   C362    1.418   .     A
C361   C296    1.422   1_655 S
C363   C300    1.383   1_655 S
C365   C298    1.379   1_655 S
C368   C103    1.194   1_565 S
C369   H374    1.108   .     S
C369   C370    1.530   .     S
C369   H375    1.107   .     S
C370   H372    1.110   .     S
C370   H371    1.109   .     S
C370   H373    1.109   .     S
C376   H382    1.108   .     S
C376   C377    1.524   .     S
C376   H381    1.108   .     S
C377   H378    1.110   .     S
C377   H380    1.108   .     S
C377   H379    1.109   .     S
C383   H388    1.108   .     S
C383   H389    1.108   .     S
C383   C384    1.524   .     S
C384   H386    1.110   .     S
C384   H385    1.109   .     S
C384   H387    1.108   .     S
C390   H396    1.108   .     S
C390   H395    1.107   .     S
C390   C391    1.530   .     S
C391   H394    1.109   .     S
C391   H392    1.109   .     S
C391   H393    1.110   .     S
O397   Cu413   1.946   .     S
O397   C405    1.276   .     A
O398   Cu414   1.946   .     S
O398   C406    1.276   .     A
O399   C406    1.276   .     A
O399   Cu413   1.946   .     S
O400   Cu414   1.946   .     S
O400   C405    1.276   .     A
H401   C429    1.079   .     S
H402   C430    1.079   .     S
H403   C431    1.079   .     S
H404   C432    1.079   .     S
C405   C433    1.415   .     S
C406   C434    1.415   .     S
O407   Cu413   1.972   .     S
O407   C411    1.277   .     A
O408   C412    1.276   .     A
O408   Cu414   1.972   .     S
O409   Cu413   1.972   .     S
O409   C412    1.277   .     A
O410   Cu414   1.972   .     S
O410   C411    1.276   .     A
C411   C422    1.456   .     S
C412   C421    1.456   .     S
Cu413  N416    1.979   .     S
Cu413  Cu414   2.634   .     S
Cu414  N415    1.979   .     S
N416   N811    1.197   .     S
C417   C435    1.527   .     S
C417   C425    1.413   .     A
C417   C421    1.411   .     A
C418   C442    1.527   .     S
C418   C422    1.412   .     A
C418   C426    1.414   .     A
C419   C449    1.527   .     S
C419   C423    1.414   .     A
C419   C421    1.412   .     A
C420   C422    1.411   .     A
C420   C456    1.527   .     S
C420   C424    1.413   .     A
C423   C429    1.405   .     A
C423   C427    1.418   .     A
C424   C428    1.418   .     A
C424   C430    1.405   .     A
C425   C431    1.405   .     A
C425   C427    1.418   .     A
C426   C432    1.405   .     A
C426   C428    1.418   .     A
C427   C494    1.422   .     S
C428   C493    1.422   1_455 S
C429   C498    1.383   .     S
C430   C497    1.379   1_455 S
C431   C496    1.379   .     S
C432   C495    1.383   1_455 S
C433   C698    1.194   1_545 S
C434   C565    1.194   .     S
C435   H440    1.108   .     S
C435   C436    1.530   .     S
C435   H441    1.107   .     S
C436   H438    1.110   .     S
C436   H437    1.109   .     S
C436   H439    1.109   .     S
C442   H448    1.108   .     S
C442   C443    1.524   .     S
C442   H447    1.108   .     S
C443   H444    1.110   .     S
C443   H446    1.108   .     S
C443   H445    1.109   .     S
C449   H454    1.108   .     S
C449   H455    1.108   .     S
C449   C450    1.524   .     S
C450   H452    1.110   .     S
C450   H451    1.109   .     S
C450   H453    1.108   .     S
C456   H462    1.108   .     S
C456   H461    1.107   .     S
C456   C457    1.530   .     S
C457   H460    1.109   .     S
C457   H458    1.109   .     S
C457   H459    1.110   .     S
O463   Cu479   1.946   .     S
O463   C471    1.276   .     A
O464   Cu480   1.946   .     S
O464   C472    1.276   .     A
O465   C472    1.276   .     A
O465   Cu479   1.946   .     S
O466   Cu480   1.946   .     S
O466   C471    1.276   .     A
H467   C495    1.079   .     S
H468   C496    1.079   .     S
H469   C497    1.079   .     S
H470   C498    1.079   .     S
C471   C499    1.415   .     S
C472   C500    1.415   .     S
O473   Cu479   1.972   .     S
O473   C477    1.277   .     A
O474   C478    1.276   .     A
O474   Cu480   1.972   .     S
O475   Cu479   1.972   .     S
O475   C478    1.277   .     A
O476   Cu480   1.972   .     S
O476   C477    1.276   .     A
C477   C488    1.456   .     S
C478   C487    1.456   .     S
Cu479  N482    1.979   .     S
Cu479  Cu480   2.634   .     S
Cu480  N481    1.979   .     S
N482   N877    1.197   .     S
C483   C501    1.527   .     S
C483   C491    1.413   .     A
C483   C487    1.411   .     A
C484   C508    1.527   .     S
C484   C488    1.412   .     A
C484   C492    1.414   .     A
C485   C515    1.527   .     S
C485   C489    1.414   .     A
C485   C487    1.412   .     A
C486   C488    1.411   .     A
C486   C522    1.527   .     S
C486   C490    1.413   .     A
C489   C495    1.405   .     A
C489   C493    1.418   .     A
C490   C494    1.418   .     A
C490   C496    1.405   .     A
C491   C497    1.405   .     A
C491   C493    1.418   .     A
C492   C498    1.405   .     A
C492   C494    1.418   .     A
C493   C428    1.422   1_655 S
C495   C432    1.383   1_655 S
C497   C430    1.379   1_655 S
C499   C764    1.194   1_545 S
C500   C631    1.194   .     S
C501   H506    1.108   .     S
C501   C502    1.530   .     S
C501   H507    1.107   .     S
C502   H504    1.110   .     S
C502   H503    1.109   .     S
C502   H505    1.109   .     S
C508   H514    1.108   .     S
C508   C509    1.524   .     S
C508   H513    1.108   .     S
C509   H510    1.110   .     S
C509   H512    1.108   .     S
C509   H511    1.109   .     S
C515   H520    1.108   .     S
C515   H521    1.108   .     S
C515   C516    1.524   .     S
C516   H518    1.110   .     S
C516   H517    1.109   .     S
C516   H519    1.108   .     S
C522   H528    1.108   .     S
C522   H527    1.107   .     S
C522   C523    1.530   .     S
C523   H526    1.109   .     S
C523   H524    1.109   .     S
C523   H525    1.110   .     S
O529   Cu545   1.946   .     S
O529   C537    1.276   .     A
O530   Cu546   1.946   .     S
O530   C538    1.276   .     A
O531   C538    1.276   .     A
O531   Cu545   1.946   .     S
O532   Cu546   1.946   .     S
O532   C537    1.276   .     A
H533   C561    1.079   .     S
H534   C562    1.079   .     S
H535   C563    1.079   .     S
H536   C564    1.079   .     S
C537   C565    1.415   .     S
C538   C566    1.415   .     S
O539   Cu545   1.972   .     S
O539   C543    1.277   .     A
O540   C544    1.276   .     A
O540   Cu546   1.972   .     S
O541   Cu545   1.972   .     S
O541   C544    1.277   .     A
O542   Cu546   1.972   .     S
O542   C543    1.276   .     A
C543   C554    1.456   .     S
C544   C553    1.456   .     S
Cu545  N548    1.979   .     S
Cu545  Cu546   2.634   .     S
Cu546  N547    1.979   .     S
N548   N943    1.197   .     S
C549   C567    1.527   .     S
C549   C557    1.413   .     A
C549   C553    1.411   .     A
C550   C574    1.527   .     S
C550   C554    1.412   .     A
C550   C558    1.414   .     A
C551   C581    1.527   .     S
C551   C555    1.414   .     A
C551   C553    1.412   .     A
C552   C554    1.411   .     A
C552   C588    1.527   .     S
C552   C556    1.413   .     A
C555   C561    1.405   .     A
C555   C559    1.418   .     A
C556   C560    1.418   .     A
C556   C562    1.405   .     A
C557   C563    1.405   .     A
C557   C559    1.418   .     A
C558   C564    1.405   .     A
C558   C560    1.418   .     A
C559   C626    1.422   .     S
C560   C625    1.422   1_455 S
C561   C630    1.383   .     S
C562   C629    1.379   1_455 S
C563   C628    1.379   .     S
C564   C627    1.383   1_455 S
C566   C697    1.194   .     S
C567   H572    1.108   .     S
C567   C568    1.530   .     S
C567   H573    1.107   .     S
C568   H570    1.110   .     S
C568   H569    1.109   .     S
C568   H571    1.109   .     S
C574   H580    1.108   .     S
C574   C575    1.524   .     S
C574   H579    1.108   .     S
C575   H576    1.110   .     S
C575   H578    1.108   .     S
C575   H577    1.109   .     S
C581   H586    1.108   .     S
C581   H587    1.108   .     S
C581   C582    1.524   .     S
C582   H584    1.110   .     S
C582   H583    1.109   .     S
C582   H585    1.108   .     S
C588   H594    1.108   .     S
C588   H593    1.107   .     S
C588   C589    1.530   .     S
C589   H592    1.109   .     S
C589   H590    1.109   .     S
C589   H591    1.110   .     S
O595   Cu611   1.946   .     S
O595   C603    1.276   .     A
O596   Cu612   1.946   .     S
O596   C604    1.276   .     A
O597   C604    1.276   .     A
O597   Cu611   1.946   .     S
O598   Cu612   1.946   .     S
O598   C603    1.276   .     A
H599   C627    1.079   .     S
H600   C628    1.079   .     S
H601   C629    1.079   .     S
H602   C630    1.079   .     S
C603   C631    1.415   .     S
C604   C632    1.415   .     S
O605   Cu611   1.972   .     S
O605   C609    1.277   .     A
O606   C610    1.276   .     A
O606   Cu612   1.972   .     S
O607   Cu611   1.972   .     S
O607   C610    1.277   .     A
O608   Cu612   1.972   .     S
O608   C609    1.276   .     A
C609   C620    1.456   .     S
C610   C619    1.456   .     S
Cu611  N614    1.979   .     S
Cu611  Cu612   2.634   .     S
Cu612  N613    1.979   .     S
N614   N1009   1.197   .     S
C615   C633    1.527   .     S
C615   C623    1.413   .     A
C615   C619    1.411   .     A
C616   C640    1.527   .     S
C616   C620    1.412   .     A
C616   C624    1.414   .     A
C617   C647    1.527   .     S
C617   C621    1.414   .     A
C617   C619    1.412   .     A
C618   C620    1.411   .     A
C618   C654    1.527   .     S
C618   C622    1.413   .     A
C621   C627    1.405   .     A
C621   C625    1.418   .     A
C622   C626    1.418   .     A
C622   C628    1.405   .     A
C623   C629    1.405   .     A
C623   C625    1.418   .     A
C624   C630    1.405   .     A
C624   C626    1.418   .     A
C625   C560    1.422   1_655 S
C627   C564    1.383   1_655 S
C629   C562    1.379   1_655 S
C632   C763    1.194   .     S
C633   H638    1.108   .     S
C633   C634    1.530   .     S
C633   H639    1.107   .     S
C634   H636    1.110   .     S
C634   H635    1.109   .     S
C634   H637    1.109   .     S
C640   H646    1.108   .     S
C640   C641    1.524   .     S
C640   H645    1.108   .     S
C641   H642    1.110   .     S
C641   H644    1.108   .     S
C641   H643    1.109   .     S
C647   H652    1.108   .     S
C647   H653    1.108   .     S
C647   C648    1.524   .     S
C648   H650    1.110   .     S
C648   H649    1.109   .     S
C648   H651    1.108   .     S
C654   H660    1.108   .     S
C654   H659    1.107   .     S
C654   C655    1.530   .     S
C655   H658    1.109   .     S
C655   H656    1.109   .     S
C655   H657    1.110   .     S
O661   Cu677   1.946   .     S
O661   C669    1.276   .     A
O662   Cu678   1.946   .     S
O662   C670    1.276   .     A
O663   C670    1.276   .     A
O663   Cu677   1.946   .     S
O664   Cu678   1.946   .     S
O664   C669    1.276   .     A
H665   C693    1.079   .     S
H666   C694    1.079   .     S
H667   C695    1.079   .     S
H668   C696    1.079   .     S
C669   C697    1.415   .     S
C670   C698    1.415   .     S
O671   Cu677   1.972   .     S
O671   C675    1.277   .     A
O672   C676    1.276   .     A
O672   Cu678   1.972   .     S
O673   Cu677   1.972   .     S
O673   C676    1.277   .     A
O674   Cu678   1.972   .     S
O674   C675    1.276   .     A
C675   C686    1.456   .     S
C676   C685    1.456   .     S
Cu677  N680    1.979   .     S
Cu677  Cu678   2.634   .     S
Cu678  N679    1.979   .     S
N680   N1075   1.197   .     S
C681   C699    1.527   .     S
C681   C689    1.413   .     A
C681   C685    1.411   .     A
C682   C706    1.527   .     S
C682   C686    1.412   .     A
C682   C690    1.414   .     A
C683   C713    1.527   .     S
C683   C687    1.414   .     A
C683   C685    1.412   .     A
C684   C686    1.411   .     A
C684   C720    1.527   .     S
C684   C688    1.413   .     A
C687   C693    1.405   .     A
C687   C691    1.418   .     A
C688   C692    1.418   .     A
C688   C694    1.405   .     A
C689   C695    1.405   .     A
C689   C691    1.418   .     A
C690   C696    1.405   .     A
C690   C692    1.418   .     A
C691   C758    1.422   .     S
C692   C757    1.422   1_455 S
C693   C762    1.383   .     S
C694   C761    1.379   1_455 S
C695   C760    1.379   .     S
C696   C759    1.383   1_455 S
C698   C433    1.194   1_565 S
C699   H704    1.108   .     S
C699   C700    1.530   .     S
C699   H705    1.107   .     S
C700   H702    1.110   .     S
C700   H701    1.109   .     S
C700   H703    1.109   .     S
C706   H712    1.108   .     S
C706   C707    1.524   .     S
C706   H711    1.108   .     S
C707   H708    1.110   .     S
C707   H710    1.108   .     S
C707   H709    1.109   .     S
C713   H718    1.108   .     S
C713   H719    1.108   .     S
C713   C714    1.524   .     S
C714   H716    1.110   .     S
C714   H715    1.109   .     S
C714   H717    1.108   .     S
C720   H726    1.108   .     S
C720   H725    1.107   .     S
C720   C721    1.530   .     S
C721   H724    1.109   .     S
C721   H722    1.109   .     S
C721   H723    1.110   .     S
O727   Cu743   1.946   .     S
O727   C735    1.276   .     A
O728   Cu744   1.946   .     S
O728   C736    1.276   .     A
O729   C736    1.276   .     A
O729   Cu743   1.946   .     S
O730   Cu744   1.946   .     S
O730   C735    1.276   .     A
H731   C759    1.079   .     S
H732   C760    1.079   .     S
H733   C761    1.079   .     S
H734   C762    1.079   .     S
C735   C763    1.415   .     S
C736   C764    1.415   .     S
O737   Cu743   1.972   .     S
O737   C741    1.277   .     A
O738   C742    1.276   .     A
O738   Cu744   1.972   .     S
O739   Cu743   1.972   .     S
O739   C742    1.277   .     A
O740   Cu744   1.972   .     S
O740   C741    1.276   .     A
C741   C752    1.456   .     S
C742   C751    1.456   .     S
Cu743  N746    1.979   .     S
Cu743  Cu744   2.634   .     S
Cu744  N745    1.979   .     S
N746   N1141   1.197   .     S
C747   C765    1.527   .     S
C747   C755    1.413   .     A
C747   C751    1.411   .     A
C748   C772    1.527   .     S
C748   C752    1.412   .     A
C748   C756    1.414   .     A
C749   C779    1.527   .     S
C749   C753    1.414   .     A
C749   C751    1.412   .     A
C750   C752    1.411   .     A
C750   C786    1.527   .     S
C750   C754    1.413   .     A
C753   C759    1.405   .     A
C753   C757    1.418   .     A
C754   C758    1.418   .     A
C754   C760    1.405   .     A
C755   C761    1.405   .     A
C755   C757    1.418   .     A
C756   C762    1.405   .     A
C756   C758    1.418   .     A
C757   C692    1.422   1_655 S
C759   C696    1.383   1_655 S
C761   C694    1.379   1_655 S
C764   C499    1.194   1_565 S
C765   H770    1.108   .     S
C765   C766    1.530   .     S
C765   H771    1.107   .     S
C766   H768    1.110   .     S
C766   H767    1.109   .     S
C766   H769    1.109   .     S
C772   H778    1.108   .     S
C772   C773    1.524   .     S
C772   H777    1.108   .     S
C773   H774    1.110   .     S
C773   H776    1.108   .     S
C773   H775    1.109   .     S
C779   H784    1.108   .     S
C779   H785    1.108   .     S
C779   C780    1.524   .     S
C780   H782    1.110   .     S
C780   H781    1.109   .     S
C780   H783    1.108   .     S
C786   H792    1.108   .     S
C786   H791    1.107   .     S
C786   C787    1.530   .     S
C787   H790    1.109   .     S
C787   H788    1.109   .     S
C787   H789    1.110   .     S
O793   Cu809   1.946   .     S
O793   C801    1.276   .     A
O794   Cu810   1.946   .     S
O794   C802    1.276   .     A
O795   C802    1.276   .     A
O795   Cu809   1.946   .     S
O796   Cu810   1.946   .     S
O796   C801    1.276   .     A
H797   C825    1.079   .     S
H798   C826    1.079   .     S
H799   C827    1.079   .     S
H800   C828    1.079   .     S
C801   C829    1.415   .     S
C802   C830    1.415   .     S
O803   Cu809   1.972   .     S
O803   C807    1.277   .     A
O804   C808    1.276   .     A
O804   Cu810   1.972   .     S
O805   Cu809   1.972   .     S
O805   C808    1.277   .     A
O806   Cu810   1.972   .     S
O806   C807    1.276   .     A
C807   C818    1.456   .     S
C808   C817    1.456   .     S
Cu809  N812    1.979   .     S
Cu809  Cu810   2.634   .     S
Cu810  N811    1.979   .     S
N812   N19     1.197   1_556 S
C813   C831    1.527   .     S
C813   C821    1.413   .     A
C813   C817    1.411   .     A
C814   C838    1.527   .     S
C814   C818    1.412   .     A
C814   C822    1.414   .     A
C815   C845    1.527   .     S
C815   C819    1.414   .     A
C815   C817    1.412   .     A
C816   C818    1.411   .     A
C816   C852    1.527   .     S
C816   C820    1.413   .     A
C819   C825    1.405   .     A
C819   C823    1.418   .     A
C820   C824    1.418   .     A
C820   C826    1.405   .     A
C821   C827    1.405   .     A
C821   C823    1.418   .     A
C822   C828    1.405   .     A
C822   C824    1.418   .     A
C823   C890    1.422   .     S
C824   C889    1.422   1_455 S
C825   C894    1.383   .     S
C826   C893    1.379   1_455 S
C827   C892    1.379   .     S
C828   C891    1.383   1_455 S
C829   C1094   1.194   1_545 S
C830   C961    1.194   .     S
C831   H836    1.108   .     S
C831   C832    1.530   .     S
C831   H837    1.107   .     S
C832   H834    1.110   .     S
C832   H833    1.109   .     S
C832   H835    1.109   .     S
C838   H844    1.108   .     S
C838   C839    1.524   .     S
C838   H843    1.108   .     S
C839   H840    1.110   .     S
C839   H842    1.108   .     S
C839   H841    1.109   .     S
C845   H850    1.108   .     S
C845   H851    1.108   .     S
C845   C846    1.524   .     S
C846   H848    1.110   .     S
C846   H847    1.109   .     S
C846   H849    1.108   .     S
C852   H858    1.108   .     S
C852   H857    1.107   .     S
C852   C853    1.530   .     S
C853   H856    1.109   .     S
C853   H854    1.109   .     S
C853   H855    1.110   .     S
O859   Cu875   1.946   .     S
O859   C867    1.276   .     A
O860   Cu876   1.946   .     S
O860   C868    1.276   .     A
O861   C868    1.276   .     A
O861   Cu875   1.946   .     S
O862   Cu876   1.946   .     S
O862   C867    1.276   .     A
H863   C891    1.079   .     S
H864   C892    1.079   .     S
H865   C893    1.079   .     S
H866   C894    1.079   .     S
C867   C895    1.415   .     S
C868   C896    1.415   .     S
O869   Cu875   1.972   .     S
O869   C873    1.277   .     A
O870   C874    1.276   .     A
O870   Cu876   1.972   .     S
O871   Cu875   1.972   .     S
O871   C874    1.277   .     A
O872   Cu876   1.972   .     S
O872   C873    1.276   .     A
C873   C884    1.456   .     S
C874   C883    1.456   .     S
Cu875  N878    1.979   .     S
Cu875  Cu876   2.634   .     S
Cu876  N877    1.979   .     S
N878   N85     1.197   1_556 S
C879   C897    1.527   .     S
C879   C887    1.413   .     A
C879   C883    1.411   .     A
C880   C904    1.527   .     S
C880   C884    1.412   .     A
C880   C888    1.414   .     A
C881   C911    1.527   .     S
C881   C885    1.414   .     A
C881   C883    1.412   .     A
C882   C884    1.411   .     A
C882   C918    1.527   .     S
C882   C886    1.413   .     A
C885   C891    1.405   .     A
C885   C889    1.418   .     A
C886   C890    1.418   .     A
C886   C892    1.405   .     A
C887   C893    1.405   .     A
C887   C889    1.418   .     A
C888   C894    1.405   .     A
C888   C890    1.418   .     A
C889   C824    1.422   1_655 S
C891   C828    1.383   1_655 S
C893   C826    1.379   1_655 S
C895   C1160   1.194   1_545 S
C896   C1027   1.194   .     S
C897   H902    1.108   .     S
C897   C898    1.530   .     S
C897   H903    1.107   .     S
C898   H900    1.110   .     S
C898   H899    1.109   .     S
C898   H901    1.109   .     S
C904   H910    1.108   .     S
C904   C905    1.524   .     S
C904   H909    1.108   .     S
C905   H906    1.110   .     S
C905   H908    1.108   .     S
C905   H907    1.109   .     S
C911   H916    1.108   .     S
C911   H917    1.108   .     S
C911   C912    1.524   .     S
C912   H914    1.110   .     S
C912   H913    1.109   .     S
C912   H915    1.108   .     S
C918   H924    1.108   .     S
C918   H923    1.107   .     S
C918   C919    1.530   .     S
C919   H922    1.109   .     S
C919   H920    1.109   .     S
C919   H921    1.110   .     S
O925   Cu941   1.946   .     S
O925   C933    1.276   .     A
O926   Cu942   1.946   .     S
O926   C934    1.276   .     A
O927   C934    1.276   .     A
O927   Cu941   1.946   .     S
O928   Cu942   1.946   .     S
O928   C933    1.276   .     A
H929   C957    1.079   .     S
H930   C958    1.079   .     S
H931   C959    1.079   .     S
H932   C960    1.079   .     S
C933   C961    1.415   .     S
C934   C962    1.415   .     S
O935   Cu941   1.972   .     S
O935   C939    1.277   .     A
O936   C940    1.276   .     A
O936   Cu942   1.972   .     S
O937   Cu941   1.972   .     S
O937   C940    1.277   .     A
O938   Cu942   1.972   .     S
O938   C939    1.276   .     A
C939   C950    1.456   .     S
C940   C949    1.456   .     S
Cu941  N944    1.979   .     S
Cu941  Cu942   2.634   .     S
Cu942  N943    1.979   .     S
N944   N151    1.197   1_556 S
C945   C963    1.527   .     S
C945   C953    1.413   .     A
C945   C949    1.411   .     A
C946   C970    1.527   .     S
C946   C950    1.412   .     A
C946   C954    1.414   .     A
C947   C977    1.527   .     S
C947   C951    1.414   .     A
C947   C949    1.412   .     A
C948   C950    1.411   .     A
C948   C984    1.527   .     S
C948   C952    1.413   .     A
C951   C957    1.405   .     A
C951   C955    1.418   .     A
C952   C956    1.418   .     A
C952   C958    1.405   .     A
C953   C959    1.405   .     A
C953   C955    1.418   .     A
C954   C960    1.405   .     A
C954   C956    1.418   .     A
C955   C1022   1.422   .     S
C956   C1021   1.422   1_455 S
C957   C1026   1.383   .     S
C958   C1025   1.379   1_455 S
C959   C1024   1.379   .     S
C960   C1023   1.383   1_455 S
C962   C1093   1.194   .     S
C963   H968    1.108   .     S
C963   C964    1.530   .     S
C963   H969    1.107   .     S
C964   H966    1.110   .     S
C964   H965    1.109   .     S
C964   H967    1.109   .     S
C970   H976    1.108   .     S
C970   C971    1.524   .     S
C970   H975    1.108   .     S
C971   H972    1.110   .     S
C971   H974    1.108   .     S
C971   H973    1.109   .     S
C977   H982    1.108   .     S
C977   H983    1.108   .     S
C977   C978    1.524   .     S
C978   H980    1.110   .     S
C978   H979    1.109   .     S
C978   H981    1.108   .     S
C984   H990    1.108   .     S
C984   H989    1.107   .     S
C984   C985    1.530   .     S
C985   H988    1.109   .     S
C985   H986    1.109   .     S
C985   H987    1.110   .     S
O991   Cu1007  1.946   .     S
O991   C999    1.276   .     A
O992   Cu1008  1.946   .     S
O992   C1000   1.276   .     A
O993   C1000   1.276   .     A
O993   Cu1007  1.946   .     S
O994   Cu1008  1.946   .     S
O994   C999    1.276   .     A
H995   C1023   1.079   .     S
H996   C1024   1.079   .     S
H997   C1025   1.079   .     S
H998   C1026   1.079   .     S
C999   C1027   1.415   .     S
C1000  C1028   1.415   .     S
O1001  Cu1007  1.972   .     S
O1001  C1005   1.277   .     A
O1002  C1006   1.276   .     A
O1002  Cu1008  1.972   .     S
O1003  Cu1007  1.972   .     S
O1003  C1006   1.277   .     A
O1004  Cu1008  1.972   .     S
O1004  C1005   1.276   .     A
C1005  C1016   1.456   .     S
C1006  C1015   1.456   .     S
Cu1007 N1010   1.979   .     S
Cu1007 Cu1008  2.634   .     S
Cu1008 N1009   1.979   .     S
N1010  N217    1.197   1_556 S
C1011  C1029   1.527   .     S
C1011  C1019   1.413   .     A
C1011  C1015   1.411   .     A
C1012  C1036   1.527   .     S
C1012  C1016   1.412   .     A
C1012  C1020   1.414   .     A
C1013  C1043   1.527   .     S
C1013  C1017   1.414   .     A
C1013  C1015   1.412   .     A
C1014  C1016   1.411   .     A
C1014  C1050   1.527   .     S
C1014  C1018   1.413   .     A
C1017  C1023   1.405   .     A
C1017  C1021   1.418   .     A
C1018  C1022   1.418   .     A
C1018  C1024   1.405   .     A
C1019  C1025   1.405   .     A
C1019  C1021   1.418   .     A
C1020  C1026   1.405   .     A
C1020  C1022   1.418   .     A
C1021  C956    1.422   1_655 S
C1023  C960    1.383   1_655 S
C1025  C958    1.379   1_655 S
C1028  C1159   1.194   .     S
C1029  H1034   1.108   .     S
C1029  C1030   1.530   .     S
C1029  H1035   1.107   .     S
C1030  H1032   1.110   .     S
C1030  H1031   1.109   .     S
C1030  H1033   1.109   .     S
C1036  H1042   1.108   .     S
C1036  C1037   1.524   .     S
C1036  H1041   1.108   .     S
C1037  H1038   1.110   .     S
C1037  H1040   1.108   .     S
C1037  H1039   1.109   .     S
C1043  H1048   1.108   .     S
C1043  H1049   1.108   .     S
C1043  C1044   1.524   .     S
C1044  H1046   1.110   .     S
C1044  H1045   1.109   .     S
C1044  H1047   1.108   .     S
C1050  H1056   1.108   .     S
C1050  H1055   1.107   .     S
C1050  C1051   1.530   .     S
C1051  H1054   1.109   .     S
C1051  H1052   1.109   .     S
C1051  H1053   1.110   .     S
O1057  Cu1073  1.946   .     S
O1057  C1065   1.276   .     A
O1058  Cu1074  1.946   .     S
O1058  C1066   1.276   .     A
O1059  C1066   1.276   .     A
O1059  Cu1073  1.946   .     S
O1060  Cu1074  1.946   .     S
O1060  C1065   1.276   .     A
H1061  C1089   1.079   .     S
H1062  C1090   1.079   .     S
H1063  C1091   1.079   .     S
H1064  C1092   1.079   .     S
C1065  C1093   1.415   .     S
C1066  C1094   1.415   .     S
O1067  Cu1073  1.972   .     S
O1067  C1071   1.277   .     A
O1068  C1072   1.276   .     A
O1068  Cu1074  1.972   .     S
O1069  Cu1073  1.972   .     S
O1069  C1072   1.277   .     A
O1070  Cu1074  1.972   .     S
O1070  C1071   1.276   .     A
C1071  C1082   1.456   .     S
C1072  C1081   1.456   .     S
Cu1073 N1076   1.979   .     S
Cu1073 Cu1074  2.634   .     S
Cu1074 N1075   1.979   .     S
N1076  N283    1.197   1_556 S
C1077  C1095   1.527   .     S
C1077  C1085   1.413   .     A
C1077  C1081   1.411   .     A
C1078  C1102   1.527   .     S
C1078  C1082   1.412   .     A
C1078  C1086   1.414   .     A
C1079  C1109   1.527   .     S
C1079  C1083   1.414   .     A
C1079  C1081   1.412   .     A
C1080  C1082   1.411   .     A
C1080  C1116   1.527   .     S
C1080  C1084   1.413   .     A
C1083  C1089   1.405   .     A
C1083  C1087   1.418   .     A
C1084  C1088   1.418   .     A
C1084  C1090   1.405   .     A
C1085  C1091   1.405   .     A
C1085  C1087   1.418   .     A
C1086  C1092   1.405   .     A
C1086  C1088   1.418   .     A
C1087  C1154   1.422   .     S
C1088  C1153   1.422   1_455 S
C1089  C1158   1.383   .     S
C1090  C1157   1.379   1_455 S
C1091  C1156   1.379   .     S
C1092  C1155   1.383   1_455 S
C1094  C829    1.194   1_565 S
C1095  H1100   1.108   .     S
C1095  C1096   1.530   .     S
C1095  H1101   1.107   .     S
C1096  H1098   1.110   .     S
C1096  H1097   1.109   .     S
C1096  H1099   1.109   .     S
C1102  H1108   1.108   .     S
C1102  C1103   1.524   .     S
C1102  H1107   1.108   .     S
C1103  H1104   1.110   .     S
C1103  H1106   1.108   .     S
C1103  H1105   1.109   .     S
C1109  H1114   1.108   .     S
C1109  H1115   1.108   .     S
C1109  C1110   1.524   .     S
C1110  H1112   1.110   .     S
C1110  H1111   1.109   .     S
C1110  H1113   1.108   .     S
C1116  H1122   1.108   .     S
C1116  H1121   1.107   .     S
C1116  C1117   1.530   .     S
C1117  H1120   1.109   .     S
C1117  H1118   1.109   .     S
C1117  H1119   1.110   .     S
O1123  Cu1139  1.946   .     S
O1123  C1131   1.276   .     A
O1124  Cu1140  1.946   .     S
O1124  C1132   1.276   .     A
O1125  C1132   1.276   .     A
O1125  Cu1139  1.946   .     S
O1126  Cu1140  1.946   .     S
O1126  C1131   1.276   .     A
H1127  C1155   1.079   .     S
H1128  C1156   1.079   .     S
H1129  C1157   1.079   .     S
H1130  C1158   1.079   .     S
C1131  C1159   1.415   .     S
C1132  C1160   1.415   .     S
O1133  Cu1139  1.972   .     S
O1133  C1137   1.277   .     A
O1134  C1138   1.276   .     A
O1134  Cu1140  1.972   .     S
O1135  Cu1139  1.972   .     S
O1135  C1138   1.277   .     A
O1136  Cu1140  1.972   .     S
O1136  C1137   1.276   .     A
C1137  C1148   1.456   .     S
C1138  C1147   1.456   .     S
Cu1139 N1142   1.979   .     S
Cu1139 Cu1140  2.634   .     S
Cu1140 N1141   1.979   .     S
N1142  N349    1.197   1_556 S
C1143  C1161   1.527   .     S
C1143  C1151   1.413   .     A
C1143  C1147   1.411   .     A
C1144  C1168   1.527   .     S
C1144  C1148   1.412   .     A
C1144  C1152   1.414   .     A
C1145  C1175   1.527   .     S
C1145  C1149   1.414   .     A
C1145  C1147   1.412   .     A
C1146  C1148   1.411   .     A
C1146  C1182   1.527   .     S
C1146  C1150   1.413   .     A
C1149  C1155   1.405   .     A
C1149  C1153   1.418   .     A
C1150  C1154   1.418   .     A
C1150  C1156   1.405   .     A
C1151  C1157   1.405   .     A
C1151  C1153   1.418   .     A
C1152  C1158   1.405   .     A
C1152  C1154   1.418   .     A
C1153  C1088   1.422   1_655 S
C1155  C1092   1.383   1_655 S
C1157  C1090   1.379   1_655 S
C1160  C895    1.194   1_565 S
C1161  H1166   1.108   .     S
C1161  C1162   1.530   .     S
C1161  H1167   1.107   .     S
C1162  H1164   1.110   .     S
C1162  H1163   1.109   .     S
C1162  H1165   1.109   .     S
C1168  H1174   1.108   .     S
C1168  C1169   1.524   .     S
C1168  H1173   1.108   .     S
C1169  H1170   1.110   .     S
C1169  H1172   1.108   .     S
C1169  H1171   1.109   .     S
C1175  H1180   1.108   .     S
C1175  H1181   1.108   .     S
C1175  C1176   1.524   .     S
C1176  H1178   1.110   .     S
C1176  H1177   1.109   .     S
C1176  H1179   1.108   .     S
C1182  H1188   1.108   .     S
C1182  H1187   1.107   .     S
C1182  C1183   1.530   .     S
C1183  H1186   1.109   .     S
C1183  H1184   1.109   .     S
C1183  H1185   1.110   .     S
