data_str_m2_o10_o17_pcu_sym.39
_audit_creation_date              2020-01-03
_audit_creation_method            'Materials Studio'
_symmetry_space_group_name_H-M    'P1'
_symmetry_Int_Tables_number       1
_symmetry_cell_setting            triclinic
loop_
_symmetry_equiv_pos_as_xyz
  x,y,z
_cell_length_a                    29.9028
_cell_length_b                    26.2800
_cell_length_c                    22.4204
_cell_angle_alpha                 102.6783
_cell_angle_beta                  94.6405
_cell_angle_gamma                 94.1001
loop_
_atom_site_label
_atom_site_type_symbol
_atom_site_fract_x
_atom_site_fract_y
_atom_site_fract_z
_atom_site_U_iso_or_equiv
_atom_site_adp_type
_atom_site_occupancy
C1     C     0.24869   0.06674   0.15125   0.00000  Uiso   1.00
C2     C     0.08819   0.11986   0.13835   0.00000  Uiso   1.00
C3     C     0.38373   0.16889   0.16560   0.00000  Uiso   1.00
C4     C     0.11627   0.16445   0.16773   0.00000  Uiso   1.00
C5     C     0.40144   0.12358   0.13665   0.00000  Uiso   1.00
C6     C     0.09856   0.20976   0.19669   0.00000  Uiso   1.00
C7     C     0.44807   0.12049   0.14066   0.00000  Uiso   1.00
C8     C     0.05193   0.21284   0.19267   0.00000  Uiso   1.00
C9     C     0.47662   0.16688   0.16666   0.00000  Uiso   1.00
C10    C     0.02338   0.16645   0.16667   0.00000  Uiso   1.00
C11    C     0.45828   0.21371   0.19297   0.00000  Uiso   1.00
C12    C     0.25131   0.26660   0.18209   0.00000  Uiso   1.00
C13    C     0.04172   0.11962   0.14036   0.00000  Uiso   1.00
C14    C     0.46679   0.07262   0.11896   0.00000  Uiso   1.00
C15    C     0.03321   0.26071   0.21438   0.00000  Uiso   1.00
C16    C     0.43857   0.02143   0.10108   0.00000  Uiso   1.00
C17    C     0.40672   0.00793   0.13933   0.00000  Uiso   1.00
C18    C     0.37819   0.29502   0.12038   0.00000  Uiso   1.00
C19    C     0.38383   0.25950   0.06592   0.00000  Uiso   1.00
C20    C     0.41674   0.27123   0.02914   0.00000  Uiso   1.00
C21    C     0.44316   0.31912   0.04574   0.00000  Uiso   1.00
C22    C     0.06143   0.31190   0.23226   0.00000  Uiso   1.00
C23    C     0.01363   0.07320   0.11748   0.00000  Uiso   1.00
C24    C     0.05684   0.01421   0.28759   0.00000  Uiso   1.00
C25    C     0.08326   0.06211   0.30419   0.00000  Uiso   1.00
C26    C     0.11617   0.07384   0.26741   0.00000  Uiso   1.00
C27    C     0.12181   0.03831   0.21295   0.00000  Uiso   1.00
C28    C     0.09328   0.32540   0.19400   0.00000  Uiso   1.00
C29    C     0.48637   0.26014   0.21586   0.00000  Uiso   1.00
C30    C     0.24848   0.01110   0.14249   0.00000  Uiso   1.00
C31    C     0.25152   0.32223   0.19084   0.00000  Uiso   1.00
C32    C     0.16445   0.16474   0.16687   0.00000  Uiso   1.00
C33    C     0.33555   0.16859   0.16646   0.00000  Uiso   1.00
C34    C     0.41181   0.21347   0.19498   0.00000  Uiso   1.00
Cu35   Cu    0.25501   0.17246   0.22813   0.00000  Uiso   1.00
Cu36   Cu    0.24500   0.16087   0.10521   0.00000  Uiso   1.00
F37    F     0.24532   0.31583   0.08344   0.00000  Uiso   1.00
F38    F     0.25468   0.01750   0.24989   0.00000  Uiso   1.00
H39    H     0.39730   0.24832   0.21766   0.00000  Uiso   1.00
H40    H     0.35234   0.28618   0.14864   0.00000  Uiso   1.00
H41    H     0.36302   0.22271   0.05242   0.00000  Uiso   1.00
H42    H     0.42149   0.24333   0.32087   0.00000  Uiso   1.00
H43    H     0.46658   0.32867   0.01503   0.00000  Uiso   1.00
H44    H     0.03342   0.00467   0.31831   0.00000  Uiso   1.00
H45    H     0.07851   0.09000   0.01246   0.00000  Uiso   1.00
H46    H     0.13697   0.11062   0.28091   0.00000  Uiso   1.00
H47    H     0.14766   0.04716   0.18469   0.00000  Uiso   1.00
H48    H     0.09690   0.29947   0.15024   0.00000  Uiso   1.00
H49    H     0.10270   0.08501   0.11567   0.00000  Uiso   1.00
H50    H     0.37826   0.09067   0.11238   0.00000  Uiso   1.00
H51    H     0.12174   0.24267   0.22095   0.00000  Uiso   1.00
H52    H     0.02842   0.03697   0.10042   0.00000  Uiso   1.00
H53    H     0.47158   0.29636   0.23291   0.00000  Uiso   1.00
H54    H     0.21613   0.12383   0.31606   0.00000  Uiso   1.00
H55    H     0.28387   0.20950   0.01728   0.00000  Uiso   1.00
H56    H     0.40310   0.03387   0.18309   0.00000  Uiso   1.00
N57    N     0.23745   0.15214   0.01284   0.00000  Uiso   1.00
N58    N     0.26256   0.18119   0.32049   0.00000  Uiso   1.00
O59    O     0.25326   0.09538   0.20659   0.00000  Uiso   1.00
O60    O     0.24675   0.23796   0.12674   0.00000  Uiso   1.00
O61    O     0.24480   0.08559   0.10279   0.00000  Uiso   1.00
O62    O     0.25520   0.24774   0.23055   0.00000  Uiso   1.00
O63    O     0.18936   0.17155   0.21857   0.00000  Uiso   1.00
O64    O     0.31065   0.16179   0.11476   0.00000  Uiso   1.00
O65    O     0.18090   0.16176   0.11477   0.00000  Uiso   1.00
O66    O     0.31910   0.17157   0.21857   0.00000  Uiso   1.00
C67    C     0.74869   0.06674   0.15125   0.00000  Uiso   1.00
C68    C     0.58819   0.11986   0.13835   0.00000  Uiso   1.00
C69    C     0.88373   0.16889   0.16560   0.00000  Uiso   1.00
C70    C     0.61627   0.16445   0.16773   0.00000  Uiso   1.00
C71    C     0.90144   0.12358   0.13665   0.00000  Uiso   1.00
C72    C     0.59856   0.20976   0.19669   0.00000  Uiso   1.00
C73    C     0.94807   0.12049   0.14066   0.00000  Uiso   1.00
C74    C     0.55193   0.21284   0.19267   0.00000  Uiso   1.00
C75    C     0.97662   0.16688   0.16666   0.00000  Uiso   1.00
C76    C     0.52338   0.16645   0.16667   0.00000  Uiso   1.00
C77    C     0.95828   0.21371   0.19297   0.00000  Uiso   1.00
C78    C     0.75131   0.26660   0.18209   0.00000  Uiso   1.00
C79    C     0.54172   0.11962   0.14036   0.00000  Uiso   1.00
C80    C     0.96679   0.07262   0.11896   0.00000  Uiso   1.00
C81    C     0.53321   0.26071   0.21438   0.00000  Uiso   1.00
C82    C     0.93857   0.02143   0.10108   0.00000  Uiso   1.00
C83    C     0.90672   0.00793   0.13933   0.00000  Uiso   1.00
C84    C     0.87819   0.29502   0.12038   0.00000  Uiso   1.00
C85    C     0.88383   0.25950   0.06592   0.00000  Uiso   1.00
C86    C     0.91674   0.27123   0.02914   0.00000  Uiso   1.00
C87    C     0.94316   0.31912   0.04574   0.00000  Uiso   1.00
C88    C     0.56143   0.31190   0.23226   0.00000  Uiso   1.00
C89    C     0.51363   0.07320   0.11748   0.00000  Uiso   1.00
C90    C     0.55684   0.01421   0.28759   0.00000  Uiso   1.00
C91    C     0.58326   0.06211   0.30419   0.00000  Uiso   1.00
C92    C     0.61617   0.07384   0.26741   0.00000  Uiso   1.00
C93    C     0.62181   0.03831   0.21295   0.00000  Uiso   1.00
C94    C     0.59328   0.32540   0.19400   0.00000  Uiso   1.00
C95    C     0.98637   0.26014   0.21586   0.00000  Uiso   1.00
C96    C     0.74848   0.01110   0.14249   0.00000  Uiso   1.00
C97    C     0.75152   0.32223   0.19084   0.00000  Uiso   1.00
C98    C     0.66445   0.16474   0.16687   0.00000  Uiso   1.00
C99    C     0.83555   0.16859   0.16646   0.00000  Uiso   1.00
C100   C     0.91181   0.21347   0.19498   0.00000  Uiso   1.00
Cu101  Cu    0.75501   0.17246   0.22813   0.00000  Uiso   1.00
Cu102  Cu    0.74500   0.16087   0.10521   0.00000  Uiso   1.00
F103   F     0.74532   0.31583   0.08344   0.00000  Uiso   1.00
F104   F     0.75468   0.01750   0.24989   0.00000  Uiso   1.00
H105   H     0.89730   0.24832   0.21766   0.00000  Uiso   1.00
H106   H     0.85234   0.28618   0.14864   0.00000  Uiso   1.00
H107   H     0.86302   0.22271   0.05242   0.00000  Uiso   1.00
H108   H     0.92149   0.24333   0.32087   0.00000  Uiso   1.00
H109   H     0.96658   0.32867   0.01503   0.00000  Uiso   1.00
H110   H     0.53342   0.00467   0.31831   0.00000  Uiso   1.00
H111   H     0.57851   0.09000   0.01246   0.00000  Uiso   1.00
H112   H     0.63697   0.11062   0.28091   0.00000  Uiso   1.00
H113   H     0.64766   0.04716   0.18469   0.00000  Uiso   1.00
H114   H     0.59690   0.29947   0.15024   0.00000  Uiso   1.00
H115   H     0.60270   0.08501   0.11567   0.00000  Uiso   1.00
H116   H     0.87826   0.09067   0.11238   0.00000  Uiso   1.00
H117   H     0.62174   0.24267   0.22095   0.00000  Uiso   1.00
H118   H     0.52842   0.03697   0.10042   0.00000  Uiso   1.00
H119   H     0.97158   0.29636   0.23291   0.00000  Uiso   1.00
H120   H     0.71613   0.12383   0.31606   0.00000  Uiso   1.00
H121   H     0.78387   0.20950   0.01728   0.00000  Uiso   1.00
H122   H     0.90310   0.03387   0.18309   0.00000  Uiso   1.00
N123   N     0.73745   0.15214   0.01284   0.00000  Uiso   1.00
N124   N     0.76256   0.18119   0.32049   0.00000  Uiso   1.00
O125   O     0.75326   0.09538   0.20659   0.00000  Uiso   1.00
O126   O     0.74675   0.23796   0.12674   0.00000  Uiso   1.00
O127   O     0.74480   0.08559   0.10279   0.00000  Uiso   1.00
O128   O     0.75520   0.24774   0.23055   0.00000  Uiso   1.00
O129   O     0.68936   0.17155   0.21857   0.00000  Uiso   1.00
O130   O     0.81065   0.16179   0.11476   0.00000  Uiso   1.00
O131   O     0.68090   0.16176   0.11477   0.00000  Uiso   1.00
O132   O     0.81910   0.17157   0.21857   0.00000  Uiso   1.00
C133   C     0.24869   0.40007   0.15125   0.00000  Uiso   1.00
C134   C     0.08819   0.45319   0.13835   0.00000  Uiso   1.00
C135   C     0.38373   0.50222   0.16560   0.00000  Uiso   1.00
C136   C     0.11627   0.49778   0.16773   0.00000  Uiso   1.00
C137   C     0.40144   0.45691   0.13665   0.00000  Uiso   1.00
C138   C     0.09856   0.54309   0.19669   0.00000  Uiso   1.00
C139   C     0.44807   0.45382   0.14066   0.00000  Uiso   1.00
C140   C     0.05193   0.54618   0.19267   0.00000  Uiso   1.00
C141   C     0.47662   0.50021   0.16666   0.00000  Uiso   1.00
C142   C     0.02338   0.49979   0.16667   0.00000  Uiso   1.00
C143   C     0.45828   0.54705   0.19297   0.00000  Uiso   1.00
C144   C     0.25131   0.59993   0.18209   0.00000  Uiso   1.00
C145   C     0.04172   0.45295   0.14036   0.00000  Uiso   1.00
C146   C     0.46679   0.40595   0.11896   0.00000  Uiso   1.00
C147   C     0.03321   0.59405   0.21438   0.00000  Uiso   1.00
C148   C     0.43857   0.35477   0.10108   0.00000  Uiso   1.00
C149   C     0.40672   0.34126   0.13933   0.00000  Uiso   1.00
C150   C     0.37819   0.62835   0.12038   0.00000  Uiso   1.00
C151   C     0.38383   0.59283   0.06592   0.00000  Uiso   1.00
C152   C     0.41674   0.60456   0.02914   0.00000  Uiso   1.00
C153   C     0.44316   0.65246   0.04574   0.00000  Uiso   1.00
C154   C     0.06143   0.64523   0.23226   0.00000  Uiso   1.00
C155   C     0.01363   0.40653   0.11748   0.00000  Uiso   1.00
C156   C     0.05684   0.34754   0.28759   0.00000  Uiso   1.00
C157   C     0.08326   0.39544   0.30419   0.00000  Uiso   1.00
C158   C     0.11617   0.40717   0.26741   0.00000  Uiso   1.00
C159   C     0.12181   0.37165   0.21295   0.00000  Uiso   1.00
C160   C     0.09328   0.65874   0.19400   0.00000  Uiso   1.00
C161   C     0.48637   0.59347   0.21586   0.00000  Uiso   1.00
C162   C     0.24848   0.34443   0.14249   0.00000  Uiso   1.00
C163   C     0.25152   0.65557   0.19084   0.00000  Uiso   1.00
C164   C     0.16445   0.49807   0.16687   0.00000  Uiso   1.00
C165   C     0.33555   0.50193   0.16646   0.00000  Uiso   1.00
C166   C     0.41181   0.54681   0.19498   0.00000  Uiso   1.00
Cu167  Cu    0.25501   0.50579   0.22813   0.00000  Uiso   1.00
Cu168  Cu    0.24500   0.49421   0.10521   0.00000  Uiso   1.00
F169   F     0.24532   0.64917   0.08344   0.00000  Uiso   1.00
F170   F     0.25468   0.35083   0.24989   0.00000  Uiso   1.00
H171   H     0.39730   0.58166   0.21766   0.00000  Uiso   1.00
H172   H     0.35234   0.61951   0.14864   0.00000  Uiso   1.00
H173   H     0.36302   0.55605   0.05242   0.00000  Uiso   1.00
H174   H     0.42149   0.57667   0.32087   0.00000  Uiso   1.00
H175   H     0.46658   0.66200   0.01503   0.00000  Uiso   1.00
H176   H     0.03342   0.33800   0.31831   0.00000  Uiso   1.00
H177   H     0.07851   0.42333   0.01246   0.00000  Uiso   1.00
H178   H     0.13697   0.44396   0.28091   0.00000  Uiso   1.00
H179   H     0.14766   0.38049   0.18469   0.00000  Uiso   1.00
H180   H     0.09690   0.63280   0.15024   0.00000  Uiso   1.00
H181   H     0.10270   0.41834   0.11567   0.00000  Uiso   1.00
H182   H     0.37826   0.42400   0.11238   0.00000  Uiso   1.00
H183   H     0.12174   0.57600   0.22095   0.00000  Uiso   1.00
H184   H     0.02842   0.37031   0.10042   0.00000  Uiso   1.00
H185   H     0.47158   0.62969   0.23291   0.00000  Uiso   1.00
H186   H     0.21613   0.45717   0.31606   0.00000  Uiso   1.00
H187   H     0.28387   0.54283   0.01728   0.00000  Uiso   1.00
H188   H     0.40310   0.36720   0.18309   0.00000  Uiso   1.00
N189   N     0.23745   0.48547   0.01284   0.00000  Uiso   1.00
N190   N     0.26256   0.51453   0.32049   0.00000  Uiso   1.00
O191   O     0.25326   0.42871   0.20659   0.00000  Uiso   1.00
O192   O     0.24675   0.57129   0.12674   0.00000  Uiso   1.00
O193   O     0.24480   0.41892   0.10279   0.00000  Uiso   1.00
O194   O     0.25520   0.58108   0.23055   0.00000  Uiso   1.00
O195   O     0.18936   0.50488   0.21857   0.00000  Uiso   1.00
O196   O     0.31065   0.49512   0.11476   0.00000  Uiso   1.00
O197   O     0.18090   0.49510   0.11477   0.00000  Uiso   1.00
O198   O     0.31910   0.50490   0.21857   0.00000  Uiso   1.00
C199   C     0.74869   0.40007   0.15125   0.00000  Uiso   1.00
C200   C     0.58819   0.45319   0.13835   0.00000  Uiso   1.00
C201   C     0.88373   0.50222   0.16560   0.00000  Uiso   1.00
C202   C     0.61627   0.49778   0.16773   0.00000  Uiso   1.00
C203   C     0.90144   0.45691   0.13665   0.00000  Uiso   1.00
C204   C     0.59856   0.54309   0.19669   0.00000  Uiso   1.00
C205   C     0.94807   0.45382   0.14066   0.00000  Uiso   1.00
C206   C     0.55193   0.54618   0.19267   0.00000  Uiso   1.00
C207   C     0.97662   0.50021   0.16666   0.00000  Uiso   1.00
C208   C     0.52338   0.49979   0.16667   0.00000  Uiso   1.00
C209   C     0.95828   0.54705   0.19297   0.00000  Uiso   1.00
C210   C     0.75131   0.59993   0.18209   0.00000  Uiso   1.00
C211   C     0.54172   0.45295   0.14036   0.00000  Uiso   1.00
C212   C     0.96679   0.40595   0.11896   0.00000  Uiso   1.00
C213   C     0.53321   0.59405   0.21438   0.00000  Uiso   1.00
C214   C     0.93857   0.35477   0.10108   0.00000  Uiso   1.00
C215   C     0.90672   0.34126   0.13933   0.00000  Uiso   1.00
C216   C     0.87819   0.62835   0.12038   0.00000  Uiso   1.00
C217   C     0.88383   0.59283   0.06592   0.00000  Uiso   1.00
C218   C     0.91674   0.60456   0.02914   0.00000  Uiso   1.00
C219   C     0.94316   0.65246   0.04574   0.00000  Uiso   1.00
C220   C     0.56143   0.64523   0.23226   0.00000  Uiso   1.00
C221   C     0.51363   0.40653   0.11748   0.00000  Uiso   1.00
C222   C     0.55684   0.34754   0.28759   0.00000  Uiso   1.00
C223   C     0.58326   0.39544   0.30419   0.00000  Uiso   1.00
C224   C     0.61617   0.40717   0.26741   0.00000  Uiso   1.00
C225   C     0.62181   0.37165   0.21295   0.00000  Uiso   1.00
C226   C     0.59328   0.65874   0.19400   0.00000  Uiso   1.00
C227   C     0.98637   0.59347   0.21586   0.00000  Uiso   1.00
C228   C     0.74848   0.34443   0.14249   0.00000  Uiso   1.00
C229   C     0.75152   0.65557   0.19084   0.00000  Uiso   1.00
C230   C     0.66445   0.49807   0.16687   0.00000  Uiso   1.00
C231   C     0.83555   0.50193   0.16646   0.00000  Uiso   1.00
C232   C     0.91181   0.54681   0.19498   0.00000  Uiso   1.00
Cu233  Cu    0.75501   0.50579   0.22813   0.00000  Uiso   1.00
Cu234  Cu    0.74500   0.49421   0.10521   0.00000  Uiso   1.00
F235   F     0.74532   0.64917   0.08344   0.00000  Uiso   1.00
F236   F     0.75468   0.35083   0.24989   0.00000  Uiso   1.00
H237   H     0.89730   0.58166   0.21766   0.00000  Uiso   1.00
H238   H     0.85234   0.61951   0.14864   0.00000  Uiso   1.00
H239   H     0.86302   0.55605   0.05242   0.00000  Uiso   1.00
H240   H     0.92149   0.57667   0.32087   0.00000  Uiso   1.00
H241   H     0.96658   0.66200   0.01503   0.00000  Uiso   1.00
H242   H     0.53342   0.33800   0.31831   0.00000  Uiso   1.00
H243   H     0.57851   0.42333   0.01246   0.00000  Uiso   1.00
H244   H     0.63697   0.44396   0.28091   0.00000  Uiso   1.00
H245   H     0.64766   0.38049   0.18469   0.00000  Uiso   1.00
H246   H     0.59690   0.63280   0.15024   0.00000  Uiso   1.00
H247   H     0.60270   0.41834   0.11567   0.00000  Uiso   1.00
H248   H     0.87826   0.42400   0.11238   0.00000  Uiso   1.00
H249   H     0.62174   0.57600   0.22095   0.00000  Uiso   1.00
H250   H     0.52842   0.37031   0.10042   0.00000  Uiso   1.00
H251   H     0.97158   0.62969   0.23291   0.00000  Uiso   1.00
H252   H     0.71613   0.45717   0.31606   0.00000  Uiso   1.00
H253   H     0.78387   0.54283   0.01728   0.00000  Uiso   1.00
H254   H     0.90310   0.36720   0.18309   0.00000  Uiso   1.00
N255   N     0.73745   0.48547   0.01284   0.00000  Uiso   1.00
N256   N     0.76256   0.51453   0.32049   0.00000  Uiso   1.00
O257   O     0.75326   0.42871   0.20659   0.00000  Uiso   1.00
O258   O     0.74675   0.57129   0.12674   0.00000  Uiso   1.00
O259   O     0.74480   0.41892   0.10279   0.00000  Uiso   1.00
O260   O     0.75520   0.58108   0.23055   0.00000  Uiso   1.00
O261   O     0.68936   0.50488   0.21857   0.00000  Uiso   1.00
O262   O     0.81065   0.49512   0.11476   0.00000  Uiso   1.00
O263   O     0.68090   0.49510   0.11477   0.00000  Uiso   1.00
O264   O     0.81910   0.50490   0.21857   0.00000  Uiso   1.00
C265   C     0.24869   0.73340   0.15125   0.00000  Uiso   1.00
C266   C     0.08819   0.78653   0.13835   0.00000  Uiso   1.00
C267   C     0.38373   0.83555   0.16560   0.00000  Uiso   1.00
C268   C     0.11627   0.83111   0.16773   0.00000  Uiso   1.00
C269   C     0.40144   0.79024   0.13665   0.00000  Uiso   1.00
C270   C     0.09856   0.87642   0.19669   0.00000  Uiso   1.00
C271   C     0.44807   0.78716   0.14066   0.00000  Uiso   1.00
C272   C     0.05193   0.87951   0.19267   0.00000  Uiso   1.00
C273   C     0.47662   0.83355   0.16666   0.00000  Uiso   1.00
C274   C     0.02338   0.83312   0.16667   0.00000  Uiso   1.00
C275   C     0.45828   0.88038   0.19297   0.00000  Uiso   1.00
C276   C     0.25131   0.93326   0.18209   0.00000  Uiso   1.00
C277   C     0.04172   0.78629   0.14036   0.00000  Uiso   1.00
C278   C     0.46679   0.73929   0.11896   0.00000  Uiso   1.00
C279   C     0.03321   0.92738   0.21438   0.00000  Uiso   1.00
C280   C     0.43857   0.68810   0.10108   0.00000  Uiso   1.00
C281   C     0.40672   0.67460   0.13933   0.00000  Uiso   1.00
C282   C     0.37819   0.96169   0.12038   0.00000  Uiso   1.00
C283   C     0.38383   0.92616   0.06592   0.00000  Uiso   1.00
C284   C     0.41674   0.93789   0.02914   0.00000  Uiso   1.00
C285   C     0.44316   0.98579   0.04574   0.00000  Uiso   1.00
C286   C     0.06143   0.97857   0.23226   0.00000  Uiso   1.00
C287   C     0.01363   0.73986   0.11748   0.00000  Uiso   1.00
C288   C     0.05684   0.68088   0.28759   0.00000  Uiso   1.00
C289   C     0.08326   0.72877   0.30419   0.00000  Uiso   1.00
C290   C     0.11617   0.74050   0.26741   0.00000  Uiso   1.00
C291   C     0.12181   0.70498   0.21295   0.00000  Uiso   1.00
C292   C     0.09328   0.99207   0.19400   0.00000  Uiso   1.00
C293   C     0.48637   0.92680   0.21586   0.00000  Uiso   1.00
C294   C     0.24848   0.67777   0.14249   0.00000  Uiso   1.00
C295   C     0.25152   0.98890   0.19084   0.00000  Uiso   1.00
C296   C     0.16445   0.83141   0.16687   0.00000  Uiso   1.00
C297   C     0.33555   0.83526   0.16646   0.00000  Uiso   1.00
C298   C     0.41181   0.88014   0.19498   0.00000  Uiso   1.00
Cu299  Cu    0.25501   0.83913   0.22813   0.00000  Uiso   1.00
Cu300  Cu    0.24500   0.82754   0.10521   0.00000  Uiso   1.00
F301   F     0.24532   0.98250   0.08344   0.00000  Uiso   1.00
F302   F     0.25468   0.68417   0.24989   0.00000  Uiso   1.00
H303   H     0.39730   0.91499   0.21766   0.00000  Uiso   1.00
H304   H     0.35234   0.95284   0.14864   0.00000  Uiso   1.00
H305   H     0.36302   0.88938   0.05242   0.00000  Uiso   1.00
H306   H     0.42149   0.91000   0.32087   0.00000  Uiso   1.00
H307   H     0.46658   0.99533   0.01503   0.00000  Uiso   1.00
H308   H     0.03342   0.67133   0.31831   0.00000  Uiso   1.00
H309   H     0.07851   0.75667   0.01246   0.00000  Uiso   1.00
H310   H     0.13697   0.77729   0.28091   0.00000  Uiso   1.00
H311   H     0.14766   0.71382   0.18469   0.00000  Uiso   1.00
H312   H     0.09690   0.96613   0.15024   0.00000  Uiso   1.00
H313   H     0.10270   0.75168   0.11567   0.00000  Uiso   1.00
H314   H     0.37826   0.75733   0.11238   0.00000  Uiso   1.00
H315   H     0.12174   0.90933   0.22095   0.00000  Uiso   1.00
H316   H     0.02842   0.70364   0.10042   0.00000  Uiso   1.00
H317   H     0.47158   0.96303   0.23291   0.00000  Uiso   1.00
H318   H     0.21613   0.79050   0.31606   0.00000  Uiso   1.00
H319   H     0.28387   0.87617   0.01728   0.00000  Uiso   1.00
H320   H     0.40310   0.70053   0.18309   0.00000  Uiso   1.00
N321   N     0.23745   0.81881   0.01284   0.00000  Uiso   1.00
N322   N     0.26256   0.84786   0.32049   0.00000  Uiso   1.00
O323   O     0.25326   0.76204   0.20659   0.00000  Uiso   1.00
O324   O     0.24675   0.90462   0.12674   0.00000  Uiso   1.00
O325   O     0.24480   0.75226   0.10279   0.00000  Uiso   1.00
O326   O     0.25520   0.91441   0.23055   0.00000  Uiso   1.00
O327   O     0.18936   0.83821   0.21857   0.00000  Uiso   1.00
O328   O     0.31065   0.82845   0.11476   0.00000  Uiso   1.00
O329   O     0.18090   0.82843   0.11477   0.00000  Uiso   1.00
O330   O     0.31910   0.83824   0.21857   0.00000  Uiso   1.00
C331   C     0.74869   0.73340   0.15125   0.00000  Uiso   1.00
C332   C     0.58819   0.78653   0.13835   0.00000  Uiso   1.00
C333   C     0.88373   0.83555   0.16560   0.00000  Uiso   1.00
C334   C     0.61627   0.83111   0.16773   0.00000  Uiso   1.00
C335   C     0.90144   0.79024   0.13665   0.00000  Uiso   1.00
C336   C     0.59856   0.87642   0.19669   0.00000  Uiso   1.00
C337   C     0.94807   0.78716   0.14066   0.00000  Uiso   1.00
C338   C     0.55193   0.87951   0.19267   0.00000  Uiso   1.00
C339   C     0.97662   0.83355   0.16666   0.00000  Uiso   1.00
C340   C     0.52338   0.83312   0.16667   0.00000  Uiso   1.00
C341   C     0.95828   0.88038   0.19297   0.00000  Uiso   1.00
C342   C     0.75131   0.93326   0.18209   0.00000  Uiso   1.00
C343   C     0.54172   0.78629   0.14036   0.00000  Uiso   1.00
C344   C     0.96679   0.73929   0.11896   0.00000  Uiso   1.00
C345   C     0.53321   0.92738   0.21438   0.00000  Uiso   1.00
C346   C     0.93857   0.68810   0.10108   0.00000  Uiso   1.00
C347   C     0.90672   0.67460   0.13933   0.00000  Uiso   1.00
C348   C     0.87819   0.96169   0.12038   0.00000  Uiso   1.00
C349   C     0.88383   0.92616   0.06592   0.00000  Uiso   1.00
C350   C     0.91674   0.93789   0.02914   0.00000  Uiso   1.00
C351   C     0.94316   0.98579   0.04574   0.00000  Uiso   1.00
C352   C     0.56143   0.97857   0.23226   0.00000  Uiso   1.00
C353   C     0.51363   0.73986   0.11748   0.00000  Uiso   1.00
C354   C     0.55684   0.68088   0.28759   0.00000  Uiso   1.00
C355   C     0.58326   0.72877   0.30419   0.00000  Uiso   1.00
C356   C     0.61617   0.74050   0.26741   0.00000  Uiso   1.00
C357   C     0.62181   0.70498   0.21295   0.00000  Uiso   1.00
C358   C     0.59328   0.99207   0.19400   0.00000  Uiso   1.00
C359   C     0.98637   0.92680   0.21586   0.00000  Uiso   1.00
C360   C     0.74848   0.67777   0.14249   0.00000  Uiso   1.00
C361   C     0.75152   0.98890   0.19084   0.00000  Uiso   1.00
C362   C     0.66445   0.83141   0.16687   0.00000  Uiso   1.00
C363   C     0.83555   0.83526   0.16646   0.00000  Uiso   1.00
C364   C     0.91181   0.88014   0.19498   0.00000  Uiso   1.00
Cu365  Cu    0.75501   0.83913   0.22813   0.00000  Uiso   1.00
Cu366  Cu    0.74500   0.82754   0.10521   0.00000  Uiso   1.00
F367   F     0.74532   0.98250   0.08344   0.00000  Uiso   1.00
F368   F     0.75468   0.68417   0.24989   0.00000  Uiso   1.00
H369   H     0.89730   0.91499   0.21766   0.00000  Uiso   1.00
H370   H     0.85234   0.95284   0.14864   0.00000  Uiso   1.00
H371   H     0.86302   0.88938   0.05242   0.00000  Uiso   1.00
H372   H     0.92149   0.91000   0.32087   0.00000  Uiso   1.00
H373   H     0.96658   0.99533   0.01503   0.00000  Uiso   1.00
H374   H     0.53342   0.67133   0.31831   0.00000  Uiso   1.00
H375   H     0.57851   0.75667   0.01246   0.00000  Uiso   1.00
H376   H     0.63697   0.77729   0.28091   0.00000  Uiso   1.00
H377   H     0.64766   0.71382   0.18469   0.00000  Uiso   1.00
H378   H     0.59690   0.96613   0.15024   0.00000  Uiso   1.00
H379   H     0.60270   0.75168   0.11567   0.00000  Uiso   1.00
H380   H     0.87826   0.75733   0.11238   0.00000  Uiso   1.00
H381   H     0.62174   0.90933   0.22095   0.00000  Uiso   1.00
H382   H     0.52842   0.70364   0.10042   0.00000  Uiso   1.00
H383   H     0.97158   0.96303   0.23291   0.00000  Uiso   1.00
H384   H     0.71613   0.79050   0.31606   0.00000  Uiso   1.00
H385   H     0.78387   0.87617   0.01728   0.00000  Uiso   1.00
H386   H     0.90310   0.70053   0.18309   0.00000  Uiso   1.00
N387   N     0.73745   0.81881   0.01284   0.00000  Uiso   1.00
N388   N     0.76256   0.84786   0.32049   0.00000  Uiso   1.00
O389   O     0.75326   0.76204   0.20659   0.00000  Uiso   1.00
O390   O     0.74675   0.90462   0.12674   0.00000  Uiso   1.00
O391   O     0.74480   0.75226   0.10279   0.00000  Uiso   1.00
O392   O     0.75520   0.91441   0.23055   0.00000  Uiso   1.00
O393   O     0.68936   0.83821   0.21857   0.00000  Uiso   1.00
O394   O     0.81065   0.82845   0.11476   0.00000  Uiso   1.00
O395   O     0.68090   0.82843   0.11477   0.00000  Uiso   1.00
O396   O     0.81910   0.83824   0.21857   0.00000  Uiso   1.00
C397   C     0.24869   0.06674   0.48458   0.00000  Uiso   1.00
C398   C     0.08819   0.11986   0.47169   0.00000  Uiso   1.00
C399   C     0.38373   0.16889   0.49894   0.00000  Uiso   1.00
C400   C     0.11627   0.16445   0.50106   0.00000  Uiso   1.00
C401   C     0.40144   0.12358   0.46998   0.00000  Uiso   1.00
C402   C     0.09856   0.20976   0.53002   0.00000  Uiso   1.00
C403   C     0.44807   0.12049   0.47400   0.00000  Uiso   1.00
C404   C     0.05193   0.21284   0.52600   0.00000  Uiso   1.00
C405   C     0.47662   0.16688   0.50000   0.00000  Uiso   1.00
C406   C     0.02338   0.16645   0.50000   0.00000  Uiso   1.00
C407   C     0.45828   0.21371   0.52630   0.00000  Uiso   1.00
C408   C     0.25131   0.26660   0.51542   0.00000  Uiso   1.00
C409   C     0.04172   0.11962   0.47370   0.00000  Uiso   1.00
C410   C     0.46679   0.07262   0.45229   0.00000  Uiso   1.00
C411   C     0.03321   0.26071   0.54771   0.00000  Uiso   1.00
C412   C     0.43857   0.02143   0.43441   0.00000  Uiso   1.00
C413   C     0.40672   0.00793   0.47266   0.00000  Uiso   1.00
C414   C     0.37819   0.29502   0.45371   0.00000  Uiso   1.00
C415   C     0.38383   0.25950   0.39925   0.00000  Uiso   1.00
C416   C     0.41674   0.27123   0.36247   0.00000  Uiso   1.00
C417   C     0.44316   0.31912   0.37907   0.00000  Uiso   1.00
C418   C     0.06143   0.31190   0.56559   0.00000  Uiso   1.00
C419   C     0.01363   0.07320   0.45081   0.00000  Uiso   1.00
C420   C     0.05684   0.01421   0.62093   0.00000  Uiso   1.00
C421   C     0.08326   0.06211   0.63753   0.00000  Uiso   1.00
C422   C     0.11617   0.07384   0.60075   0.00000  Uiso   1.00
C423   C     0.12181   0.03831   0.54628   0.00000  Uiso   1.00
C424   C     0.09328   0.32540   0.52733   0.00000  Uiso   1.00
C425   C     0.48637   0.26014   0.54919   0.00000  Uiso   1.00
C426   C     0.24848   0.01110   0.47583   0.00000  Uiso   1.00
C427   C     0.25152   0.32223   0.52417   0.00000  Uiso   1.00
C428   C     0.16445   0.16474   0.50021   0.00000  Uiso   1.00
C429   C     0.33555   0.16859   0.49979   0.00000  Uiso   1.00
C430   C     0.41181   0.21347   0.52831   0.00000  Uiso   1.00
Cu431  Cu    0.25501   0.17246   0.56146   0.00000  Uiso   1.00
Cu432  Cu    0.24500   0.16087   0.43854   0.00000  Uiso   1.00
F433   F     0.24532   0.31583   0.41678   0.00000  Uiso   1.00
F434   F     0.25468   0.01750   0.58322   0.00000  Uiso   1.00
H435   H     0.39730   0.24832   0.55099   0.00000  Uiso   1.00
H436   H     0.35234   0.28618   0.48197   0.00000  Uiso   1.00
H437   H     0.36302   0.22271   0.38575   0.00000  Uiso   1.00
H438   H     0.42149   0.24333   0.65421   0.00000  Uiso   1.00
H439   H     0.46658   0.32867   0.34836   0.00000  Uiso   1.00
H440   H     0.03342   0.00467   0.65164   0.00000  Uiso   1.00
H441   H     0.07851   0.09000   0.34580   0.00000  Uiso   1.00
H442   H     0.13697   0.11062   0.61424   0.00000  Uiso   1.00
H443   H     0.14766   0.04716   0.51802   0.00000  Uiso   1.00
H444   H     0.09690   0.29947   0.48358   0.00000  Uiso   1.00
H445   H     0.10270   0.08501   0.44901   0.00000  Uiso   1.00
H446   H     0.37826   0.09067   0.44572   0.00000  Uiso   1.00
H447   H     0.12174   0.24267   0.55428   0.00000  Uiso   1.00
H448   H     0.02842   0.03697   0.43376   0.00000  Uiso   1.00
H449   H     0.47158   0.29636   0.56625   0.00000  Uiso   1.00
H450   H     0.21613   0.12383   0.64939   0.00000  Uiso   1.00
H451   H     0.28387   0.20950   0.35061   0.00000  Uiso   1.00
H452   H     0.40310   0.03387   0.51642   0.00000  Uiso   1.00
N453   N     0.23745   0.15214   0.34617   0.00000  Uiso   1.00
N454   N     0.26256   0.18119   0.65383   0.00000  Uiso   1.00
O455   O     0.25326   0.09538   0.53992   0.00000  Uiso   1.00
O456   O     0.24675   0.23796   0.46008   0.00000  Uiso   1.00
O457   O     0.24480   0.08559   0.43612   0.00000  Uiso   1.00
O458   O     0.25520   0.24774   0.56388   0.00000  Uiso   1.00
O459   O     0.18936   0.17155   0.55191   0.00000  Uiso   1.00
O460   O     0.31065   0.16179   0.44809   0.00000  Uiso   1.00
O461   O     0.18090   0.16176   0.44810   0.00000  Uiso   1.00
O462   O     0.31910   0.17157   0.55190   0.00000  Uiso   1.00
C463   C     0.74869   0.06674   0.48458   0.00000  Uiso   1.00
C464   C     0.58819   0.11986   0.47169   0.00000  Uiso   1.00
C465   C     0.88373   0.16889   0.49894   0.00000  Uiso   1.00
C466   C     0.61627   0.16445   0.50106   0.00000  Uiso   1.00
C467   C     0.90144   0.12358   0.46998   0.00000  Uiso   1.00
C468   C     0.59856   0.20976   0.53002   0.00000  Uiso   1.00
C469   C     0.94807   0.12049   0.47400   0.00000  Uiso   1.00
C470   C     0.55193   0.21284   0.52600   0.00000  Uiso   1.00
C471   C     0.97662   0.16688   0.50000   0.00000  Uiso   1.00
C472   C     0.52338   0.16645   0.50000   0.00000  Uiso   1.00
C473   C     0.95828   0.21371   0.52630   0.00000  Uiso   1.00
C474   C     0.75131   0.26660   0.51542   0.00000  Uiso   1.00
C475   C     0.54172   0.11962   0.47370   0.00000  Uiso   1.00
C476   C     0.96679   0.07262   0.45229   0.00000  Uiso   1.00
C477   C     0.53321   0.26071   0.54771   0.00000  Uiso   1.00
C478   C     0.93857   0.02143   0.43441   0.00000  Uiso   1.00
C479   C     0.90672   0.00793   0.47266   0.00000  Uiso   1.00
C480   C     0.87819   0.29502   0.45371   0.00000  Uiso   1.00
C481   C     0.88383   0.25950   0.39925   0.00000  Uiso   1.00
C482   C     0.91674   0.27123   0.36247   0.00000  Uiso   1.00
C483   C     0.94316   0.31912   0.37907   0.00000  Uiso   1.00
C484   C     0.56143   0.31190   0.56559   0.00000  Uiso   1.00
C485   C     0.51363   0.07320   0.45081   0.00000  Uiso   1.00
C486   C     0.55684   0.01421   0.62093   0.00000  Uiso   1.00
C487   C     0.58326   0.06211   0.63753   0.00000  Uiso   1.00
C488   C     0.61617   0.07384   0.60075   0.00000  Uiso   1.00
C489   C     0.62181   0.03831   0.54628   0.00000  Uiso   1.00
C490   C     0.59328   0.32540   0.52733   0.00000  Uiso   1.00
C491   C     0.98637   0.26014   0.54919   0.00000  Uiso   1.00
C492   C     0.74848   0.01110   0.47583   0.00000  Uiso   1.00
C493   C     0.75152   0.32223   0.52417   0.00000  Uiso   1.00
C494   C     0.66445   0.16474   0.50021   0.00000  Uiso   1.00
C495   C     0.83555   0.16859   0.49979   0.00000  Uiso   1.00
C496   C     0.91181   0.21347   0.52831   0.00000  Uiso   1.00
Cu497  Cu    0.75501   0.17246   0.56146   0.00000  Uiso   1.00
Cu498  Cu    0.74500   0.16087   0.43854   0.00000  Uiso   1.00
F499   F     0.74532   0.31583   0.41678   0.00000  Uiso   1.00
F500   F     0.75468   0.01750   0.58322   0.00000  Uiso   1.00
H501   H     0.89730   0.24832   0.55099   0.00000  Uiso   1.00
H502   H     0.85234   0.28618   0.48197   0.00000  Uiso   1.00
H503   H     0.86302   0.22271   0.38575   0.00000  Uiso   1.00
H504   H     0.92149   0.24333   0.65421   0.00000  Uiso   1.00
H505   H     0.96658   0.32867   0.34836   0.00000  Uiso   1.00
H506   H     0.53342   0.00467   0.65164   0.00000  Uiso   1.00
H507   H     0.57851   0.09000   0.34580   0.00000  Uiso   1.00
H508   H     0.63697   0.11062   0.61424   0.00000  Uiso   1.00
H509   H     0.64766   0.04716   0.51802   0.00000  Uiso   1.00
H510   H     0.59690   0.29947   0.48358   0.00000  Uiso   1.00
H511   H     0.60270   0.08501   0.44901   0.00000  Uiso   1.00
H512   H     0.87826   0.09067   0.44572   0.00000  Uiso   1.00
H513   H     0.62174   0.24267   0.55428   0.00000  Uiso   1.00
H514   H     0.52842   0.03697   0.43376   0.00000  Uiso   1.00
H515   H     0.97158   0.29636   0.56625   0.00000  Uiso   1.00
H516   H     0.71613   0.12383   0.64939   0.00000  Uiso   1.00
H517   H     0.78387   0.20950   0.35061   0.00000  Uiso   1.00
H518   H     0.90310   0.03387   0.51642   0.00000  Uiso   1.00
N519   N     0.73745   0.15214   0.34617   0.00000  Uiso   1.00
N520   N     0.76256   0.18119   0.65383   0.00000  Uiso   1.00
O521   O     0.75326   0.09538   0.53992   0.00000  Uiso   1.00
O522   O     0.74675   0.23796   0.46008   0.00000  Uiso   1.00
O523   O     0.74480   0.08559   0.43612   0.00000  Uiso   1.00
O524   O     0.75520   0.24774   0.56388   0.00000  Uiso   1.00
O525   O     0.68936   0.17155   0.55191   0.00000  Uiso   1.00
O526   O     0.81065   0.16179   0.44809   0.00000  Uiso   1.00
O527   O     0.68090   0.16176   0.44810   0.00000  Uiso   1.00
O528   O     0.81910   0.17157   0.55190   0.00000  Uiso   1.00
C529   C     0.24869   0.40007   0.48458   0.00000  Uiso   1.00
C530   C     0.08819   0.45319   0.47169   0.00000  Uiso   1.00
C531   C     0.38373   0.50222   0.49894   0.00000  Uiso   1.00
C532   C     0.11627   0.49778   0.50106   0.00000  Uiso   1.00
C533   C     0.40144   0.45691   0.46998   0.00000  Uiso   1.00
C534   C     0.09856   0.54309   0.53002   0.00000  Uiso   1.00
C535   C     0.44807   0.45382   0.47400   0.00000  Uiso   1.00
C536   C     0.05193   0.54618   0.52600   0.00000  Uiso   1.00
C537   C     0.47662   0.50021   0.50000   0.00000  Uiso   1.00
C538   C     0.02338   0.49979   0.50000   0.00000  Uiso   1.00
C539   C     0.45828   0.54705   0.52630   0.00000  Uiso   1.00
C540   C     0.25131   0.59993   0.51542   0.00000  Uiso   1.00
C541   C     0.04172   0.45295   0.47370   0.00000  Uiso   1.00
C542   C     0.46679   0.40595   0.45229   0.00000  Uiso   1.00
C543   C     0.03321   0.59405   0.54771   0.00000  Uiso   1.00
C544   C     0.43857   0.35477   0.43441   0.00000  Uiso   1.00
C545   C     0.40672   0.34126   0.47266   0.00000  Uiso   1.00
C546   C     0.37819   0.62835   0.45371   0.00000  Uiso   1.00
C547   C     0.38383   0.59283   0.39925   0.00000  Uiso   1.00
C548   C     0.41674   0.60456   0.36247   0.00000  Uiso   1.00
C549   C     0.44316   0.65246   0.37907   0.00000  Uiso   1.00
C550   C     0.06143   0.64523   0.56559   0.00000  Uiso   1.00
C551   C     0.01363   0.40653   0.45081   0.00000  Uiso   1.00
C552   C     0.05684   0.34754   0.62093   0.00000  Uiso   1.00
C553   C     0.08326   0.39544   0.63753   0.00000  Uiso   1.00
C554   C     0.11617   0.40717   0.60075   0.00000  Uiso   1.00
C555   C     0.12181   0.37165   0.54628   0.00000  Uiso   1.00
C556   C     0.09328   0.65874   0.52733   0.00000  Uiso   1.00
C557   C     0.48637   0.59347   0.54919   0.00000  Uiso   1.00
C558   C     0.24848   0.34443   0.47583   0.00000  Uiso   1.00
C559   C     0.25152   0.65557   0.52417   0.00000  Uiso   1.00
C560   C     0.16445   0.49807   0.50021   0.00000  Uiso   1.00
C561   C     0.33555   0.50193   0.49979   0.00000  Uiso   1.00
C562   C     0.41181   0.54681   0.52831   0.00000  Uiso   1.00
Cu563  Cu    0.25501   0.50579   0.56146   0.00000  Uiso   1.00
Cu564  Cu    0.24500   0.49421   0.43854   0.00000  Uiso   1.00
F565   F     0.24532   0.64917   0.41678   0.00000  Uiso   1.00
F566   F     0.25468   0.35083   0.58322   0.00000  Uiso   1.00
H567   H     0.39730   0.58166   0.55099   0.00000  Uiso   1.00
H568   H     0.35234   0.61951   0.48197   0.00000  Uiso   1.00
H569   H     0.36302   0.55605   0.38575   0.00000  Uiso   1.00
H570   H     0.42149   0.57667   0.65421   0.00000  Uiso   1.00
H571   H     0.46658   0.66200   0.34836   0.00000  Uiso   1.00
H572   H     0.03342   0.33800   0.65164   0.00000  Uiso   1.00
H573   H     0.07851   0.42333   0.34580   0.00000  Uiso   1.00
H574   H     0.13697   0.44396   0.61424   0.00000  Uiso   1.00
H575   H     0.14766   0.38049   0.51802   0.00000  Uiso   1.00
H576   H     0.09690   0.63280   0.48358   0.00000  Uiso   1.00
H577   H     0.10270   0.41834   0.44901   0.00000  Uiso   1.00
H578   H     0.37826   0.42400   0.44572   0.00000  Uiso   1.00
H579   H     0.12174   0.57600   0.55428   0.00000  Uiso   1.00
H580   H     0.02842   0.37031   0.43376   0.00000  Uiso   1.00
H581   H     0.47158   0.62969   0.56625   0.00000  Uiso   1.00
H582   H     0.21613   0.45717   0.64939   0.00000  Uiso   1.00
H583   H     0.28387   0.54283   0.35061   0.00000  Uiso   1.00
H584   H     0.40310   0.36720   0.51642   0.00000  Uiso   1.00
N585   N     0.23745   0.48547   0.34617   0.00000  Uiso   1.00
N586   N     0.26256   0.51453   0.65383   0.00000  Uiso   1.00
O587   O     0.25326   0.42871   0.53992   0.00000  Uiso   1.00
O588   O     0.24675   0.57129   0.46008   0.00000  Uiso   1.00
O589   O     0.24480   0.41892   0.43612   0.00000  Uiso   1.00
O590   O     0.25520   0.58108   0.56388   0.00000  Uiso   1.00
O591   O     0.18936   0.50488   0.55191   0.00000  Uiso   1.00
O592   O     0.31065   0.49512   0.44809   0.00000  Uiso   1.00
O593   O     0.18090   0.49510   0.44810   0.00000  Uiso   1.00
O594   O     0.31910   0.50490   0.55190   0.00000  Uiso   1.00
C595   C     0.74869   0.40007   0.48458   0.00000  Uiso   1.00
C596   C     0.58819   0.45319   0.47169   0.00000  Uiso   1.00
C597   C     0.88373   0.50222   0.49894   0.00000  Uiso   1.00
C598   C     0.61627   0.49778   0.50106   0.00000  Uiso   1.00
C599   C     0.90144   0.45691   0.46998   0.00000  Uiso   1.00
C600   C     0.59856   0.54309   0.53002   0.00000  Uiso   1.00
C601   C     0.94807   0.45382   0.47400   0.00000  Uiso   1.00
C602   C     0.55193   0.54618   0.52600   0.00000  Uiso   1.00
C603   C     0.97662   0.50021   0.50000   0.00000  Uiso   1.00
C604   C     0.52338   0.49979   0.50000   0.00000  Uiso   1.00
C605   C     0.95828   0.54705   0.52630   0.00000  Uiso   1.00
C606   C     0.75131   0.59993   0.51542   0.00000  Uiso   1.00
C607   C     0.54172   0.45295   0.47370   0.00000  Uiso   1.00
C608   C     0.96679   0.40595   0.45229   0.00000  Uiso   1.00
C609   C     0.53321   0.59405   0.54771   0.00000  Uiso   1.00
C610   C     0.93857   0.35477   0.43441   0.00000  Uiso   1.00
C611   C     0.90672   0.34126   0.47266   0.00000  Uiso   1.00
C612   C     0.87819   0.62835   0.45371   0.00000  Uiso   1.00
C613   C     0.88383   0.59283   0.39925   0.00000  Uiso   1.00
C614   C     0.91674   0.60456   0.36247   0.00000  Uiso   1.00
C615   C     0.94316   0.65246   0.37907   0.00000  Uiso   1.00
C616   C     0.56143   0.64523   0.56559   0.00000  Uiso   1.00
C617   C     0.51363   0.40653   0.45081   0.00000  Uiso   1.00
C618   C     0.55684   0.34754   0.62093   0.00000  Uiso   1.00
C619   C     0.58326   0.39544   0.63753   0.00000  Uiso   1.00
C620   C     0.61617   0.40717   0.60075   0.00000  Uiso   1.00
C621   C     0.62181   0.37165   0.54628   0.00000  Uiso   1.00
C622   C     0.59328   0.65874   0.52733   0.00000  Uiso   1.00
C623   C     0.98637   0.59347   0.54919   0.00000  Uiso   1.00
C624   C     0.74848   0.34443   0.47583   0.00000  Uiso   1.00
C625   C     0.75152   0.65557   0.52417   0.00000  Uiso   1.00
C626   C     0.66445   0.49807   0.50021   0.00000  Uiso   1.00
C627   C     0.83555   0.50193   0.49979   0.00000  Uiso   1.00
C628   C     0.91181   0.54681   0.52831   0.00000  Uiso   1.00
Cu629  Cu    0.75501   0.50579   0.56146   0.00000  Uiso   1.00
Cu630  Cu    0.74500   0.49421   0.43854   0.00000  Uiso   1.00
F631   F     0.74532   0.64917   0.41678   0.00000  Uiso   1.00
F632   F     0.75468   0.35083   0.58322   0.00000  Uiso   1.00
H633   H     0.89730   0.58166   0.55099   0.00000  Uiso   1.00
H634   H     0.85234   0.61951   0.48197   0.00000  Uiso   1.00
H635   H     0.86302   0.55605   0.38575   0.00000  Uiso   1.00
H636   H     0.92149   0.57667   0.65421   0.00000  Uiso   1.00
H637   H     0.96658   0.66200   0.34836   0.00000  Uiso   1.00
H638   H     0.53342   0.33800   0.65164   0.00000  Uiso   1.00
H639   H     0.57851   0.42333   0.34580   0.00000  Uiso   1.00
H640   H     0.63697   0.44396   0.61424   0.00000  Uiso   1.00
H641   H     0.64766   0.38049   0.51802   0.00000  Uiso   1.00
H642   H     0.59690   0.63280   0.48358   0.00000  Uiso   1.00
H643   H     0.60270   0.41834   0.44901   0.00000  Uiso   1.00
H644   H     0.87826   0.42400   0.44572   0.00000  Uiso   1.00
H645   H     0.62174   0.57600   0.55428   0.00000  Uiso   1.00
H646   H     0.52842   0.37031   0.43376   0.00000  Uiso   1.00
H647   H     0.97158   0.62969   0.56625   0.00000  Uiso   1.00
H648   H     0.71613   0.45717   0.64939   0.00000  Uiso   1.00
H649   H     0.78387   0.54283   0.35061   0.00000  Uiso   1.00
H650   H     0.90310   0.36720   0.51642   0.00000  Uiso   1.00
N651   N     0.73745   0.48547   0.34617   0.00000  Uiso   1.00
N652   N     0.76256   0.51453   0.65383   0.00000  Uiso   1.00
O653   O     0.75326   0.42871   0.53992   0.00000  Uiso   1.00
O654   O     0.74675   0.57129   0.46008   0.00000  Uiso   1.00
O655   O     0.74480   0.41892   0.43612   0.00000  Uiso   1.00
O656   O     0.75520   0.58108   0.56388   0.00000  Uiso   1.00
O657   O     0.68936   0.50488   0.55191   0.00000  Uiso   1.00
O658   O     0.81065   0.49512   0.44809   0.00000  Uiso   1.00
O659   O     0.68090   0.49510   0.44810   0.00000  Uiso   1.00
O660   O     0.81910   0.50490   0.55190   0.00000  Uiso   1.00
C661   C     0.24869   0.73340   0.48458   0.00000  Uiso   1.00
C662   C     0.08819   0.78653   0.47169   0.00000  Uiso   1.00
C663   C     0.38373   0.83555   0.49894   0.00000  Uiso   1.00
C664   C     0.11627   0.83111   0.50106   0.00000  Uiso   1.00
C665   C     0.40144   0.79024   0.46998   0.00000  Uiso   1.00
C666   C     0.09856   0.87642   0.53002   0.00000  Uiso   1.00
C667   C     0.44807   0.78716   0.47400   0.00000  Uiso   1.00
C668   C     0.05193   0.87951   0.52600   0.00000  Uiso   1.00
C669   C     0.47662   0.83355   0.50000   0.00000  Uiso   1.00
C670   C     0.02338   0.83312   0.50000   0.00000  Uiso   1.00
C671   C     0.45828   0.88038   0.52630   0.00000  Uiso   1.00
C672   C     0.25131   0.93326   0.51542   0.00000  Uiso   1.00
C673   C     0.04172   0.78629   0.47370   0.00000  Uiso   1.00
C674   C     0.46679   0.73929   0.45229   0.00000  Uiso   1.00
C675   C     0.03321   0.92738   0.54771   0.00000  Uiso   1.00
C676   C     0.43857   0.68810   0.43441   0.00000  Uiso   1.00
C677   C     0.40672   0.67460   0.47266   0.00000  Uiso   1.00
C678   C     0.37819   0.96169   0.45371   0.00000  Uiso   1.00
C679   C     0.38383   0.92616   0.39925   0.00000  Uiso   1.00
C680   C     0.41674   0.93789   0.36247   0.00000  Uiso   1.00
C681   C     0.44316   0.98579   0.37907   0.00000  Uiso   1.00
C682   C     0.06143   0.97857   0.56559   0.00000  Uiso   1.00
C683   C     0.01363   0.73986   0.45081   0.00000  Uiso   1.00
C684   C     0.05684   0.68088   0.62093   0.00000  Uiso   1.00
C685   C     0.08326   0.72877   0.63753   0.00000  Uiso   1.00
C686   C     0.11617   0.74050   0.60075   0.00000  Uiso   1.00
C687   C     0.12181   0.70498   0.54628   0.00000  Uiso   1.00
C688   C     0.09328   0.99207   0.52733   0.00000  Uiso   1.00
C689   C     0.48637   0.92680   0.54919   0.00000  Uiso   1.00
C690   C     0.24848   0.67777   0.47583   0.00000  Uiso   1.00
C691   C     0.25152   0.98890   0.52417   0.00000  Uiso   1.00
C692   C     0.16445   0.83141   0.50021   0.00000  Uiso   1.00
C693   C     0.33555   0.83526   0.49979   0.00000  Uiso   1.00
C694   C     0.41181   0.88014   0.52831   0.00000  Uiso   1.00
Cu695  Cu    0.25501   0.83913   0.56146   0.00000  Uiso   1.00
Cu696  Cu    0.24500   0.82754   0.43854   0.00000  Uiso   1.00
F697   F     0.24532   0.98250   0.41678   0.00000  Uiso   1.00
F698   F     0.25468   0.68417   0.58322   0.00000  Uiso   1.00
H699   H     0.39730   0.91499   0.55099   0.00000  Uiso   1.00
H700   H     0.35234   0.95284   0.48197   0.00000  Uiso   1.00
H701   H     0.36302   0.88938   0.38575   0.00000  Uiso   1.00
H702   H     0.42149   0.91000   0.65421   0.00000  Uiso   1.00
H703   H     0.46658   0.99533   0.34836   0.00000  Uiso   1.00
H704   H     0.03342   0.67133   0.65164   0.00000  Uiso   1.00
H705   H     0.07851   0.75667   0.34580   0.00000  Uiso   1.00
H706   H     0.13697   0.77729   0.61424   0.00000  Uiso   1.00
H707   H     0.14766   0.71382   0.51802   0.00000  Uiso   1.00
H708   H     0.09690   0.96613   0.48358   0.00000  Uiso   1.00
H709   H     0.10270   0.75168   0.44901   0.00000  Uiso   1.00
H710   H     0.37826   0.75733   0.44572   0.00000  Uiso   1.00
H711   H     0.12174   0.90933   0.55428   0.00000  Uiso   1.00
H712   H     0.02842   0.70364   0.43376   0.00000  Uiso   1.00
H713   H     0.47158   0.96303   0.56625   0.00000  Uiso   1.00
H714   H     0.21613   0.79050   0.64939   0.00000  Uiso   1.00
H715   H     0.28387   0.87617   0.35061   0.00000  Uiso   1.00
H716   H     0.40310   0.70053   0.51642   0.00000  Uiso   1.00
N717   N     0.23745   0.81881   0.34617   0.00000  Uiso   1.00
N718   N     0.26256   0.84786   0.65383   0.00000  Uiso   1.00
O719   O     0.25326   0.76204   0.53992   0.00000  Uiso   1.00
O720   O     0.24675   0.90462   0.46008   0.00000  Uiso   1.00
O721   O     0.24480   0.75226   0.43612   0.00000  Uiso   1.00
O722   O     0.25520   0.91441   0.56388   0.00000  Uiso   1.00
O723   O     0.18936   0.83821   0.55191   0.00000  Uiso   1.00
O724   O     0.31065   0.82845   0.44809   0.00000  Uiso   1.00
O725   O     0.18090   0.82843   0.44810   0.00000  Uiso   1.00
O726   O     0.31910   0.83824   0.55190   0.00000  Uiso   1.00
C727   C     0.74869   0.73340   0.48458   0.00000  Uiso   1.00
C728   C     0.58819   0.78653   0.47169   0.00000  Uiso   1.00
C729   C     0.88373   0.83555   0.49894   0.00000  Uiso   1.00
C730   C     0.61627   0.83111   0.50106   0.00000  Uiso   1.00
C731   C     0.90144   0.79024   0.46998   0.00000  Uiso   1.00
C732   C     0.59856   0.87642   0.53002   0.00000  Uiso   1.00
C733   C     0.94807   0.78716   0.47400   0.00000  Uiso   1.00
C734   C     0.55193   0.87951   0.52600   0.00000  Uiso   1.00
C735   C     0.97662   0.83355   0.50000   0.00000  Uiso   1.00
C736   C     0.52338   0.83312   0.50000   0.00000  Uiso   1.00
C737   C     0.95828   0.88038   0.52630   0.00000  Uiso   1.00
C738   C     0.75131   0.93326   0.51542   0.00000  Uiso   1.00
C739   C     0.54172   0.78629   0.47370   0.00000  Uiso   1.00
C740   C     0.96679   0.73929   0.45229   0.00000  Uiso   1.00
C741   C     0.53321   0.92738   0.54771   0.00000  Uiso   1.00
C742   C     0.93857   0.68810   0.43441   0.00000  Uiso   1.00
C743   C     0.90672   0.67460   0.47266   0.00000  Uiso   1.00
C744   C     0.87819   0.96169   0.45371   0.00000  Uiso   1.00
C745   C     0.88383   0.92616   0.39925   0.00000  Uiso   1.00
C746   C     0.91674   0.93789   0.36247   0.00000  Uiso   1.00
C747   C     0.94316   0.98579   0.37907   0.00000  Uiso   1.00
C748   C     0.56143   0.97857   0.56559   0.00000  Uiso   1.00
C749   C     0.51363   0.73986   0.45081   0.00000  Uiso   1.00
C750   C     0.55684   0.68088   0.62093   0.00000  Uiso   1.00
C751   C     0.58326   0.72877   0.63753   0.00000  Uiso   1.00
C752   C     0.61617   0.74050   0.60075   0.00000  Uiso   1.00
C753   C     0.62181   0.70498   0.54628   0.00000  Uiso   1.00
C754   C     0.59328   0.99207   0.52733   0.00000  Uiso   1.00
C755   C     0.98637   0.92680   0.54919   0.00000  Uiso   1.00
C756   C     0.74848   0.67777   0.47583   0.00000  Uiso   1.00
C757   C     0.75152   0.98890   0.52417   0.00000  Uiso   1.00
C758   C     0.66445   0.83141   0.50021   0.00000  Uiso   1.00
C759   C     0.83555   0.83526   0.49979   0.00000  Uiso   1.00
C760   C     0.91181   0.88014   0.52831   0.00000  Uiso   1.00
Cu761  Cu    0.75501   0.83913   0.56146   0.00000  Uiso   1.00
Cu762  Cu    0.74500   0.82754   0.43854   0.00000  Uiso   1.00
F763   F     0.74532   0.98250   0.41678   0.00000  Uiso   1.00
F764   F     0.75468   0.68417   0.58322   0.00000  Uiso   1.00
H765   H     0.89730   0.91499   0.55099   0.00000  Uiso   1.00
H766   H     0.85234   0.95284   0.48197   0.00000  Uiso   1.00
H767   H     0.86302   0.88938   0.38575   0.00000  Uiso   1.00
H768   H     0.92149   0.91000   0.65421   0.00000  Uiso   1.00
H769   H     0.96658   0.99533   0.34836   0.00000  Uiso   1.00
H770   H     0.53342   0.67133   0.65164   0.00000  Uiso   1.00
H771   H     0.57851   0.75667   0.34580   0.00000  Uiso   1.00
H772   H     0.63697   0.77729   0.61424   0.00000  Uiso   1.00
H773   H     0.64766   0.71382   0.51802   0.00000  Uiso   1.00
H774   H     0.59690   0.96613   0.48358   0.00000  Uiso   1.00
H775   H     0.60270   0.75168   0.44901   0.00000  Uiso   1.00
H776   H     0.87826   0.75733   0.44572   0.00000  Uiso   1.00
H777   H     0.62174   0.90933   0.55428   0.00000  Uiso   1.00
H778   H     0.52842   0.70364   0.43376   0.00000  Uiso   1.00
H779   H     0.97158   0.96303   0.56625   0.00000  Uiso   1.00
H780   H     0.71613   0.79050   0.64939   0.00000  Uiso   1.00
H781   H     0.78387   0.87617   0.35061   0.00000  Uiso   1.00
H782   H     0.90310   0.70053   0.51642   0.00000  Uiso   1.00
N783   N     0.73745   0.81881   0.34617   0.00000  Uiso   1.00
N784   N     0.76256   0.84786   0.65383   0.00000  Uiso   1.00
O785   O     0.75326   0.76204   0.53992   0.00000  Uiso   1.00
O786   O     0.74675   0.90462   0.46008   0.00000  Uiso   1.00
O787   O     0.74480   0.75226   0.43612   0.00000  Uiso   1.00
O788   O     0.75520   0.91441   0.56388   0.00000  Uiso   1.00
O789   O     0.68936   0.83821   0.55191   0.00000  Uiso   1.00
O790   O     0.81065   0.82845   0.44809   0.00000  Uiso   1.00
O791   O     0.68090   0.82843   0.44810   0.00000  Uiso   1.00
O792   O     0.81910   0.83824   0.55190   0.00000  Uiso   1.00
C793   C     0.24869   0.06674   0.81791   0.00000  Uiso   1.00
C794   C     0.08819   0.11986   0.80502   0.00000  Uiso   1.00
C795   C     0.38373   0.16889   0.83227   0.00000  Uiso   1.00
C796   C     0.11627   0.16445   0.83440   0.00000  Uiso   1.00
C797   C     0.40144   0.12358   0.80331   0.00000  Uiso   1.00
C798   C     0.09856   0.20976   0.86335   0.00000  Uiso   1.00
C799   C     0.44807   0.12049   0.80733   0.00000  Uiso   1.00
C800   C     0.05193   0.21284   0.85934   0.00000  Uiso   1.00
C801   C     0.47662   0.16688   0.83333   0.00000  Uiso   1.00
C802   C     0.02338   0.16645   0.83334   0.00000  Uiso   1.00
C803   C     0.45828   0.21371   0.85964   0.00000  Uiso   1.00
C804   C     0.25131   0.26660   0.84875   0.00000  Uiso   1.00
C805   C     0.04172   0.11962   0.80703   0.00000  Uiso   1.00
C806   C     0.46679   0.07262   0.78562   0.00000  Uiso   1.00
C807   C     0.03321   0.26071   0.88105   0.00000  Uiso   1.00
C808   C     0.43857   0.02143   0.76774   0.00000  Uiso   1.00
C809   C     0.40672   0.00793   0.80600   0.00000  Uiso   1.00
C810   C     0.37819   0.29502   0.78705   0.00000  Uiso   1.00
C811   C     0.38383   0.25950   0.73259   0.00000  Uiso   1.00
C812   C     0.41674   0.27123   0.69581   0.00000  Uiso   1.00
C813   C     0.44316   0.31912   0.71241   0.00000  Uiso   1.00
C814   C     0.06143   0.31190   0.89892   0.00000  Uiso   1.00
C815   C     0.01363   0.07320   0.78414   0.00000  Uiso   1.00
C816   C     0.05684   0.01421   0.95426   0.00000  Uiso   1.00
C817   C     0.08326   0.06211   0.97086   0.00000  Uiso   1.00
C818   C     0.11617   0.07384   0.93408   0.00000  Uiso   1.00
C819   C     0.12181   0.03831   0.87962   0.00000  Uiso   1.00
C820   C     0.09328   0.32540   0.86067   0.00000  Uiso   1.00
C821   C     0.48637   0.26014   0.88253   0.00000  Uiso   1.00
C822   C     0.24848   0.01110   0.80916   0.00000  Uiso   1.00
C823   C     0.25152   0.32223   0.85751   0.00000  Uiso   1.00
C824   C     0.16445   0.16474   0.83354   0.00000  Uiso   1.00
C825   C     0.33555   0.16859   0.83313   0.00000  Uiso   1.00
C826   C     0.41181   0.21347   0.86165   0.00000  Uiso   1.00
Cu827  Cu    0.25501   0.17246   0.89479   0.00000  Uiso   1.00
Cu828  Cu    0.24500   0.16087   0.77187   0.00000  Uiso   1.00
F829   F     0.24532   0.31583   0.75011   0.00000  Uiso   1.00
F830   F     0.25468   0.01750   0.91656   0.00000  Uiso   1.00
H831   H     0.39730   0.24832   0.88433   0.00000  Uiso   1.00
H832   H     0.35234   0.28618   0.81531   0.00000  Uiso   1.00
H833   H     0.36302   0.22271   0.71909   0.00000  Uiso   1.00
H834   H     0.42149   0.24333   0.98754   0.00000  Uiso   1.00
H835   H     0.46658   0.32867   0.68169   0.00000  Uiso   1.00
H836   H     0.03342   0.00467   0.98498   0.00000  Uiso   1.00
H837   H     0.07851   0.09000   0.67913   0.00000  Uiso   1.00
H838   H     0.13697   0.11062   0.94758   0.00000  Uiso   1.00
H839   H     0.14766   0.04716   0.85136   0.00000  Uiso   1.00
H840   H     0.09690   0.29947   0.81691   0.00000  Uiso   1.00
H841   H     0.10270   0.08501   0.78234   0.00000  Uiso   1.00
H842   H     0.37826   0.09067   0.77905   0.00000  Uiso   1.00
H843   H     0.12174   0.24267   0.88762   0.00000  Uiso   1.00
H844   H     0.02842   0.03697   0.76709   0.00000  Uiso   1.00
H845   H     0.47158   0.29636   0.89958   0.00000  Uiso   1.00
H846   H     0.21613   0.12383   0.98272   0.00000  Uiso   1.00
H847   H     0.28387   0.20950   0.68394   0.00000  Uiso   1.00
H848   H     0.40310   0.03387   0.84976   0.00000  Uiso   1.00
N849   N     0.23745   0.15214   0.67951   0.00000  Uiso   1.00
N850   N     0.26256   0.18119   0.98716   0.00000  Uiso   1.00
O851   O     0.25326   0.09538   0.87326   0.00000  Uiso   1.00
O852   O     0.24675   0.23796   0.79341   0.00000  Uiso   1.00
O853   O     0.24480   0.08559   0.76945   0.00000  Uiso   1.00
O854   O     0.25520   0.24774   0.89721   0.00000  Uiso   1.00
O855   O     0.18936   0.17155   0.88524   0.00000  Uiso   1.00
O856   O     0.31065   0.16179   0.78143   0.00000  Uiso   1.00
O857   O     0.18090   0.16176   0.78143   0.00000  Uiso   1.00
O858   O     0.31910   0.17157   0.88523   0.00000  Uiso   1.00
C859   C     0.74869   0.06674   0.81791   0.00000  Uiso   1.00
C860   C     0.58819   0.11986   0.80502   0.00000  Uiso   1.00
C861   C     0.88373   0.16889   0.83227   0.00000  Uiso   1.00
C862   C     0.61627   0.16445   0.83440   0.00000  Uiso   1.00
C863   C     0.90144   0.12358   0.80331   0.00000  Uiso   1.00
C864   C     0.59856   0.20976   0.86335   0.00000  Uiso   1.00
C865   C     0.94807   0.12049   0.80733   0.00000  Uiso   1.00
C866   C     0.55193   0.21284   0.85934   0.00000  Uiso   1.00
C867   C     0.97662   0.16688   0.83333   0.00000  Uiso   1.00
C868   C     0.52338   0.16645   0.83334   0.00000  Uiso   1.00
C869   C     0.95828   0.21371   0.85964   0.00000  Uiso   1.00
C870   C     0.75131   0.26660   0.84875   0.00000  Uiso   1.00
C871   C     0.54172   0.11962   0.80703   0.00000  Uiso   1.00
C872   C     0.96679   0.07262   0.78562   0.00000  Uiso   1.00
C873   C     0.53321   0.26071   0.88105   0.00000  Uiso   1.00
C874   C     0.93857   0.02143   0.76774   0.00000  Uiso   1.00
C875   C     0.90672   0.00793   0.80600   0.00000  Uiso   1.00
C876   C     0.87819   0.29502   0.78705   0.00000  Uiso   1.00
C877   C     0.88383   0.25950   0.73259   0.00000  Uiso   1.00
C878   C     0.91674   0.27123   0.69581   0.00000  Uiso   1.00
C879   C     0.94316   0.31912   0.71241   0.00000  Uiso   1.00
C880   C     0.56143   0.31190   0.89892   0.00000  Uiso   1.00
C881   C     0.51363   0.07320   0.78414   0.00000  Uiso   1.00
C882   C     0.55684   0.01421   0.95426   0.00000  Uiso   1.00
C883   C     0.58326   0.06211   0.97086   0.00000  Uiso   1.00
C884   C     0.61617   0.07384   0.93408   0.00000  Uiso   1.00
C885   C     0.62181   0.03831   0.87962   0.00000  Uiso   1.00
C886   C     0.59328   0.32540   0.86067   0.00000  Uiso   1.00
C887   C     0.98637   0.26014   0.88253   0.00000  Uiso   1.00
C888   C     0.74848   0.01110   0.80916   0.00000  Uiso   1.00
C889   C     0.75152   0.32223   0.85751   0.00000  Uiso   1.00
C890   C     0.66445   0.16474   0.83354   0.00000  Uiso   1.00
C891   C     0.83555   0.16859   0.83313   0.00000  Uiso   1.00
C892   C     0.91181   0.21347   0.86165   0.00000  Uiso   1.00
Cu893  Cu    0.75501   0.17246   0.89479   0.00000  Uiso   1.00
Cu894  Cu    0.74500   0.16087   0.77187   0.00000  Uiso   1.00
F895   F     0.74532   0.31583   0.75011   0.00000  Uiso   1.00
F896   F     0.75468   0.01750   0.91656   0.00000  Uiso   1.00
H897   H     0.89730   0.24832   0.88433   0.00000  Uiso   1.00
H898   H     0.85234   0.28618   0.81531   0.00000  Uiso   1.00
H899   H     0.86302   0.22271   0.71909   0.00000  Uiso   1.00
H900   H     0.92149   0.24333   0.98754   0.00000  Uiso   1.00
H901   H     0.96658   0.32867   0.68169   0.00000  Uiso   1.00
H902   H     0.53342   0.00467   0.98498   0.00000  Uiso   1.00
H903   H     0.57851   0.09000   0.67913   0.00000  Uiso   1.00
H904   H     0.63697   0.11062   0.94758   0.00000  Uiso   1.00
H905   H     0.64766   0.04716   0.85136   0.00000  Uiso   1.00
H906   H     0.59690   0.29947   0.81691   0.00000  Uiso   1.00
H907   H     0.60270   0.08501   0.78234   0.00000  Uiso   1.00
H908   H     0.87826   0.09067   0.77905   0.00000  Uiso   1.00
H909   H     0.62174   0.24267   0.88762   0.00000  Uiso   1.00
H910   H     0.52842   0.03697   0.76709   0.00000  Uiso   1.00
H911   H     0.97158   0.29636   0.89958   0.00000  Uiso   1.00
H912   H     0.71613   0.12383   0.98272   0.00000  Uiso   1.00
H913   H     0.78387   0.20950   0.68394   0.00000  Uiso   1.00
H914   H     0.90310   0.03387   0.84976   0.00000  Uiso   1.00
N915   N     0.73745   0.15214   0.67951   0.00000  Uiso   1.00
N916   N     0.76256   0.18119   0.98716   0.00000  Uiso   1.00
O917   O     0.75326   0.09538   0.87326   0.00000  Uiso   1.00
O918   O     0.74675   0.23796   0.79341   0.00000  Uiso   1.00
O919   O     0.74480   0.08559   0.76945   0.00000  Uiso   1.00
O920   O     0.75520   0.24774   0.89721   0.00000  Uiso   1.00
O921   O     0.68936   0.17155   0.88524   0.00000  Uiso   1.00
O922   O     0.81065   0.16179   0.78143   0.00000  Uiso   1.00
O923   O     0.68090   0.16176   0.78143   0.00000  Uiso   1.00
O924   O     0.81910   0.17157   0.88523   0.00000  Uiso   1.00
C925   C     0.24869   0.40007   0.81791   0.00000  Uiso   1.00
C926   C     0.08819   0.45319   0.80502   0.00000  Uiso   1.00
C927   C     0.38373   0.50222   0.83227   0.00000  Uiso   1.00
C928   C     0.11627   0.49778   0.83440   0.00000  Uiso   1.00
C929   C     0.40144   0.45691   0.80331   0.00000  Uiso   1.00
C930   C     0.09856   0.54309   0.86335   0.00000  Uiso   1.00
C931   C     0.44807   0.45382   0.80733   0.00000  Uiso   1.00
C932   C     0.05193   0.54618   0.85934   0.00000  Uiso   1.00
C933   C     0.47662   0.50021   0.83333   0.00000  Uiso   1.00
C934   C     0.02338   0.49979   0.83334   0.00000  Uiso   1.00
C935   C     0.45828   0.54705   0.85964   0.00000  Uiso   1.00
C936   C     0.25131   0.59993   0.84875   0.00000  Uiso   1.00
C937   C     0.04172   0.45295   0.80703   0.00000  Uiso   1.00
C938   C     0.46679   0.40595   0.78562   0.00000  Uiso   1.00
C939   C     0.03321   0.59405   0.88105   0.00000  Uiso   1.00
C940   C     0.43857   0.35477   0.76774   0.00000  Uiso   1.00
C941   C     0.40672   0.34126   0.80600   0.00000  Uiso   1.00
C942   C     0.37819   0.62835   0.78705   0.00000  Uiso   1.00
C943   C     0.38383   0.59283   0.73259   0.00000  Uiso   1.00
C944   C     0.41674   0.60456   0.69581   0.00000  Uiso   1.00
C945   C     0.44316   0.65246   0.71241   0.00000  Uiso   1.00
C946   C     0.06143   0.64523   0.89892   0.00000  Uiso   1.00
C947   C     0.01363   0.40653   0.78414   0.00000  Uiso   1.00
C948   C     0.05684   0.34754   0.95426   0.00000  Uiso   1.00
C949   C     0.08326   0.39544   0.97086   0.00000  Uiso   1.00
C950   C     0.11617   0.40717   0.93408   0.00000  Uiso   1.00
C951   C     0.12181   0.37165   0.87962   0.00000  Uiso   1.00
C952   C     0.09328   0.65874   0.86067   0.00000  Uiso   1.00
C953   C     0.48637   0.59347   0.88253   0.00000  Uiso   1.00
C954   C     0.24848   0.34443   0.80916   0.00000  Uiso   1.00
C955   C     0.25152   0.65557   0.85751   0.00000  Uiso   1.00
C956   C     0.16445   0.49807   0.83354   0.00000  Uiso   1.00
C957   C     0.33555   0.50193   0.83313   0.00000  Uiso   1.00
C958   C     0.41181   0.54681   0.86165   0.00000  Uiso   1.00
Cu959  Cu    0.25501   0.50579   0.89479   0.00000  Uiso   1.00
Cu960  Cu    0.24500   0.49421   0.77187   0.00000  Uiso   1.00
F961   F     0.24532   0.64917   0.75011   0.00000  Uiso   1.00
F962   F     0.25468   0.35083   0.91656   0.00000  Uiso   1.00
H963   H     0.39730   0.58166   0.88433   0.00000  Uiso   1.00
H964   H     0.35234   0.61951   0.81531   0.00000  Uiso   1.00
H965   H     0.36302   0.55605   0.71909   0.00000  Uiso   1.00
H966   H     0.42149   0.57667   0.98754   0.00000  Uiso   1.00
H967   H     0.46658   0.66200   0.68169   0.00000  Uiso   1.00
H968   H     0.03342   0.33800   0.98498   0.00000  Uiso   1.00
H969   H     0.07851   0.42333   0.67913   0.00000  Uiso   1.00
H970   H     0.13697   0.44396   0.94758   0.00000  Uiso   1.00
H971   H     0.14766   0.38049   0.85136   0.00000  Uiso   1.00
H972   H     0.09690   0.63280   0.81691   0.00000  Uiso   1.00
H973   H     0.10270   0.41834   0.78234   0.00000  Uiso   1.00
H974   H     0.37826   0.42400   0.77905   0.00000  Uiso   1.00
H975   H     0.12174   0.57600   0.88762   0.00000  Uiso   1.00
H976   H     0.02842   0.37031   0.76709   0.00000  Uiso   1.00
H977   H     0.47158   0.62969   0.89958   0.00000  Uiso   1.00
H978   H     0.21613   0.45717   0.98272   0.00000  Uiso   1.00
H979   H     0.28387   0.54283   0.68394   0.00000  Uiso   1.00
H980   H     0.40310   0.36720   0.84976   0.00000  Uiso   1.00
N981   N     0.23745   0.48547   0.67951   0.00000  Uiso   1.00
N982   N     0.26256   0.51453   0.98716   0.00000  Uiso   1.00
O983   O     0.25326   0.42871   0.87326   0.00000  Uiso   1.00
O984   O     0.24675   0.57129   0.79341   0.00000  Uiso   1.00
O985   O     0.24480   0.41892   0.76945   0.00000  Uiso   1.00
O986   O     0.25520   0.58108   0.89721   0.00000  Uiso   1.00
O987   O     0.18936   0.50488   0.88524   0.00000  Uiso   1.00
O988   O     0.31065   0.49512   0.78143   0.00000  Uiso   1.00
O989   O     0.18090   0.49510   0.78143   0.00000  Uiso   1.00
O990   O     0.31910   0.50490   0.88523   0.00000  Uiso   1.00
C991   C     0.74869   0.40007   0.81791   0.00000  Uiso   1.00
C992   C     0.58819   0.45319   0.80502   0.00000  Uiso   1.00
C993   C     0.88373   0.50222   0.83227   0.00000  Uiso   1.00
C994   C     0.61627   0.49778   0.83440   0.00000  Uiso   1.00
C995   C     0.90144   0.45691   0.80331   0.00000  Uiso   1.00
C996   C     0.59856   0.54309   0.86335   0.00000  Uiso   1.00
C997   C     0.94807   0.45382   0.80733   0.00000  Uiso   1.00
C998   C     0.55193   0.54618   0.85934   0.00000  Uiso   1.00
C999   C     0.97662   0.50021   0.83333   0.00000  Uiso   1.00
C1000  C     0.52338   0.49979   0.83334   0.00000  Uiso   1.00
C1001  C     0.95828   0.54705   0.85964   0.00000  Uiso   1.00
C1002  C     0.75131   0.59993   0.84875   0.00000  Uiso   1.00
C1003  C     0.54172   0.45295   0.80703   0.00000  Uiso   1.00
C1004  C     0.96679   0.40595   0.78562   0.00000  Uiso   1.00
C1005  C     0.53321   0.59405   0.88105   0.00000  Uiso   1.00
C1006  C     0.93857   0.35477   0.76774   0.00000  Uiso   1.00
C1007  C     0.90672   0.34126   0.80600   0.00000  Uiso   1.00
C1008  C     0.87819   0.62835   0.78705   0.00000  Uiso   1.00
C1009  C     0.88383   0.59283   0.73259   0.00000  Uiso   1.00
C1010  C     0.91674   0.60456   0.69581   0.00000  Uiso   1.00
C1011  C     0.94316   0.65246   0.71241   0.00000  Uiso   1.00
C1012  C     0.56143   0.64523   0.89892   0.00000  Uiso   1.00
C1013  C     0.51363   0.40653   0.78414   0.00000  Uiso   1.00
C1014  C     0.55684   0.34754   0.95426   0.00000  Uiso   1.00
C1015  C     0.58326   0.39544   0.97086   0.00000  Uiso   1.00
C1016  C     0.61617   0.40717   0.93408   0.00000  Uiso   1.00
C1017  C     0.62181   0.37165   0.87962   0.00000  Uiso   1.00
C1018  C     0.59328   0.65874   0.86067   0.00000  Uiso   1.00
C1019  C     0.98637   0.59347   0.88253   0.00000  Uiso   1.00
C1020  C     0.74848   0.34443   0.80916   0.00000  Uiso   1.00
C1021  C     0.75152   0.65557   0.85751   0.00000  Uiso   1.00
C1022  C     0.66445   0.49807   0.83354   0.00000  Uiso   1.00
C1023  C     0.83555   0.50193   0.83313   0.00000  Uiso   1.00
C1024  C     0.91181   0.54681   0.86165   0.00000  Uiso   1.00
Cu1025 Cu    0.75501   0.50579   0.89479   0.00000  Uiso   1.00
Cu1026 Cu    0.74500   0.49421   0.77187   0.00000  Uiso   1.00
F1027  F     0.74532   0.64917   0.75011   0.00000  Uiso   1.00
F1028  F     0.75468   0.35083   0.91656   0.00000  Uiso   1.00
H1029  H     0.89730   0.58166   0.88433   0.00000  Uiso   1.00
H1030  H     0.85234   0.61951   0.81531   0.00000  Uiso   1.00
H1031  H     0.86302   0.55605   0.71909   0.00000  Uiso   1.00
H1032  H     0.92149   0.57667   0.98754   0.00000  Uiso   1.00
H1033  H     0.96658   0.66200   0.68169   0.00000  Uiso   1.00
H1034  H     0.53342   0.33800   0.98498   0.00000  Uiso   1.00
H1035  H     0.57851   0.42333   0.67913   0.00000  Uiso   1.00
H1036  H     0.63697   0.44396   0.94758   0.00000  Uiso   1.00
H1037  H     0.64766   0.38049   0.85136   0.00000  Uiso   1.00
H1038  H     0.59690   0.63280   0.81691   0.00000  Uiso   1.00
H1039  H     0.60270   0.41834   0.78234   0.00000  Uiso   1.00
H1040  H     0.87826   0.42400   0.77905   0.00000  Uiso   1.00
H1041  H     0.62174   0.57600   0.88762   0.00000  Uiso   1.00
H1042  H     0.52842   0.37031   0.76709   0.00000  Uiso   1.00
H1043  H     0.97158   0.62969   0.89958   0.00000  Uiso   1.00
H1044  H     0.71613   0.45717   0.98272   0.00000  Uiso   1.00
H1045  H     0.78387   0.54283   0.68394   0.00000  Uiso   1.00
H1046  H     0.90310   0.36720   0.84976   0.00000  Uiso   1.00
N1047  N     0.73745   0.48547   0.67951   0.00000  Uiso   1.00
N1048  N     0.76256   0.51453   0.98716   0.00000  Uiso   1.00
O1049  O     0.75326   0.42871   0.87326   0.00000  Uiso   1.00
O1050  O     0.74675   0.57129   0.79341   0.00000  Uiso   1.00
O1051  O     0.74480   0.41892   0.76945   0.00000  Uiso   1.00
O1052  O     0.75520   0.58108   0.89721   0.00000  Uiso   1.00
O1053  O     0.68936   0.50488   0.88524   0.00000  Uiso   1.00
O1054  O     0.81065   0.49512   0.78143   0.00000  Uiso   1.00
O1055  O     0.68090   0.49510   0.78143   0.00000  Uiso   1.00
O1056  O     0.81910   0.50490   0.88523   0.00000  Uiso   1.00
C1057  C     0.24869   0.73340   0.81791   0.00000  Uiso   1.00
C1058  C     0.08819   0.78653   0.80502   0.00000  Uiso   1.00
C1059  C     0.38373   0.83555   0.83227   0.00000  Uiso   1.00
C1060  C     0.11627   0.83111   0.83440   0.00000  Uiso   1.00
C1061  C     0.40144   0.79024   0.80331   0.00000  Uiso   1.00
C1062  C     0.09856   0.87642   0.86335   0.00000  Uiso   1.00
C1063  C     0.44807   0.78716   0.80733   0.00000  Uiso   1.00
C1064  C     0.05193   0.87951   0.85934   0.00000  Uiso   1.00
C1065  C     0.47662   0.83355   0.83333   0.00000  Uiso   1.00
C1066  C     0.02338   0.83312   0.83334   0.00000  Uiso   1.00
C1067  C     0.45828   0.88038   0.85964   0.00000  Uiso   1.00
C1068  C     0.25131   0.93326   0.84875   0.00000  Uiso   1.00
C1069  C     0.04172   0.78629   0.80703   0.00000  Uiso   1.00
C1070  C     0.46679   0.73929   0.78562   0.00000  Uiso   1.00
C1071  C     0.03321   0.92738   0.88105   0.00000  Uiso   1.00
C1072  C     0.43857   0.68810   0.76774   0.00000  Uiso   1.00
C1073  C     0.40672   0.67460   0.80600   0.00000  Uiso   1.00
C1074  C     0.37819   0.96169   0.78705   0.00000  Uiso   1.00
C1075  C     0.38383   0.92616   0.73259   0.00000  Uiso   1.00
C1076  C     0.41674   0.93789   0.69581   0.00000  Uiso   1.00
C1077  C     0.44316   0.98579   0.71241   0.00000  Uiso   1.00
C1078  C     0.06143   0.97857   0.89892   0.00000  Uiso   1.00
C1079  C     0.01363   0.73986   0.78414   0.00000  Uiso   1.00
C1080  C     0.05684   0.68088   0.95426   0.00000  Uiso   1.00
C1081  C     0.08326   0.72877   0.97086   0.00000  Uiso   1.00
C1082  C     0.11617   0.74050   0.93408   0.00000  Uiso   1.00
C1083  C     0.12181   0.70498   0.87962   0.00000  Uiso   1.00
C1084  C     0.09328   0.99207   0.86067   0.00000  Uiso   1.00
C1085  C     0.48637   0.92680   0.88253   0.00000  Uiso   1.00
C1086  C     0.24848   0.67777   0.80916   0.00000  Uiso   1.00
C1087  C     0.25152   0.98890   0.85751   0.00000  Uiso   1.00
C1088  C     0.16445   0.83141   0.83354   0.00000  Uiso   1.00
C1089  C     0.33555   0.83526   0.83313   0.00000  Uiso   1.00
C1090  C     0.41181   0.88014   0.86165   0.00000  Uiso   1.00
Cu1091 Cu    0.25501   0.83913   0.89479   0.00000  Uiso   1.00
Cu1092 Cu    0.24500   0.82754   0.77187   0.00000  Uiso   1.00
F1093  F     0.24532   0.98250   0.75011   0.00000  Uiso   1.00
F1094  F     0.25468   0.68417   0.91656   0.00000  Uiso   1.00
H1095  H     0.39730   0.91499   0.88433   0.00000  Uiso   1.00
H1096  H     0.35234   0.95284   0.81531   0.00000  Uiso   1.00
H1097  H     0.36302   0.88938   0.71909   0.00000  Uiso   1.00
H1098  H     0.42149   0.91000   0.98754   0.00000  Uiso   1.00
H1099  H     0.46658   0.99533   0.68169   0.00000  Uiso   1.00
H1100  H     0.03342   0.67133   0.98498   0.00000  Uiso   1.00
H1101  H     0.07851   0.75667   0.67913   0.00000  Uiso   1.00
H1102  H     0.13697   0.77729   0.94758   0.00000  Uiso   1.00
H1103  H     0.14766   0.71382   0.85136   0.00000  Uiso   1.00
H1104  H     0.09690   0.96613   0.81691   0.00000  Uiso   1.00
H1105  H     0.10270   0.75168   0.78234   0.00000  Uiso   1.00
H1106  H     0.37826   0.75733   0.77905   0.00000  Uiso   1.00
H1107  H     0.12174   0.90933   0.88762   0.00000  Uiso   1.00
H1108  H     0.02842   0.70364   0.76709   0.00000  Uiso   1.00
H1109  H     0.47158   0.96303   0.89958   0.00000  Uiso   1.00
H1110  H     0.21613   0.79050   0.98272   0.00000  Uiso   1.00
H1111  H     0.28387   0.87617   0.68394   0.00000  Uiso   1.00
H1112  H     0.40310   0.70053   0.84976   0.00000  Uiso   1.00
N1113  N     0.23745   0.81881   0.67951   0.00000  Uiso   1.00
N1114  N     0.26256   0.84786   0.98716   0.00000  Uiso   1.00
O1115  O     0.25326   0.76204   0.87326   0.00000  Uiso   1.00
O1116  O     0.24675   0.90462   0.79341   0.00000  Uiso   1.00
O1117  O     0.24480   0.75226   0.76945   0.00000  Uiso   1.00
O1118  O     0.25520   0.91441   0.89721   0.00000  Uiso   1.00
O1119  O     0.18936   0.83821   0.88524   0.00000  Uiso   1.00
O1120  O     0.31065   0.82845   0.78143   0.00000  Uiso   1.00
O1121  O     0.18090   0.82843   0.78143   0.00000  Uiso   1.00
O1122  O     0.31910   0.83824   0.88523   0.00000  Uiso   1.00
C1123  C     0.74869   0.73340   0.81791   0.00000  Uiso   1.00
C1124  C     0.58819   0.78653   0.80502   0.00000  Uiso   1.00
C1125  C     0.88373   0.83555   0.83227   0.00000  Uiso   1.00
C1126  C     0.61627   0.83111   0.83440   0.00000  Uiso   1.00
C1127  C     0.90144   0.79024   0.80331   0.00000  Uiso   1.00
C1128  C     0.59856   0.87642   0.86335   0.00000  Uiso   1.00
C1129  C     0.94807   0.78716   0.80733   0.00000  Uiso   1.00
C1130  C     0.55193   0.87951   0.85934   0.00000  Uiso   1.00
C1131  C     0.97662   0.83355   0.83333   0.00000  Uiso   1.00
C1132  C     0.52338   0.83312   0.83334   0.00000  Uiso   1.00
C1133  C     0.95828   0.88038   0.85964   0.00000  Uiso   1.00
C1134  C     0.75131   0.93326   0.84875   0.00000  Uiso   1.00
C1135  C     0.54172   0.78629   0.80703   0.00000  Uiso   1.00
C1136  C     0.96679   0.73929   0.78562   0.00000  Uiso   1.00
C1137  C     0.53321   0.92738   0.88105   0.00000  Uiso   1.00
C1138  C     0.93857   0.68810   0.76774   0.00000  Uiso   1.00
C1139  C     0.90672   0.67460   0.80600   0.00000  Uiso   1.00
C1140  C     0.87819   0.96169   0.78705   0.00000  Uiso   1.00
C1141  C     0.88383   0.92616   0.73259   0.00000  Uiso   1.00
C1142  C     0.91674   0.93789   0.69581   0.00000  Uiso   1.00
C1143  C     0.94316   0.98579   0.71241   0.00000  Uiso   1.00
C1144  C     0.56143   0.97857   0.89892   0.00000  Uiso   1.00
C1145  C     0.51363   0.73986   0.78414   0.00000  Uiso   1.00
C1146  C     0.55684   0.68088   0.95426   0.00000  Uiso   1.00
C1147  C     0.58326   0.72877   0.97086   0.00000  Uiso   1.00
C1148  C     0.61617   0.74050   0.93408   0.00000  Uiso   1.00
C1149  C     0.62181   0.70498   0.87962   0.00000  Uiso   1.00
C1150  C     0.59328   0.99207   0.86067   0.00000  Uiso   1.00
C1151  C     0.98637   0.92680   0.88253   0.00000  Uiso   1.00
C1152  C     0.74848   0.67777   0.80916   0.00000  Uiso   1.00
C1153  C     0.75152   0.98890   0.85751   0.00000  Uiso   1.00
C1154  C     0.66445   0.83141   0.83354   0.00000  Uiso   1.00
C1155  C     0.83555   0.83526   0.83313   0.00000  Uiso   1.00
C1156  C     0.91181   0.88014   0.86165   0.00000  Uiso   1.00
Cu1157 Cu    0.75501   0.83913   0.89479   0.00000  Uiso   1.00
Cu1158 Cu    0.74500   0.82754   0.77187   0.00000  Uiso   1.00
F1159  F     0.74532   0.98250   0.75011   0.00000  Uiso   1.00
F1160  F     0.75468   0.68417   0.91656   0.00000  Uiso   1.00
H1161  H     0.89730   0.91499   0.88433   0.00000  Uiso   1.00
H1162  H     0.85234   0.95284   0.81531   0.00000  Uiso   1.00
H1163  H     0.86302   0.88938   0.71909   0.00000  Uiso   1.00
H1164  H     0.92149   0.91000   0.98754   0.00000  Uiso   1.00
H1165  H     0.96658   0.99533   0.68169   0.00000  Uiso   1.00
H1166  H     0.53342   0.67133   0.98498   0.00000  Uiso   1.00
H1167  H     0.57851   0.75667   0.67913   0.00000  Uiso   1.00
H1168  H     0.63697   0.77729   0.94758   0.00000  Uiso   1.00
H1169  H     0.64766   0.71382   0.85136   0.00000  Uiso   1.00
H1170  H     0.59690   0.96613   0.81691   0.00000  Uiso   1.00
H1171  H     0.60270   0.75168   0.78234   0.00000  Uiso   1.00
H1172  H     0.87826   0.75733   0.77905   0.00000  Uiso   1.00
H1173  H     0.62174   0.90933   0.88762   0.00000  Uiso   1.00
H1174  H     0.52842   0.70364   0.76709   0.00000  Uiso   1.00
H1175  H     0.97158   0.96303   0.89958   0.00000  Uiso   1.00
H1176  H     0.71613   0.79050   0.98272   0.00000  Uiso   1.00
H1177  H     0.78387   0.87617   0.68394   0.00000  Uiso   1.00
H1178  H     0.90310   0.70053   0.84976   0.00000  Uiso   1.00
N1179  N     0.73745   0.81881   0.67951   0.00000  Uiso   1.00
N1180  N     0.76256   0.84786   0.98716   0.00000  Uiso   1.00
O1181  O     0.75326   0.76204   0.87326   0.00000  Uiso   1.00
O1182  O     0.74675   0.90462   0.79341   0.00000  Uiso   1.00
O1183  O     0.74480   0.75226   0.76945   0.00000  Uiso   1.00
O1184  O     0.75520   0.91441   0.89721   0.00000  Uiso   1.00
O1185  O     0.68936   0.83821   0.88524   0.00000  Uiso   1.00
O1186  O     0.81065   0.82845   0.78143   0.00000  Uiso   1.00
O1187  O     0.68090   0.82843   0.78143   0.00000  Uiso   1.00
O1188  O     0.81910   0.83824   0.88523   0.00000  Uiso   1.00
loop_
_geom_bond_atom_site_label_1
_geom_bond_atom_site_label_2
_geom_bond_distance
_geom_bond_site_symmetry_2
_ccdc_geom_bond_type
C1     C30     1.431   .     S
C1     O59     1.293   .     A
C1     O61     1.290   .     A
C2     H49     1.083   .     S
C2     C4      1.394   .     A
C2     C13     1.394   .     A
C3     C33     1.442   .     S
C3     C34     1.394   .     A
C3     C5      1.388   .     A
C4     C32     1.442   .     S
C4     C6      1.388   .     A
C5     C7      1.399   .     A
C5     H50     1.082   .     S
C6     H51     1.082   .     S
C6     C8      1.399   .     A
C7     C9      1.419   .     A
C7     C14     1.417   .     A
C8     C15     1.417   .     A
C8     C10     1.419   .     A
C9     C11     1.412   .     A
C9     C76     1.399   .     S
C10    C13     1.412   .     A
C10    C75     1.399   1_455 S
C11    C29     1.402   .     A
C11    C34     1.394   .     A
C12    O62     1.290   .     A
C12    C31     1.431   .     S
C12    O60     1.293   .     A
C13    C23     1.402   .     A
C14    C16     1.493   .     S
C14    C89     1.403   .     S
C15    C22     1.493   .     S
C15    C95     1.403   1_455 S
C16    C17     1.409   .     A
C16    C285    1.404   1_545 S
C17    H56     1.083   .     S
C17    C282    1.397   1_545 S
C18    H40     1.082   .     S
C18    C19     1.395   .     A
C18    C149    1.397   .     S
C19    C20     1.394   .     A
C19    H41     1.081   .     S
C20    C21     1.397   .     A
C20    H834    1.079   1_554 S
C21    H43     1.075   .     S
C21    C148    1.404   .     S
C22    C28     1.409   .     A
C22    C156    1.404   .     S
C23    H52     1.084   .     S
C23    C80     1.403   1_455 S
C24    C25     1.397   .     A
C24    H44     1.075   .     S
C24    C286    1.404   1_545 S
C25    C26     1.394   .     A
C25    H441    1.079   .     S
C26    C27     1.395   .     A
C26    H46     1.081   .     S
C27    H47     1.082   .     S
C27    C292    1.397   1_545 S
C28    H48     1.083   .     S
C28    C159    1.397   .     S
C29    H53     1.084   .     S
C29    C81     1.403   .     S
C30    C295    1.339   1_545 S
C30    F301    1.364   1_545 S
C31    C162    1.339   .     S
C31    F170    1.364   .     S
C32    O63     1.296   .     A
C32    O65     1.293   .     A
C33    O64     1.296   .     A
C33    O66     1.293   .     A
C34    H39     1.083   .     S
Cu35   O66     1.947   .     S
Cu35   O63     1.955   .     S
Cu35   O62     1.967   .     S
Cu35   O59     1.973   .     S
Cu35   N58     2.025   .     S
Cu35   Cu36    2.695   .     S
Cu36   O61     1.967   .     S
Cu36   N57     2.025   .     S
Cu36   O65     1.947   .     S
Cu36   O64     1.955   .     S
Cu36   O60     1.973   .     S
F37    C162    1.364   .     S
F38    C295    1.364   1_545 S
H42    C416    1.079   .     S
H45    C817    1.079   1_554 S
H54    N453    1.028   .     S
H55    N850    1.028   1_554 S
N57    H846    1.028   1_554 S
N57    N850    1.288   1_554 S
N58    N453    1.288   .     S
N58    H451    1.028   .     S
C67    C96     1.431   .     S
C67    O125    1.293   .     A
C67    O127    1.290   .     A
C68    H115    1.083   .     S
C68    C70     1.394   .     A
C68    C79     1.394   .     A
C69    C99     1.442   .     S
C69    C100    1.394   .     A
C69    C71     1.388   .     A
C70    C98     1.442   .     S
C70    C72     1.388   .     A
C71    C73     1.399   .     A
C71    H116    1.082   .     S
C72    H117    1.082   .     S
C72    C74     1.399   .     A
C73    C75     1.419   .     A
C73    C80     1.417   .     A
C74    C81     1.417   .     A
C74    C76     1.419   .     A
C75    C77     1.412   .     A
C75    C10     1.399   1_655 S
C76    C79     1.412   .     A
C77    C95     1.402   .     A
C77    C100    1.394   .     A
C78    O128    1.290   .     A
C78    C97     1.431   .     S
C78    O126    1.293   .     A
C79    C89     1.402   .     A
C80    C82     1.493   .     S
C80    C23     1.403   1_655 S
C81    C88     1.493   .     S
C82    C83     1.409   .     A
C82    C351    1.404   1_545 S
C83    H122    1.083   .     S
C83    C348    1.397   1_545 S
C84    H106    1.082   .     S
C84    C85     1.395   .     A
C84    C215    1.397   .     S
C85    C86     1.394   .     A
C85    H107    1.081   .     S
C86    C87     1.397   .     A
C86    H900    1.079   1_554 S
C87    H109    1.075   .     S
C87    C214    1.404   .     S
C88    C94     1.409   .     A
C88    C222    1.404   .     S
C89    H118    1.084   .     S
C90    C91     1.397   .     A
C90    H110    1.075   .     S
C90    C352    1.404   1_545 S
C91    C92     1.394   .     A
C91    H507    1.079   .     S
C92    C93     1.395   .     A
C92    H112    1.081   .     S
C93    H113    1.082   .     S
C93    C358    1.397   1_545 S
C94    H114    1.083   .     S
C94    C225    1.397   .     S
C95    H119    1.084   .     S
C95    C15     1.403   1_655 S
C96    C361    1.339   1_545 S
C96    F367    1.364   1_545 S
C97    C228    1.339   .     S
C97    F236    1.364   .     S
C98    O129    1.296   .     A
C98    O131    1.293   .     A
C99    O130    1.296   .     A
C99    O132    1.293   .     A
C100   H105    1.083   .     S
Cu101  O132    1.947   .     S
Cu101  O129    1.955   .     S
Cu101  O128    1.967   .     S
Cu101  O125    1.973   .     S
Cu101  N124    2.025   .     S
Cu101  Cu102   2.695   .     S
Cu102  O127    1.967   .     S
Cu102  N123    2.025   .     S
Cu102  O131    1.947   .     S
Cu102  O130    1.955   .     S
Cu102  O126    1.973   .     S
F103   C228    1.364   .     S
F104   C361    1.364   1_545 S
H108   C482    1.079   .     S
H111   C883    1.079   1_554 S
H120   N519    1.028   .     S
H121   N916    1.028   1_554 S
N123   H912    1.028   1_554 S
N123   N916    1.288   1_554 S
N124   N519    1.288   .     S
N124   H517    1.028   .     S
C133   C162    1.431   .     S
C133   O191    1.293   .     A
C133   O193    1.290   .     A
C134   H181    1.083   .     S
C134   C136    1.394   .     A
C134   C145    1.394   .     A
C135   C165    1.442   .     S
C135   C166    1.394   .     A
C135   C137    1.388   .     A
C136   C164    1.442   .     S
C136   C138    1.388   .     A
C137   C139    1.399   .     A
C137   H182    1.082   .     S
C138   H183    1.082   .     S
C138   C140    1.399   .     A
C139   C141    1.419   .     A
C139   C146    1.417   .     A
C140   C147    1.417   .     A
C140   C142    1.419   .     A
C141   C143    1.412   .     A
C141   C208    1.399   .     S
C142   C145    1.412   .     A
C142   C207    1.399   1_455 S
C143   C161    1.402   .     A
C143   C166    1.394   .     A
C144   O194    1.290   .     A
C144   C163    1.431   .     S
C144   O192    1.293   .     A
C145   C155    1.402   .     A
C146   C148    1.493   .     S
C146   C221    1.403   .     S
C147   C154    1.493   .     S
C147   C227    1.403   1_455 S
C148   C149    1.409   .     A
C149   H188    1.083   .     S
C150   H172    1.082   .     S
C150   C151    1.395   .     A
C150   C281    1.397   .     S
C151   C152    1.394   .     A
C151   H173    1.081   .     S
C152   C153    1.397   .     A
C152   H966    1.079   1_554 S
C153   H175    1.075   .     S
C153   C280    1.404   .     S
C154   C160    1.409   .     A
C154   C288    1.404   .     S
C155   H184    1.084   .     S
C155   C212    1.403   1_455 S
C156   C157    1.397   .     A
C156   H176    1.075   .     S
C157   C158    1.394   .     A
C157   H573    1.079   .     S
C158   C159    1.395   .     A
C158   H178    1.081   .     S
C159   H179    1.082   .     S
C160   H180    1.083   .     S
C160   C291    1.397   .     S
C161   H185    1.084   .     S
C161   C213    1.403   .     S
C163   C294    1.339   .     S
C163   F302    1.364   .     S
C164   O195    1.296   .     A
C164   O197    1.293   .     A
C165   O196    1.296   .     A
C165   O198    1.293   .     A
C166   H171    1.083   .     S
Cu167  O198    1.947   .     S
Cu167  O195    1.955   .     S
Cu167  O194    1.967   .     S
Cu167  O191    1.973   .     S
Cu167  N190    2.025   .     S
Cu167  Cu168   2.695   .     S
Cu168  O193    1.967   .     S
Cu168  N189    2.025   .     S
Cu168  O197    1.947   .     S
Cu168  O196    1.955   .     S
Cu168  O192    1.973   .     S
F169   C294    1.364   .     S
H174   C548    1.079   .     S
H177   C949    1.079   1_554 S
H186   N585    1.028   .     S
H187   N982    1.028   1_554 S
N189   H978    1.028   1_554 S
N189   N982    1.288   1_554 S
N190   N585    1.288   .     S
N190   H583    1.028   .     S
C199   C228    1.431   .     S
C199   O257    1.293   .     A
C199   O259    1.290   .     A
C200   H247    1.083   .     S
C200   C202    1.394   .     A
C200   C211    1.394   .     A
C201   C231    1.442   .     S
C201   C232    1.394   .     A
C201   C203    1.388   .     A
C202   C230    1.442   .     S
C202   C204    1.388   .     A
C203   C205    1.399   .     A
C203   H248    1.082   .     S
C204   H249    1.082   .     S
C204   C206    1.399   .     A
C205   C207    1.419   .     A
C205   C212    1.417   .     A
C206   C213    1.417   .     A
C206   C208    1.419   .     A
C207   C209    1.412   .     A
C207   C142    1.399   1_655 S
C208   C211    1.412   .     A
C209   C227    1.402   .     A
C209   C232    1.394   .     A
C210   O260    1.290   .     A
C210   C229    1.431   .     S
C210   O258    1.293   .     A
C211   C221    1.402   .     A
C212   C214    1.493   .     S
C212   C155    1.403   1_655 S
C213   C220    1.493   .     S
C214   C215    1.409   .     A
C215   H254    1.083   .     S
C216   H238    1.082   .     S
C216   C217    1.395   .     A
C216   C347    1.397   .     S
C217   C218    1.394   .     A
C217   H239    1.081   .     S
C218   C219    1.397   .     A
C218   H1032   1.079   1_554 S
C219   H241    1.075   .     S
C219   C346    1.404   .     S
C220   C226    1.409   .     A
C220   C354    1.404   .     S
C221   H250    1.084   .     S
C222   C223    1.397   .     A
C222   H242    1.075   .     S
C223   C224    1.394   .     A
C223   H639    1.079   .     S
C224   C225    1.395   .     A
C224   H244    1.081   .     S
C225   H245    1.082   .     S
C226   H246    1.083   .     S
C226   C357    1.397   .     S
C227   H251    1.084   .     S
C227   C147    1.403   1_655 S
C229   C360    1.339   .     S
C229   F368    1.364   .     S
C230   O261    1.296   .     A
C230   O263    1.293   .     A
C231   O262    1.296   .     A
C231   O264    1.293   .     A
C232   H237    1.083   .     S
Cu233  O264    1.947   .     S
Cu233  O261    1.955   .     S
Cu233  O260    1.967   .     S
Cu233  O257    1.973   .     S
Cu233  N256    2.025   .     S
Cu233  Cu234   2.695   .     S
Cu234  O259    1.967   .     S
Cu234  N255    2.025   .     S
Cu234  O263    1.947   .     S
Cu234  O262    1.955   .     S
Cu234  O258    1.973   .     S
F235   C360    1.364   .     S
H240   C614    1.079   .     S
H243   C1015   1.079   1_554 S
H252   N651    1.028   .     S
H253   N1048   1.028   1_554 S
N255   H1044   1.028   1_554 S
N255   N1048   1.288   1_554 S
N256   N651    1.288   .     S
N256   H649    1.028   .     S
C265   C294    1.431   .     S
C265   O323    1.293   .     A
C265   O325    1.290   .     A
C266   H313    1.083   .     S
C266   C268    1.394   .     A
C266   C277    1.394   .     A
C267   C297    1.442   .     S
C267   C298    1.394   .     A
C267   C269    1.388   .     A
C268   C296    1.442   .     S
C268   C270    1.388   .     A
C269   C271    1.399   .     A
C269   H314    1.082   .     S
C270   H315    1.082   .     S
C270   C272    1.399   .     A
C271   C273    1.419   .     A
C271   C278    1.417   .     A
C272   C279    1.417   .     A
C272   C274    1.419   .     A
C273   C275    1.412   .     A
C273   C340    1.399   .     S
C274   C277    1.412   .     A
C274   C339    1.399   1_455 S
C275   C293    1.402   .     A
C275   C298    1.394   .     A
C276   O326    1.290   .     A
C276   C295    1.431   .     S
C276   O324    1.293   .     A
C277   C287    1.402   .     A
C278   C280    1.493   .     S
C278   C353    1.403   .     S
C279   C286    1.493   .     S
C279   C359    1.403   1_455 S
C280   C281    1.409   .     A
C281   H320    1.083   .     S
C282   H304    1.082   .     S
C282   C283    1.395   .     A
C282   C17     1.397   1_565 S
C283   C284    1.394   .     A
C283   H305    1.081   .     S
C284   C285    1.397   .     A
C284   H1098   1.079   1_554 S
C285   H307    1.075   .     S
C285   C16     1.404   1_565 S
C286   C292    1.409   .     A
C286   C24     1.404   1_565 S
C287   H316    1.084   .     S
C287   C344    1.403   1_455 S
C288   C289    1.397   .     A
C288   H308    1.075   .     S
C289   C290    1.394   .     A
C289   H705    1.079   .     S
C290   C291    1.395   .     A
C290   H310    1.081   .     S
C291   H311    1.082   .     S
C292   H312    1.083   .     S
C292   C27     1.397   1_565 S
C293   H317    1.084   .     S
C293   C345    1.403   .     S
C295   C30     1.339   1_565 S
C295   F38     1.364   1_565 S
C296   O327    1.296   .     A
C296   O329    1.293   .     A
C297   O328    1.296   .     A
C297   O330    1.293   .     A
C298   H303    1.083   .     S
Cu299  O330    1.947   .     S
Cu299  O327    1.955   .     S
Cu299  O326    1.967   .     S
Cu299  O323    1.973   .     S
Cu299  N322    2.025   .     S
Cu299  Cu300   2.695   .     S
Cu300  O325    1.967   .     S
Cu300  N321    2.025   .     S
Cu300  O329    1.947   .     S
Cu300  O328    1.955   .     S
Cu300  O324    1.973   .     S
F301   C30     1.364   1_565 S
H306   C680    1.079   .     S
H309   C1081   1.079   1_554 S
H318   N717    1.028   .     S
H319   N1114   1.028   1_554 S
N321   H1110   1.028   1_554 S
N321   N1114   1.288   1_554 S
N322   N717    1.288   .     S
N322   H715    1.028   .     S
C331   C360    1.431   .     S
C331   O389    1.293   .     A
C331   O391    1.290   .     A
C332   H379    1.083   .     S
C332   C334    1.394   .     A
C332   C343    1.394   .     A
C333   C363    1.442   .     S
C333   C364    1.394   .     A
C333   C335    1.388   .     A
C334   C362    1.442   .     S
C334   C336    1.388   .     A
C335   C337    1.399   .     A
C335   H380    1.082   .     S
C336   H381    1.082   .     S
C336   C338    1.399   .     A
C337   C339    1.419   .     A
C337   C344    1.417   .     A
C338   C345    1.417   .     A
C338   C340    1.419   .     A
C339   C341    1.412   .     A
C339   C274    1.399   1_655 S
C340   C343    1.412   .     A
C341   C359    1.402   .     A
C341   C364    1.394   .     A
C342   O392    1.290   .     A
C342   C361    1.431   .     S
C342   O390    1.293   .     A
C343   C353    1.402   .     A
C344   C346    1.493   .     S
C344   C287    1.403   1_655 S
C345   C352    1.493   .     S
C346   C347    1.409   .     A
C347   H386    1.083   .     S
C348   H370    1.082   .     S
C348   C349    1.395   .     A
C348   C83     1.397   1_565 S
C349   C350    1.394   .     A
C349   H371    1.081   .     S
C350   C351    1.397   .     A
C350   H1164   1.079   1_554 S
C351   H373    1.075   .     S
C351   C82     1.404   1_565 S
C352   C358    1.409   .     A
C352   C90     1.404   1_565 S
C353   H382    1.084   .     S
C354   C355    1.397   .     A
C354   H374    1.075   .     S
C355   C356    1.394   .     A
C355   H771    1.079   .     S
C356   C357    1.395   .     A
C356   H376    1.081   .     S
C357   H377    1.082   .     S
C358   H378    1.083   .     S
C358   C93     1.397   1_565 S
C359   H383    1.084   .     S
C359   C279    1.403   1_655 S
C361   C96     1.339   1_565 S
C361   F104    1.364   1_565 S
C362   O393    1.296   .     A
C362   O395    1.293   .     A
C363   O394    1.296   .     A
C363   O396    1.293   .     A
C364   H369    1.083   .     S
Cu365  O396    1.947   .     S
Cu365  O393    1.955   .     S
Cu365  O392    1.967   .     S
Cu365  O389    1.973   .     S
Cu365  N388    2.025   .     S
Cu365  Cu366   2.695   .     S
Cu366  O391    1.967   .     S
Cu366  N387    2.025   .     S
Cu366  O395    1.947   .     S
Cu366  O394    1.955   .     S
Cu366  O390    1.973   .     S
F367   C96     1.364   1_565 S
H372   C746    1.079   .     S
H375   C1147   1.079   1_554 S
H384   N783    1.028   .     S
H385   N1180   1.028   1_554 S
N387   H1176   1.028   1_554 S
N387   N1180   1.288   1_554 S
N388   N783    1.288   .     S
N388   H781    1.028   .     S
C397   C426    1.431   .     S
C397   O455    1.293   .     A
C397   O457    1.290   .     A
C398   H445    1.083   .     S
C398   C400    1.394   .     A
C398   C409    1.394   .     A
C399   C429    1.442   .     S
C399   C430    1.394   .     A
C399   C401    1.388   .     A
C400   C428    1.442   .     S
C400   C402    1.388   .     A
C401   C403    1.399   .     A
C401   H446    1.082   .     S
C402   H447    1.082   .     S
C402   C404    1.399   .     A
C403   C405    1.419   .     A
C403   C410    1.417   .     A
C404   C411    1.417   .     A
C404   C406    1.419   .     A
C405   C407    1.412   .     A
C405   C472    1.399   .     S
C406   C409    1.412   .     A
C406   C471    1.399   1_455 S
C407   C425    1.402   .     A
C407   C430    1.394   .     A
C408   O458    1.290   .     A
C408   C427    1.431   .     S
C408   O456    1.293   .     A
C409   C419    1.402   .     A
C410   C412    1.493   .     S
C410   C485    1.403   .     S
C411   C418    1.493   .     S
C411   C491    1.403   1_455 S
C412   C413    1.409   .     A
C412   C681    1.404   1_545 S
C413   H452    1.083   .     S
C413   C678    1.397   1_545 S
C414   H436    1.082   .     S
C414   C415    1.395   .     A
C414   C545    1.397   .     S
C415   C416    1.394   .     A
C415   H437    1.081   .     S
C416   C417    1.397   .     A
C417   H439    1.075   .     S
C417   C544    1.404   .     S
C418   C424    1.409   .     A
C418   C552    1.404   .     S
C419   H448    1.084   .     S
C419   C476    1.403   1_455 S
C420   C421    1.397   .     A
C420   H440    1.075   .     S
C420   C682    1.404   1_545 S
C421   C422    1.394   .     A
C421   H837    1.079   .     S
C422   C423    1.395   .     A
C422   H442    1.081   .     S
C423   H443    1.082   .     S
C423   C688    1.397   1_545 S
C424   H444    1.083   .     S
C424   C555    1.397   .     S
C425   H449    1.084   .     S
C425   C477    1.403   .     S
C426   C691    1.339   1_545 S
C426   F697    1.364   1_545 S
C427   C558    1.339   .     S
C427   F566    1.364   .     S
C428   O459    1.296   .     A
C428   O461    1.293   .     A
C429   O460    1.296   .     A
C429   O462    1.293   .     A
C430   H435    1.083   .     S
Cu431  O462    1.947   .     S
Cu431  O459    1.955   .     S
Cu431  O458    1.967   .     S
Cu431  O455    1.973   .     S
Cu431  N454    2.025   .     S
Cu431  Cu432   2.695   .     S
Cu432  O457    1.967   .     S
Cu432  N453    2.025   .     S
Cu432  O461    1.947   .     S
Cu432  O460    1.955   .     S
Cu432  O456    1.973   .     S
F433   C558    1.364   .     S
F434   C691    1.364   1_545 S
H438   C812    1.079   .     S
H450   N849    1.028   .     S
N454   N849    1.288   .     S
N454   H847    1.028   .     S
C463   C492    1.431   .     S
C463   O521    1.293   .     A
C463   O523    1.290   .     A
C464   H511    1.083   .     S
C464   C466    1.394   .     A
C464   C475    1.394   .     A
C465   C495    1.442   .     S
C465   C496    1.394   .     A
C465   C467    1.388   .     A
C466   C494    1.442   .     S
C466   C468    1.388   .     A
C467   C469    1.399   .     A
C467   H512    1.082   .     S
C468   H513    1.082   .     S
C468   C470    1.399   .     A
C469   C471    1.419   .     A
C469   C476    1.417   .     A
C470   C477    1.417   .     A
C470   C472    1.419   .     A
C471   C473    1.412   .     A
C471   C406    1.399   1_655 S
C472   C475    1.412   .     A
C473   C491    1.402   .     A
C473   C496    1.394   .     A
C474   O524    1.290   .     A
C474   C493    1.431   .     S
C474   O522    1.293   .     A
C475   C485    1.402   .     A
C476   C478    1.493   .     S
C476   C419    1.403   1_655 S
C477   C484    1.493   .     S
C478   C479    1.409   .     A
C478   C747    1.404   1_545 S
C479   H518    1.083   .     S
C479   C744    1.397   1_545 S
C480   H502    1.082   .     S
C480   C481    1.395   .     A
C480   C611    1.397   .     S
C481   C482    1.394   .     A
C481   H503    1.081   .     S
C482   C483    1.397   .     A
C483   H505    1.075   .     S
C483   C610    1.404   .     S
C484   C490    1.409   .     A
C484   C618    1.404   .     S
C485   H514    1.084   .     S
C486   C487    1.397   .     A
C486   H506    1.075   .     S
C486   C748    1.404   1_545 S
C487   C488    1.394   .     A
C487   H903    1.079   .     S
C488   C489    1.395   .     A
C488   H508    1.081   .     S
C489   H509    1.082   .     S
C489   C754    1.397   1_545 S
C490   H510    1.083   .     S
C490   C621    1.397   .     S
C491   H515    1.084   .     S
C491   C411    1.403   1_655 S
C492   C757    1.339   1_545 S
C492   F763    1.364   1_545 S
C493   C624    1.339   .     S
C493   F632    1.364   .     S
C494   O525    1.296   .     A
C494   O527    1.293   .     A
C495   O526    1.296   .     A
C495   O528    1.293   .     A
C496   H501    1.083   .     S
Cu497  O528    1.947   .     S
Cu497  O525    1.955   .     S
Cu497  O524    1.967   .     S
Cu497  O521    1.973   .     S
Cu497  N520    2.025   .     S
Cu497  Cu498   2.695   .     S
Cu498  O523    1.967   .     S
Cu498  N519    2.025   .     S
Cu498  O527    1.947   .     S
Cu498  O526    1.955   .     S
Cu498  O522    1.973   .     S
F499   C624    1.364   .     S
F500   C757    1.364   1_545 S
H504   C878    1.079   .     S
H516   N915    1.028   .     S
N520   N915    1.288   .     S
N520   H913    1.028   .     S
C529   C558    1.431   .     S
C529   O587    1.293   .     A
C529   O589    1.290   .     A
C530   H577    1.083   .     S
C530   C532    1.394   .     A
C530   C541    1.394   .     A
C531   C561    1.442   .     S
C531   C562    1.394   .     A
C531   C533    1.388   .     A
C532   C560    1.442   .     S
C532   C534    1.388   .     A
C533   C535    1.399   .     A
C533   H578    1.082   .     S
C534   H579    1.082   .     S
C534   C536    1.399   .     A
C535   C537    1.419   .     A
C535   C542    1.417   .     A
C536   C543    1.417   .     A
C536   C538    1.419   .     A
C537   C539    1.412   .     A
C537   C604    1.399   .     S
C538   C541    1.412   .     A
C538   C603    1.399   1_455 S
C539   C557    1.402   .     A
C539   C562    1.394   .     A
C540   O590    1.290   .     A
C540   C559    1.431   .     S
C540   O588    1.293   .     A
C541   C551    1.402   .     A
C542   C544    1.493   .     S
C542   C617    1.403   .     S
C543   C550    1.493   .     S
C543   C623    1.403   1_455 S
C544   C545    1.409   .     A
C545   H584    1.083   .     S
C546   H568    1.082   .     S
C546   C547    1.395   .     A
C546   C677    1.397   .     S
C547   C548    1.394   .     A
C547   H569    1.081   .     S
C548   C549    1.397   .     A
C549   H571    1.075   .     S
C549   C676    1.404   .     S
C550   C556    1.409   .     A
C550   C684    1.404   .     S
C551   H580    1.084   .     S
C551   C608    1.403   1_455 S
C552   C553    1.397   .     A
C552   H572    1.075   .     S
C553   C554    1.394   .     A
C553   H969    1.079   .     S
C554   C555    1.395   .     A
C554   H574    1.081   .     S
C555   H575    1.082   .     S
C556   H576    1.083   .     S
C556   C687    1.397   .     S
C557   H581    1.084   .     S
C557   C609    1.403   .     S
C559   C690    1.339   .     S
C559   F698    1.364   .     S
C560   O591    1.296   .     A
C560   O593    1.293   .     A
C561   O592    1.296   .     A
C561   O594    1.293   .     A
C562   H567    1.083   .     S
Cu563  O594    1.947   .     S
Cu563  O591    1.955   .     S
Cu563  O590    1.967   .     S
Cu563  O587    1.973   .     S
Cu563  N586    2.025   .     S
Cu563  Cu564   2.695   .     S
Cu564  O589    1.967   .     S
Cu564  N585    2.025   .     S
Cu564  O593    1.947   .     S
Cu564  O592    1.955   .     S
Cu564  O588    1.973   .     S
F565   C690    1.364   .     S
H570   C944    1.079   .     S
H582   N981    1.028   .     S
N586   N981    1.288   .     S
N586   H979    1.028   .     S
C595   C624    1.431   .     S
C595   O653    1.293   .     A
C595   O655    1.290   .     A
C596   H643    1.083   .     S
C596   C598    1.394   .     A
C596   C607    1.394   .     A
C597   C627    1.442   .     S
C597   C628    1.394   .     A
C597   C599    1.388   .     A
C598   C626    1.442   .     S
C598   C600    1.388   .     A
C599   C601    1.399   .     A
C599   H644    1.082   .     S
C600   H645    1.082   .     S
C600   C602    1.399   .     A
C601   C603    1.419   .     A
C601   C608    1.417   .     A
C602   C609    1.417   .     A
C602   C604    1.419   .     A
C603   C605    1.412   .     A
C603   C538    1.399   1_655 S
C604   C607    1.412   .     A
C605   C623    1.402   .     A
C605   C628    1.394   .     A
C606   O656    1.290   .     A
C606   C625    1.431   .     S
C606   O654    1.293   .     A
C607   C617    1.402   .     A
C608   C610    1.493   .     S
C608   C551    1.403   1_655 S
C609   C616    1.493   .     S
C610   C611    1.409   .     A
C611   H650    1.083   .     S
C612   H634    1.082   .     S
C612   C613    1.395   .     A
C612   C743    1.397   .     S
C613   C614    1.394   .     A
C613   H635    1.081   .     S
C614   C615    1.397   .     A
C615   H637    1.075   .     S
C615   C742    1.404   .     S
C616   C622    1.409   .     A
C616   C750    1.404   .     S
C617   H646    1.084   .     S
C618   C619    1.397   .     A
C618   H638    1.075   .     S
C619   C620    1.394   .     A
C619   H1035   1.079   .     S
C620   C621    1.395   .     A
C620   H640    1.081   .     S
C621   H641    1.082   .     S
C622   H642    1.083   .     S
C622   C753    1.397   .     S
C623   H647    1.084   .     S
C623   C543    1.403   1_655 S
C625   C756    1.339   .     S
C625   F764    1.364   .     S
C626   O657    1.296   .     A
C626   O659    1.293   .     A
C627   O658    1.296   .     A
C627   O660    1.293   .     A
C628   H633    1.083   .     S
Cu629  O660    1.947   .     S
Cu629  O657    1.955   .     S
Cu629  O656    1.967   .     S
Cu629  O653    1.973   .     S
Cu629  N652    2.025   .     S
Cu629  Cu630   2.695   .     S
Cu630  O655    1.967   .     S
Cu630  N651    2.025   .     S
Cu630  O659    1.947   .     S
Cu630  O658    1.955   .     S
Cu630  O654    1.973   .     S
F631   C756    1.364   .     S
H636   C1010   1.079   .     S
H648   N1047   1.028   .     S
N652   N1047   1.288   .     S
N652   H1045   1.028   .     S
C661   C690    1.431   .     S
C661   O719    1.293   .     A
C661   O721    1.290   .     A
C662   H709    1.083   .     S
C662   C664    1.394   .     A
C662   C673    1.394   .     A
C663   C693    1.442   .     S
C663   C694    1.394   .     A
C663   C665    1.388   .     A
C664   C692    1.442   .     S
C664   C666    1.388   .     A
C665   C667    1.399   .     A
C665   H710    1.082   .     S
C666   H711    1.082   .     S
C666   C668    1.399   .     A
C667   C669    1.419   .     A
C667   C674    1.417   .     A
C668   C675    1.417   .     A
C668   C670    1.419   .     A
C669   C671    1.412   .     A
C669   C736    1.399   .     S
C670   C673    1.412   .     A
C670   C735    1.399   1_455 S
C671   C689    1.402   .     A
C671   C694    1.394   .     A
C672   O722    1.290   .     A
C672   C691    1.431   .     S
C672   O720    1.293   .     A
C673   C683    1.402   .     A
C674   C676    1.493   .     S
C674   C749    1.403   .     S
C675   C682    1.493   .     S
C675   C755    1.403   1_455 S
C676   C677    1.409   .     A
C677   H716    1.083   .     S
C678   H700    1.082   .     S
C678   C679    1.395   .     A
C678   C413    1.397   1_565 S
C679   C680    1.394   .     A
C679   H701    1.081   .     S
C680   C681    1.397   .     A
C681   H703    1.075   .     S
C681   C412    1.404   1_565 S
C682   C688    1.409   .     A
C682   C420    1.404   1_565 S
C683   H712    1.084   .     S
C683   C740    1.403   1_455 S
C684   C685    1.397   .     A
C684   H704    1.075   .     S
C685   C686    1.394   .     A
C685   H1101   1.079   .     S
C686   C687    1.395   .     A
C686   H706    1.081   .     S
C687   H707    1.082   .     S
C688   H708    1.083   .     S
C688   C423    1.397   1_565 S
C689   H713    1.084   .     S
C689   C741    1.403   .     S
C691   C426    1.339   1_565 S
C691   F434    1.364   1_565 S
C692   O723    1.296   .     A
C692   O725    1.293   .     A
C693   O724    1.296   .     A
C693   O726    1.293   .     A
C694   H699    1.083   .     S
Cu695  O726    1.947   .     S
Cu695  O723    1.955   .     S
Cu695  O722    1.967   .     S
Cu695  O719    1.973   .     S
Cu695  N718    2.025   .     S
Cu695  Cu696   2.695   .     S
Cu696  O721    1.967   .     S
Cu696  N717    2.025   .     S
Cu696  O725    1.947   .     S
Cu696  O724    1.955   .     S
Cu696  O720    1.973   .     S
F697   C426    1.364   1_565 S
H702   C1076   1.079   .     S
H714   N1113   1.028   .     S
N718   N1113   1.288   .     S
N718   H1111   1.028   .     S
C727   C756    1.431   .     S
C727   O785    1.293   .     A
C727   O787    1.290   .     A
C728   H775    1.083   .     S
C728   C730    1.394   .     A
C728   C739    1.394   .     A
C729   C759    1.442   .     S
C729   C760    1.394   .     A
C729   C731    1.388   .     A
C730   C758    1.442   .     S
C730   C732    1.388   .     A
C731   C733    1.399   .     A
C731   H776    1.082   .     S
C732   H777    1.082   .     S
C732   C734    1.399   .     A
C733   C735    1.419   .     A
C733   C740    1.417   .     A
C734   C741    1.417   .     A
C734   C736    1.419   .     A
C735   C737    1.412   .     A
C735   C670    1.399   1_655 S
C736   C739    1.412   .     A
C737   C755    1.402   .     A
C737   C760    1.394   .     A
C738   O788    1.290   .     A
C738   C757    1.431   .     S
C738   O786    1.293   .     A
C739   C749    1.402   .     A
C740   C742    1.493   .     S
C740   C683    1.403   1_655 S
C741   C748    1.493   .     S
C742   C743    1.409   .     A
C743   H782    1.083   .     S
C744   H766    1.082   .     S
C744   C745    1.395   .     A
C744   C479    1.397   1_565 S
C745   C746    1.394   .     A
C745   H767    1.081   .     S
C746   C747    1.397   .     A
C747   H769    1.075   .     S
C747   C478    1.404   1_565 S
C748   C754    1.409   .     A
C748   C486    1.404   1_565 S
C749   H778    1.084   .     S
C750   C751    1.397   .     A
C750   H770    1.075   .     S
C751   C752    1.394   .     A
C751   H1167   1.079   .     S
C752   C753    1.395   .     A
C752   H772    1.081   .     S
C753   H773    1.082   .     S
C754   H774    1.083   .     S
C754   C489    1.397   1_565 S
C755   H779    1.084   .     S
C755   C675    1.403   1_655 S
C757   C492    1.339   1_565 S
C757   F500    1.364   1_565 S
C758   O789    1.296   .     A
C758   O791    1.293   .     A
C759   O790    1.296   .     A
C759   O792    1.293   .     A
C760   H765    1.083   .     S
Cu761  O792    1.947   .     S
Cu761  O789    1.955   .     S
Cu761  O788    1.967   .     S
Cu761  O785    1.973   .     S
Cu761  N784    2.025   .     S
Cu761  Cu762   2.695   .     S
Cu762  O787    1.967   .     S
Cu762  N783    2.025   .     S
Cu762  O791    1.947   .     S
Cu762  O790    1.955   .     S
Cu762  O786    1.973   .     S
F763   C492    1.364   1_565 S
H768   C1142   1.079   .     S
H780   N1179   1.028   .     S
N784   N1179   1.288   .     S
N784   H1177   1.028   .     S
C793   C822    1.431   .     S
C793   O851    1.293   .     A
C793   O853    1.290   .     A
C794   H841    1.083   .     S
C794   C796    1.394   .     A
C794   C805    1.394   .     A
C795   C825    1.442   .     S
C795   C826    1.394   .     A
C795   C797    1.388   .     A
C796   C824    1.442   .     S
C796   C798    1.388   .     A
C797   C799    1.399   .     A
C797   H842    1.082   .     S
C798   H843    1.082   .     S
C798   C800    1.399   .     A
C799   C801    1.419   .     A
C799   C806    1.417   .     A
C800   C807    1.417   .     A
C800   C802    1.419   .     A
C801   C803    1.412   .     A
C801   C868    1.399   .     S
C802   C805    1.412   .     A
C802   C867    1.399   1_455 S
C803   C821    1.402   .     A
C803   C826    1.394   .     A
C804   O854    1.290   .     A
C804   C823    1.431   .     S
C804   O852    1.293   .     A
C805   C815    1.402   .     A
C806   C808    1.493   .     S
C806   C881    1.403   .     S
C807   C814    1.493   .     S
C807   C887    1.403   1_455 S
C808   C809    1.409   .     A
C808   C1077   1.404   1_545 S
C809   H848    1.083   .     S
C809   C1074   1.397   1_545 S
C810   H832    1.082   .     S
C810   C811    1.395   .     A
C810   C941    1.397   .     S
C811   C812    1.394   .     A
C811   H833    1.081   .     S
C812   C813    1.397   .     A
C813   H835    1.075   .     S
C813   C940    1.404   .     S
C814   C820    1.409   .     A
C814   C948    1.404   .     S
C815   H844    1.084   .     S
C815   C872    1.403   1_455 S
C816   C817    1.397   .     A
C816   H836    1.075   .     S
C816   C1078   1.404   1_545 S
C817   C818    1.394   .     A
C817   H45     1.079   1_556 S
C818   C819    1.395   .     A
C818   H838    1.081   .     S
C819   H839    1.082   .     S
C819   C1084   1.397   1_545 S
C820   H840    1.083   .     S
C820   C951    1.397   .     S
C821   H845    1.084   .     S
C821   C873    1.403   .     S
C822   C1087   1.339   1_545 S
C822   F1093   1.364   1_545 S
C823   C954    1.339   .     S
C823   F962    1.364   .     S
C824   O855    1.296   .     A
C824   O857    1.293   .     A
C825   O856    1.296   .     A
C825   O858    1.293   .     A
C826   H831    1.083   .     S
Cu827  O858    1.947   .     S
Cu827  O855    1.955   .     S
Cu827  O854    1.967   .     S
Cu827  O851    1.973   .     S
Cu827  N850    2.025   .     S
Cu827  Cu828   2.695   .     S
Cu828  O853    1.967   .     S
Cu828  N849    2.025   .     S
Cu828  O857    1.947   .     S
Cu828  O856    1.955   .     S
Cu828  O852    1.973   .     S
F829   C954    1.364   .     S
F830   C1087   1.364   1_545 S
H834   C20     1.079   1_556 S
H846   N57     1.028   1_556 S
N850   N57     1.288   1_556 S
N850   H55     1.028   1_556 S
C859   C888    1.431   .     S
C859   O917    1.293   .     A
C859   O919    1.290   .     A
C860   H907    1.083   .     S
C860   C862    1.394   .     A
C860   C871    1.394   .     A
C861   C891    1.442   .     S
C861   C892    1.394   .     A
C861   C863    1.388   .     A
C862   C890    1.442   .     S
C862   C864    1.388   .     A
C863   C865    1.399   .     A
C863   H908    1.082   .     S
C864   H909    1.082   .     S
C864   C866    1.399   .     A
C865   C867    1.419   .     A
C865   C872    1.417   .     A
C866   C873    1.417   .     A
C866   C868    1.419   .     A
C867   C869    1.412   .     A
C867   C802    1.399   1_655 S
C868   C871    1.412   .     A
C869   C887    1.402   .     A
C869   C892    1.394   .     A
C870   O920    1.290   .     A
C870   C889    1.431   .     S
C870   O918    1.293   .     A
C871   C881    1.402   .     A
C872   C874    1.493   .     S
C872   C815    1.403   1_655 S
C873   C880    1.493   .     S
C874   C875    1.409   .     A
C874   C1143   1.404   1_545 S
C875   H914    1.083   .     S
C875   C1140   1.397   1_545 S
C876   H898    1.082   .     S
C876   C877    1.395   .     A
C876   C1007   1.397   .     S
C877   C878    1.394   .     A
C877   H899    1.081   .     S
C878   C879    1.397   .     A
C879   H901    1.075   .     S
C879   C1006   1.404   .     S
C880   C886    1.409   .     A
C880   C1014   1.404   .     S
C881   H910    1.084   .     S
C882   C883    1.397   .     A
C882   H902    1.075   .     S
C882   C1144   1.404   1_545 S
C883   C884    1.394   .     A
C883   H111    1.079   1_556 S
C884   C885    1.395   .     A
C884   H904    1.081   .     S
C885   H905    1.082   .     S
C885   C1150   1.397   1_545 S
C886   H906    1.083   .     S
C886   C1017   1.397   .     S
C887   H911    1.084   .     S
C887   C807    1.403   1_655 S
C888   C1153   1.339   1_545 S
C888   F1159   1.364   1_545 S
C889   C1020   1.339   .     S
C889   F1028   1.364   .     S
C890   O921    1.296   .     A
C890   O923    1.293   .     A
C891   O922    1.296   .     A
C891   O924    1.293   .     A
C892   H897    1.083   .     S
Cu893  O924    1.947   .     S
Cu893  O921    1.955   .     S
Cu893  O920    1.967   .     S
Cu893  O917    1.973   .     S
Cu893  N916    2.025   .     S
Cu893  Cu894   2.695   .     S
Cu894  O919    1.967   .     S
Cu894  N915    2.025   .     S
Cu894  O923    1.947   .     S
Cu894  O922    1.955   .     S
Cu894  O918    1.973   .     S
F895   C1020   1.364   .     S
F896   C1153   1.364   1_545 S
H900   C86     1.079   1_556 S
H912   N123    1.028   1_556 S
N916   N123    1.288   1_556 S
N916   H121    1.028   1_556 S
C925   C954    1.431   .     S
C925   O983    1.293   .     A
C925   O985    1.290   .     A
C926   H973    1.083   .     S
C926   C928    1.394   .     A
C926   C937    1.394   .     A
C927   C957    1.442   .     S
C927   C958    1.394   .     A
C927   C929    1.388   .     A
C928   C956    1.442   .     S
C928   C930    1.388   .     A
C929   C931    1.399   .     A
C929   H974    1.082   .     S
C930   H975    1.082   .     S
C930   C932    1.399   .     A
C931   C933    1.419   .     A
C931   C938    1.417   .     A
C932   C939    1.417   .     A
C932   C934    1.419   .     A
C933   C935    1.412   .     A
C933   C1000   1.399   .     S
C934   C937    1.412   .     A
C934   C999    1.399   1_455 S
C935   C953    1.402   .     A
C935   C958    1.394   .     A
C936   O986    1.290   .     A
C936   C955    1.431   .     S
C936   O984    1.293   .     A
C937   C947    1.402   .     A
C938   C940    1.493   .     S
C938   C1013   1.403   .     S
C939   C946    1.493   .     S
C939   C1019   1.403   1_455 S
C940   C941    1.409   .     A
C941   H980    1.083   .     S
C942   H964    1.082   .     S
C942   C943    1.395   .     A
C942   C1073   1.397   .     S
C943   C944    1.394   .     A
C943   H965    1.081   .     S
C944   C945    1.397   .     A
C945   H967    1.075   .     S
C945   C1072   1.404   .     S
C946   C952    1.409   .     A
C946   C1080   1.404   .     S
C947   H976    1.084   .     S
C947   C1004   1.403   1_455 S
C948   C949    1.397   .     A
C948   H968    1.075   .     S
C949   C950    1.394   .     A
C949   H177    1.079   1_556 S
C950   C951    1.395   .     A
C950   H970    1.081   .     S
C951   H971    1.082   .     S
C952   H972    1.083   .     S
C952   C1083   1.397   .     S
C953   H977    1.084   .     S
C953   C1005   1.403   .     S
C955   C1086   1.339   .     S
C955   F1094   1.364   .     S
C956   O987    1.296   .     A
C956   O989    1.293   .     A
C957   O988    1.296   .     A
C957   O990    1.293   .     A
C958   H963    1.083   .     S
Cu959  O990    1.947   .     S
Cu959  O987    1.955   .     S
Cu959  O986    1.967   .     S
Cu959  O983    1.973   .     S
Cu959  N982    2.025   .     S
Cu959  Cu960   2.695   .     S
Cu960  O985    1.967   .     S
Cu960  N981    2.025   .     S
Cu960  O989    1.947   .     S
Cu960  O988    1.955   .     S
Cu960  O984    1.973   .     S
F961   C1086   1.364   .     S
H966   C152    1.079   1_556 S
H978   N189    1.028   1_556 S
N982   N189    1.288   1_556 S
N982   H187    1.028   1_556 S
C991   C1020   1.431   .     S
C991   O1049   1.293   .     A
C991   O1051   1.290   .     A
C992   H1039   1.083   .     S
C992   C994    1.394   .     A
C992   C1003   1.394   .     A
C993   C1023   1.442   .     S
C993   C1024   1.394   .     A
C993   C995    1.388   .     A
C994   C1022   1.442   .     S
C994   C996    1.388   .     A
C995   C997    1.399   .     A
C995   H1040   1.082   .     S
C996   H1041   1.082   .     S
C996   C998    1.399   .     A
C997   C999    1.419   .     A
C997   C1004   1.417   .     A
C998   C1005   1.417   .     A
C998   C1000   1.419   .     A
C999   C1001   1.412   .     A
C999   C934    1.399   1_655 S
C1000  C1003   1.412   .     A
C1001  C1019   1.402   .     A
C1001  C1024   1.394   .     A
C1002  O1052   1.290   .     A
C1002  C1021   1.431   .     S
C1002  O1050   1.293   .     A
C1003  C1013   1.402   .     A
C1004  C1006   1.493   .     S
C1004  C947    1.403   1_655 S
C1005  C1012   1.493   .     S
C1006  C1007   1.409   .     A
C1007  H1046   1.083   .     S
C1008  H1030   1.082   .     S
C1008  C1009   1.395   .     A
C1008  C1139   1.397   .     S
C1009  C1010   1.394   .     A
C1009  H1031   1.081   .     S
C1010  C1011   1.397   .     A
C1011  H1033   1.075   .     S
C1011  C1138   1.404   .     S
C1012  C1018   1.409   .     A
C1012  C1146   1.404   .     S
C1013  H1042   1.084   .     S
C1014  C1015   1.397   .     A
C1014  H1034   1.075   .     S
C1015  C1016   1.394   .     A
C1015  H243    1.079   1_556 S
C1016  C1017   1.395   .     A
C1016  H1036   1.081   .     S
C1017  H1037   1.082   .     S
C1018  H1038   1.083   .     S
C1018  C1149   1.397   .     S
C1019  H1043   1.084   .     S
C1019  C939    1.403   1_655 S
C1021  C1152   1.339   .     S
C1021  F1160   1.364   .     S
C1022  O1053   1.296   .     A
C1022  O1055   1.293   .     A
C1023  O1054   1.296   .     A
C1023  O1056   1.293   .     A
C1024  H1029   1.083   .     S
Cu1025 O1056   1.947   .     S
Cu1025 O1053   1.955   .     S
Cu1025 O1052   1.967   .     S
Cu1025 O1049   1.973   .     S
Cu1025 N1048   2.025   .     S
Cu1025 Cu1026  2.695   .     S
Cu1026 O1051   1.967   .     S
Cu1026 N1047   2.025   .     S
Cu1026 O1055   1.947   .     S
Cu1026 O1054   1.955   .     S
Cu1026 O1050   1.973   .     S
F1027  C1152   1.364   .     S
H1032  C218    1.079   1_556 S
H1044  N255    1.028   1_556 S
N1048  N255    1.288   1_556 S
N1048  H253    1.028   1_556 S
C1057  C1086   1.431   .     S
C1057  O1115   1.293   .     A
C1057  O1117   1.290   .     A
C1058  H1105   1.083   .     S
C1058  C1060   1.394   .     A
C1058  C1069   1.394   .     A
C1059  C1089   1.442   .     S
C1059  C1090   1.394   .     A
C1059  C1061   1.388   .     A
C1060  C1088   1.442   .     S
C1060  C1062   1.388   .     A
C1061  C1063   1.399   .     A
C1061  H1106   1.082   .     S
C1062  H1107   1.082   .     S
C1062  C1064   1.399   .     A
C1063  C1065   1.419   .     A
C1063  C1070   1.417   .     A
C1064  C1071   1.417   .     A
C1064  C1066   1.419   .     A
C1065  C1067   1.412   .     A
C1065  C1132   1.399   .     S
C1066  C1069   1.412   .     A
C1066  C1131   1.399   1_455 S
C1067  C1085   1.402   .     A
C1067  C1090   1.394   .     A
C1068  O1118   1.290   .     A
C1068  C1087   1.431   .     S
C1068  O1116   1.293   .     A
C1069  C1079   1.402   .     A
C1070  C1072   1.493   .     S
C1070  C1145   1.403   .     S
C1071  C1078   1.493   .     S
C1071  C1151   1.403   1_455 S
C1072  C1073   1.409   .     A
C1073  H1112   1.083   .     S
C1074  H1096   1.082   .     S
C1074  C1075   1.395   .     A
C1074  C809    1.397   1_565 S
C1075  C1076   1.394   .     A
C1075  H1097   1.081   .     S
C1076  C1077   1.397   .     A
C1077  H1099   1.075   .     S
C1077  C808    1.404   1_565 S
C1078  C1084   1.409   .     A
C1078  C816    1.404   1_565 S
C1079  H1108   1.084   .     S
C1079  C1136   1.403   1_455 S
C1080  C1081   1.397   .     A
C1080  H1100   1.075   .     S
C1081  C1082   1.394   .     A
C1081  H309    1.079   1_556 S
C1082  C1083   1.395   .     A
C1082  H1102   1.081   .     S
C1083  H1103   1.082   .     S
C1084  H1104   1.083   .     S
C1084  C819    1.397   1_565 S
C1085  H1109   1.084   .     S
C1085  C1137   1.403   .     S
C1087  C822    1.339   1_565 S
C1087  F830    1.364   1_565 S
C1088  O1119   1.296   .     A
C1088  O1121   1.293   .     A
C1089  O1120   1.296   .     A
C1089  O1122   1.293   .     A
C1090  H1095   1.083   .     S
Cu1091 O1122   1.947   .     S
Cu1091 O1119   1.955   .     S
Cu1091 O1118   1.967   .     S
Cu1091 O1115   1.973   .     S
Cu1091 N1114   2.025   .     S
Cu1091 Cu1092  2.695   .     S
Cu1092 O1117   1.967   .     S
Cu1092 N1113   2.025   .     S
Cu1092 O1121   1.947   .     S
Cu1092 O1120   1.955   .     S
Cu1092 O1116   1.973   .     S
F1093  C822    1.364   1_565 S
H1098  C284    1.079   1_556 S
H1110  N321    1.028   1_556 S
N1114  N321    1.288   1_556 S
N1114  H319    1.028   1_556 S
C1123  C1152   1.431   .     S
C1123  O1181   1.293   .     A
C1123  O1183   1.290   .     A
C1124  H1171   1.083   .     S
C1124  C1126   1.394   .     A
C1124  C1135   1.394   .     A
C1125  C1155   1.442   .     S
C1125  C1156   1.394   .     A
C1125  C1127   1.388   .     A
C1126  C1154   1.442   .     S
C1126  C1128   1.388   .     A
C1127  C1129   1.399   .     A
C1127  H1172   1.082   .     S
C1128  H1173   1.082   .     S
C1128  C1130   1.399   .     A
C1129  C1131   1.419   .     A
C1129  C1136   1.417   .     A
C1130  C1137   1.417   .     A
C1130  C1132   1.419   .     A
C1131  C1133   1.412   .     A
C1131  C1066   1.399   1_655 S
C1132  C1135   1.412   .     A
C1133  C1151   1.402   .     A
C1133  C1156   1.394   .     A
C1134  O1184   1.290   .     A
C1134  C1153   1.431   .     S
C1134  O1182   1.293   .     A
C1135  C1145   1.402   .     A
C1136  C1138   1.493   .     S
C1136  C1079   1.403   1_655 S
C1137  C1144   1.493   .     S
C1138  C1139   1.409   .     A
C1139  H1178   1.083   .     S
C1140  H1162   1.082   .     S
C1140  C1141   1.395   .     A
C1140  C875    1.397   1_565 S
C1141  C1142   1.394   .     A
C1141  H1163   1.081   .     S
C1142  C1143   1.397   .     A
C1143  H1165   1.075   .     S
C1143  C874    1.404   1_565 S
C1144  C1150   1.409   .     A
C1144  C882    1.404   1_565 S
C1145  H1174   1.084   .     S
C1146  C1147   1.397   .     A
C1146  H1166   1.075   .     S
C1147  C1148   1.394   .     A
C1147  H375    1.079   1_556 S
C1148  C1149   1.395   .     A
C1148  H1168   1.081   .     S
C1149  H1169   1.082   .     S
C1150  H1170   1.083   .     S
C1150  C885    1.397   1_565 S
C1151  H1175   1.084   .     S
C1151  C1071   1.403   1_655 S
C1153  C888    1.339   1_565 S
C1153  F896    1.364   1_565 S
C1154  O1185   1.296   .     A
C1154  O1187   1.293   .     A
C1155  O1186   1.296   .     A
C1155  O1188   1.293   .     A
C1156  H1161   1.083   .     S
Cu1157 O1188   1.947   .     S
Cu1157 O1185   1.955   .     S
Cu1157 O1184   1.967   .     S
Cu1157 O1181   1.973   .     S
Cu1157 N1180   2.025   .     S
Cu1157 Cu1158  2.695   .     S
Cu1158 O1183   1.967   .     S
Cu1158 N1179   2.025   .     S
Cu1158 O1187   1.947   .     S
Cu1158 O1186   1.955   .     S
Cu1158 O1182   1.973   .     S
F1159  C888    1.364   1_565 S
H1164  C350    1.079   1_556 S
H1176  N387    1.028   1_556 S
N1180  N387    1.288   1_556 S
N1180  H385    1.028   1_556 S
