data_str_m1_o1_o2_pcu_sym.83
_audit_creation_date              2020-01-03
_audit_creation_method            'Materials Studio'
_symmetry_space_group_name_H-M    'P1'
_symmetry_Int_Tables_number       1
_symmetry_cell_setting            triclinic
loop_
_symmetry_equiv_pos_as_xyz
  x,y,z
_cell_length_a                    36.5412
_cell_length_b                    36.5412
_cell_length_c                    34.6991
_cell_angle_alpha                 90.0000
_cell_angle_beta                  90.0000
_cell_angle_gamma                 90.0417
loop_
_atom_site_label
_atom_site_type_symbol
_atom_site_fract_x
_atom_site_fract_y
_atom_site_fract_z
_atom_site_U_iso_or_equiv
_atom_site_adp_type
_atom_site_occupancy
C1     C     0.22338   0.02024   0.04168   0.00000  Uiso   1.00
C2     C     0.03005   0.26461   0.45906   0.00000  Uiso   1.00
C3     C     0.34807   0.40193   0.75000   0.00000  Uiso   1.00
C4     C     0.40192   0.15192   0.25000   0.00000  Uiso   1.00
C5     C     0.09806   0.34806   0.75000   0.00000  Uiso   1.00
C6     C     0.34807   0.40193   0.25000   0.00000  Uiso   1.00
C7     C     0.15193   0.09807   0.75000   0.00000  Uiso   1.00
C8     C     0.09807   0.15193   0.75000   0.00000  Uiso   1.00
C9     C     0.40193   0.34807   0.25000   0.00000  Uiso   1.00
C10    C     0.15192   0.40192   0.75000   0.00000  Uiso   1.00
C11    C     0.34806   0.09806   0.25000   0.00000  Uiso   1.00
C12    C     0.40193   0.34807   0.75000   0.00000  Uiso   1.00
C13    C     0.23540   0.46994   0.54094   0.00000  Uiso   1.00
C14    C     0.09807   0.15193   0.25000   0.00000  Uiso   1.00
C15    C     0.34808   0.09808   0.75000   0.00000  Uiso   1.00
C16    C     0.15194   0.40194   0.25000   0.00000  Uiso   1.00
C17    C     0.25000  -0.00000   0.10242   0.00000  Uiso   1.00
C18    C     0.25000  -0.00000   0.89805   0.00000  Uiso   1.00
C19    C     0.00000   0.25000   0.10195   0.00000  Uiso   1.00
C20    C     0.00000   0.25000   0.89758   0.00000  Uiso   1.00
C21    C     0.00000   0.25000   0.60242   0.00000  Uiso   1.00
C22    C     0.00000   0.25000   0.39805   0.00000  Uiso   1.00
C23    C     0.25000  -0.00000   0.60195   0.00000  Uiso   1.00
C24    C     0.22976   0.02662   0.45832   0.00000  Uiso   1.00
C25    C     0.25000  -0.00000   0.39758   0.00000  Uiso   1.00
C26    C     0.20785   0.07374   0.01210   0.00000  Uiso   1.00
C27    C     0.30584   0.06401   0.98870   0.00000  Uiso   1.00
C28    C     0.43598   0.19418   0.01130   0.00000  Uiso   1.00
C29    C     0.42627   0.29217   0.98790   0.00000  Uiso   1.00
C30    C     0.29215   0.42626   0.01210   0.00000  Uiso   1.00
C31    C     0.19417   0.43599   0.98870   0.00000  Uiso   1.00
C32    C     0.06402   0.30582   0.01130   0.00000  Uiso   1.00
C33    C     0.07373   0.20783   0.98790   0.00000  Uiso   1.00
C34    C     0.45783   0.32373   0.51210   0.00000  Uiso   1.00
C35    C     0.02663   0.22977   0.54168   0.00000  Uiso   1.00
C36    C     0.05582   0.31402   0.48870   0.00000  Uiso   1.00
C37    C     0.18599   0.44416   0.51130   0.00000  Uiso   1.00
C38    C     0.17626   0.04215   0.48790   0.00000  Uiso   1.00
C39    C     0.04217   0.17627   0.51210   0.00000  Uiso   1.00
C40    C     0.44418   0.18598   0.48870   0.00000  Uiso   1.00
C41    C     0.31401   0.05583   0.51130   0.00000  Uiso   1.00
C42    C     0.32374   0.45785   0.48790   0.00000  Uiso   1.00
C43    C     0.46995   0.23539   0.45906   0.00000  Uiso   1.00
C44    C     0.26460   0.03005   0.54094   0.00000  Uiso   1.00
C45    C     0.27024   0.47338   0.45832   0.00000  Uiso   1.00
C46    C     0.22313   0.01992   0.08197   0.00000  Uiso   1.00
C47    C     0.28032   0.01424   0.91875   0.00000  Uiso   1.00
C48    C     0.48576   0.21969   0.08125   0.00000  Uiso   1.00
C49    C     0.28006   0.01460   0.95906   0.00000  Uiso   1.00
C50    C     0.48009   0.27687   0.91803   0.00000  Uiso   1.00
C51    C     0.27687   0.48008   0.08197   0.00000  Uiso   1.00
C52    C     0.21968   0.48576   0.91875   0.00000  Uiso   1.00
C53    C     0.01424   0.28031   0.08125   0.00000  Uiso   1.00
C54    C     0.01991   0.22313   0.91803   0.00000  Uiso   1.00
C55    C     0.47313   0.26991   0.58197   0.00000  Uiso   1.00
C56    C     0.03031   0.26424   0.41875   0.00000  Uiso   1.00
C57    C     0.23576   0.46968   0.58125   0.00000  Uiso   1.00
C58    C     0.23008   0.02687   0.41803   0.00000  Uiso   1.00
C59    C     0.02687   0.23009   0.58197   0.00000  Uiso   1.00
C60    C     0.48539   0.21995   0.04094   0.00000  Uiso   1.00
C61    C     0.46969   0.23575   0.41875   0.00000  Uiso   1.00
C62    C     0.26424   0.03032   0.58125   0.00000  Uiso   1.00
C63    C     0.26992   0.47313   0.41803   0.00000  Uiso   1.00
C64    C     0.25000  -0.00000   0.02153   0.00000  Uiso   1.00
C65    C     0.25000  -0.00000   0.97919   0.00000  Uiso   1.00
C66    C    -0.00000   0.25000   0.02082   0.00000  Uiso   1.00
C67    C     0.00000   0.25000   0.97848   0.00000  Uiso   1.00
C68    C     0.00000   0.25000   0.52152   0.00000  Uiso   1.00
C69    C     0.00000   0.25000   0.47919   0.00000  Uiso   1.00
C70    C     0.25000  -0.00000   0.52082   0.00000  Uiso   1.00
C71    C     0.47977   0.27663   0.95832   0.00000  Uiso   1.00
C72    C     0.25000  -0.00000   0.47848   0.00000  Uiso   1.00
C73    C     0.25000  -0.00000   0.35522   0.00000  Uiso   1.00
C74    C     0.25000  -0.00000   0.64461   0.00000  Uiso   1.00
C75    C     0.00000   0.25000   0.35539   0.00000  Uiso   1.00
C76    C     0.00000   0.25000   0.64478   0.00000  Uiso   1.00
C77    C     0.00000   0.25000   0.85522   0.00000  Uiso   1.00
C78    C     0.00000   0.25000   0.14461   0.00000  Uiso   1.00
C79    C     0.25000  -0.00000   0.85539   0.00000  Uiso   1.00
C80    C     0.25000  -0.00000   0.14478   0.00000  Uiso   1.00
C81    C     0.17999   0.07001   0.25000   0.00000  Uiso   1.00
C82    C     0.27662   0.47976   0.04168   0.00000  Uiso   1.00
C83    C     0.32001   0.42999   0.75000   0.00000  Uiso   1.00
C84    C     0.43000   0.18000   0.25000   0.00000  Uiso   1.00
C85    C     0.07000   0.32000   0.75000   0.00000  Uiso   1.00
C86    C     0.32001   0.42999   0.25000   0.00000  Uiso   1.00
C87    C     0.17999   0.07001   0.75000   0.00000  Uiso   1.00
C88    C     0.07000   0.32000   0.25000   0.00000  Uiso   1.00
C89    C     0.43000   0.18000   0.75000   0.00000  Uiso   1.00
C90    C     0.18000   0.43000   0.75000   0.00000  Uiso   1.00
C91    C     0.32000   0.07000   0.25000   0.00000  Uiso   1.00
C92    C     0.42999   0.32001   0.75000   0.00000  Uiso   1.00
C93    C     0.21995   0.48540   0.95906   0.00000  Uiso   1.00
C94    C     0.07001   0.17999   0.25000   0.00000  Uiso   1.00
C95    C     0.32000   0.07000   0.75000   0.00000  Uiso   1.00
C96    C     0.18000   0.43000   0.25000   0.00000  Uiso   1.00
C97    C     0.07001   0.17999   0.75000   0.00000  Uiso   1.00
C98    C     0.42999   0.32001   0.25000   0.00000  Uiso   1.00
C99    C     0.13314   0.39391   0.28434   0.00000  Uiso   1.00
C100   C     0.36697   0.10603   0.71570   0.00000  Uiso   1.00
C101   C     0.08811   0.11511   0.25557   0.00000  Uiso   1.00
C102   C     0.41190   0.38489   0.74442   0.00000  Uiso   1.00
C103   C     0.36686   0.10609   0.28434   0.00000  Uiso   1.00
C104   C     0.01461   0.28005   0.04094   0.00000  Uiso   1.00
C105   C     0.13303   0.39397   0.71570   0.00000  Uiso   1.00
C106   C     0.41189   0.38489   0.25557   0.00000  Uiso   1.00
C107   C     0.08810   0.11511   0.74442   0.00000  Uiso   1.00
C108   C     0.11511   0.08811   0.74443   0.00000  Uiso   1.00
C109   C     0.38489   0.41190   0.25558   0.00000  Uiso   1.00
C110   C     0.10609   0.36685   0.71566   0.00000  Uiso   1.00
C111   C     0.39397   0.13303   0.28430   0.00000  Uiso   1.00
C112   C     0.38489   0.41189   0.74443   0.00000  Uiso   1.00
C113   C     0.11511   0.08810   0.25558   0.00000  Uiso   1.00
C114   C     0.39391   0.13315   0.71566   0.00000  Uiso   1.00
C115   C     0.02023   0.22337   0.95832   0.00000  Uiso   1.00
C116   C     0.10603   0.36697   0.28430   0.00000  Uiso   1.00
C117   C     0.38315   0.14391   0.78434   0.00000  Uiso   1.00
C118   C     0.11697   0.35603   0.21570   0.00000  Uiso   1.00
C119   C     0.33811   0.36511   0.75557   0.00000  Uiso   1.00
C120   C     0.16190   0.13489   0.24442   0.00000  Uiso   1.00
C121   C     0.11686   0.35609   0.78434   0.00000  Uiso   1.00
C122   C     0.38303   0.14397   0.21570   0.00000  Uiso   1.00
C123   C     0.16189   0.13489   0.75557   0.00000  Uiso   1.00
C124   C     0.33810   0.36511   0.24442   0.00000  Uiso   1.00
C125   C     0.36511   0.33811   0.24443   0.00000  Uiso   1.00
C126   C     0.47337   0.27023   0.54168   0.00000  Uiso   1.00
C127   C     0.13489   0.16190   0.75558   0.00000  Uiso   1.00
C128   C     0.35609   0.11686   0.21566   0.00000  Uiso   1.00
C129   C     0.14397   0.38303   0.78430   0.00000  Uiso   1.00
C130   C     0.13489   0.16189   0.24443   0.00000  Uiso   1.00
C131   C     0.36511   0.33810   0.75558   0.00000  Uiso   1.00
C132   C     0.14391   0.38314   0.21566   0.00000  Uiso   1.00
C133   C     0.35603   0.11697   0.78430   0.00000  Uiso   1.00
C134   C     0.09808   0.34808   0.25000   0.00000  Uiso   1.00
C135   C     0.40194   0.15194   0.75000   0.00000  Uiso   1.00
C136   C     0.15193   0.09807   0.25000   0.00000  Uiso   1.00
Cl137  Cl    0.14236   0.41863   0.32715   0.00000  Uiso   1.00
Cl138  Cl    0.39722   0.45803   0.26438   0.00000  Uiso   1.00
Cl139  Cl    0.08137   0.35764   0.67285   0.00000  Uiso   1.00
Cl140  Cl    0.41907   0.14183   0.32693   0.00000  Uiso   1.00
Cl141  Cl    0.39723   0.45803   0.73565   0.00000  Uiso   1.00
Cl142  Cl    0.10278   0.04197   0.26438   0.00000  Uiso   1.00
Cl143  Cl    0.41863   0.14236   0.67285   0.00000  Uiso   1.00
Cl144  Cl    0.08094   0.35817   0.32693   0.00000  Uiso   1.00
Cl145  Cl    0.39236   0.16863   0.82715   0.00000  Uiso   1.00
Cl146  Cl    0.10817   0.33094   0.17307   0.00000  Uiso   1.00
Cl147  Cl    0.29197   0.35277   0.76435   0.00000  Uiso   1.00
Cl148  Cl    0.35816   0.08094   0.67307   0.00000  Uiso   1.00
Cl149  Cl    0.20803   0.14722   0.23562   0.00000  Uiso   1.00
Cl150  Cl    0.10764   0.33137   0.82715   0.00000  Uiso   1.00
Cl151  Cl    0.39183   0.16906   0.17307   0.00000  Uiso   1.00
Cl152  Cl    0.20803   0.14723   0.76434   0.00000  Uiso   1.00
Cl153  Cl    0.29197   0.35278   0.23562   0.00000  Uiso   1.00
Cl154  Cl    0.35277   0.29197   0.23565   0.00000  Uiso   1.00
Cl155  Cl    0.14722   0.20803   0.76438   0.00000  Uiso   1.00
Cl156  Cl    0.33136   0.10764   0.17286   0.00000  Uiso   1.00
Cl157  Cl    0.16906   0.39184   0.82693   0.00000  Uiso   1.00
Cl158  Cl    0.14723   0.20803   0.23565   0.00000  Uiso   1.00
Cl159  Cl    0.04197   0.10277   0.26435   0.00000  Uiso   1.00
Cl160  Cl    0.35278   0.29197   0.76438   0.00000  Uiso   1.00
Cl161  Cl    0.16863   0.39236   0.17286   0.00000  Uiso   1.00
Cl162  Cl    0.33094   0.10816   0.82693   0.00000  Uiso   1.00
Cl163  Cl    0.18956   0.04655   0.10573   0.00000  Uiso   1.00
Cl164  Cl    0.31905   0.03354   0.89579   0.00000  Uiso   1.00
Cl165  Cl    0.46644   0.18096   0.10421   0.00000  Uiso   1.00
Cl166  Cl    0.45347   0.31045   0.89428   0.00000  Uiso   1.00
Cl167  Cl    0.31044   0.45345   0.10573   0.00000  Uiso   1.00
Cl168  Cl    0.18095   0.46646   0.89579   0.00000  Uiso   1.00
Cl169  Cl    0.03356   0.31904   0.10421   0.00000  Uiso   1.00
Cl170  Cl    0.45803   0.39722   0.73562   0.00000  Uiso   1.00
Cl171  Cl    0.04653   0.18955   0.89428   0.00000  Uiso   1.00
Cl172  Cl    0.43955   0.29653   0.60572   0.00000  Uiso   1.00
Cl173  Cl    0.06904   0.28356   0.39579   0.00000  Uiso   1.00
Cl174  Cl    0.21646   0.43095   0.60421   0.00000  Uiso   1.00
Cl175  Cl    0.20345   0.06044   0.39428   0.00000  Uiso   1.00
Cl176  Cl    0.06045   0.20347   0.60572   0.00000  Uiso   1.00
Cl177  Cl    0.43096   0.21644   0.39579   0.00000  Uiso   1.00
Cl178  Cl    0.28354   0.06905   0.60421   0.00000  Uiso   1.00
Cl179  Cl    0.29655   0.43956   0.39428   0.00000  Uiso   1.00
Cl180  Cl    0.35764   0.08136   0.32714   0.00000  Uiso   1.00
Cl181  Cl    0.14184   0.41906   0.67307   0.00000  Uiso   1.00
Cl182  Cl    0.45803   0.39723   0.26435   0.00000  Uiso   1.00
Cl183  Cl    0.04197   0.10278   0.73562   0.00000  Uiso   1.00
Cl184  Cl    0.10277   0.04197   0.73565   0.00000  Uiso   1.00
H185   H     0.22619   0.07255   0.98664   0.00000  Uiso   1.00
H186   H     0.42745   0.27382   0.01336   0.00000  Uiso   1.00
H187   H     0.41189   0.27846   0.96352   0.00000  Uiso   1.00
H188   H     0.40969   0.31632   0.99619   0.00000  Uiso   1.00
H189   H     0.27381   0.42745   0.98665   0.00000  Uiso   1.00
H190   H     0.27844   0.41188   0.03648   0.00000  Uiso   1.00
H191   H     0.31630   0.40967   0.00381   0.00000  Uiso   1.00
H192   H     0.21238   0.43353   0.01415   0.00000  Uiso   1.00
H193   H     0.20476   0.41922   0.96431   0.00000  Uiso   1.00
H194   H     0.16720   0.42447   0.99697   0.00000  Uiso   1.00
H195   H     0.06648   0.28761   0.98585   0.00000  Uiso   1.00
H196   H     0.22156   0.08812   0.03648   0.00000  Uiso   1.00
H197   H     0.08079   0.29522   0.03569   0.00000  Uiso   1.00
H198   H     0.07555   0.33278   0.00303   0.00000  Uiso   1.00
H199   H     0.07255   0.22618   0.01336   0.00000  Uiso   1.00
H200   H     0.08811   0.22154   0.96352   0.00000  Uiso   1.00
H201   H     0.09031   0.18368   0.99619   0.00000  Uiso   1.00
H202   H     0.47618   0.32255   0.48664   0.00000  Uiso   1.00
H203   H     0.47154   0.33811   0.53648   0.00000  Uiso   1.00
H204   H     0.43368   0.34031   0.50381   0.00000  Uiso   1.00
H205   H     0.03761   0.31648   0.51415   0.00000  Uiso   1.00
H206   H     0.04522   0.33079   0.46431   0.00000  Uiso   1.00
H207   H     0.18370   0.09033   0.00381   0.00000  Uiso   1.00
H208   H     0.08278   0.32555   0.49697   0.00000  Uiso   1.00
H209   H     0.18353   0.46238   0.48585   0.00000  Uiso   1.00
H210   H     0.16922   0.45476   0.53569   0.00000  Uiso   1.00
H211   H     0.17447   0.41720   0.50303   0.00000  Uiso   1.00
H212   H     0.17745   0.02381   0.51335   0.00000  Uiso   1.00
H213   H     0.16188   0.02844   0.46352   0.00000  Uiso   1.00
H214   H     0.15967   0.06630   0.49619   0.00000  Uiso   1.00
H215   H     0.02382   0.17745   0.48664   0.00000  Uiso   1.00
H216   H     0.02846   0.16189   0.53648   0.00000  Uiso   1.00
H217   H     0.06632   0.15969   0.50381   0.00000  Uiso   1.00
H218   H     0.28762   0.06647   0.01415   0.00000  Uiso   1.00
H219   H     0.46239   0.18352   0.51415   0.00000  Uiso   1.00
H220   H     0.45478   0.16920   0.46431   0.00000  Uiso   1.00
H221   H     0.41722   0.17445   0.49697   0.00000  Uiso   1.00
H222   H     0.31647   0.03762   0.48585   0.00000  Uiso   1.00
H223   H     0.33078   0.04524   0.53569   0.00000  Uiso   1.00
H224   H     0.32553   0.08280   0.50303   0.00000  Uiso   1.00
H225   H     0.32255   0.47619   0.51336   0.00000  Uiso   1.00
H226   H     0.33812   0.47156   0.46352   0.00000  Uiso   1.00
H227   H     0.34033   0.43370   0.49619   0.00000  Uiso   1.00
H228   H     0.29524   0.08078   0.96431   0.00000  Uiso   1.00
H229   H     0.33280   0.07553   0.99697   0.00000  Uiso   1.00
H230   H     0.43352   0.21239   0.98585   0.00000  Uiso   1.00
H231   H     0.41921   0.20478   0.03569   0.00000  Uiso   1.00
H232   H     0.42445   0.16722   0.00303   0.00000  Uiso   1.00
O233   O     0.25000  -0.00000   0.25000   0.00000  Uiso   1.00
O234   O     0.25000   0.46964   0.66317   0.00000  Uiso   1.00
O235   O     0.46964   0.25000   0.33683   0.00000  Uiso   1.00
O236   O     0.03036   0.25000   0.66317   0.00000  Uiso   1.00
O237   O     0.00000   0.21964   0.83683   0.00000  Uiso   1.00
O238   O     0.00000   0.28036   0.16317   0.00000  Uiso   1.00
O239   O     0.28036  -0.00000   0.83683   0.00000  Uiso   1.00
O240   O     0.21964  -0.00000   0.16317   0.00000  Uiso   1.00
O241   O     0.00000   0.28036   0.83683   0.00000  Uiso   1.00
O242   O     0.00000   0.21964   0.16317   0.00000  Uiso   1.00
O243   O     0.21964  -0.00000   0.83683   0.00000  Uiso   1.00
O244   O     0.25000  -0.00000   0.75000   0.00000  Uiso   1.00
O245   O     0.28036  -0.00000   0.16317   0.00000  Uiso   1.00
O246   O     0.20726   0.07307   0.27282   0.00000  Uiso   1.00
O247   O     0.29275   0.42693   0.72718   0.00000  Uiso   1.00
O248   O     0.42693   0.20725   0.27282   0.00000  Uiso   1.00
O249   O     0.07307   0.29274   0.72718   0.00000  Uiso   1.00
O250   O     0.29275   0.42693   0.27282   0.00000  Uiso   1.00
O251   O     0.20726   0.07307   0.72718   0.00000  Uiso   1.00
O252   O     0.07307   0.29274   0.27282   0.00000  Uiso   1.00
O253   O     0.42693   0.20725   0.72718   0.00000  Uiso   1.00
O254   O     0.20726   0.42693   0.72718   0.00000  Uiso   1.00
O255   O     0.00000   0.25000   0.25000   0.00000  Uiso   1.00
O256   O     0.29275   0.07307   0.27282   0.00000  Uiso   1.00
O257   O     0.42693   0.29274   0.72718   0.00000  Uiso   1.00
O258   O     0.07307   0.20725   0.27282   0.00000  Uiso   1.00
O259   O     0.29275   0.07307   0.72718   0.00000  Uiso   1.00
O260   O     0.20726   0.42693   0.27282   0.00000  Uiso   1.00
O261   O     0.07307   0.20725   0.72718   0.00000  Uiso   1.00
O262   O     0.42693   0.29274   0.27282   0.00000  Uiso   1.00
O263   O     0.45726   0.32307   0.77282   0.00000  Uiso   1.00
O264   O     0.04275   0.17693   0.22718   0.00000  Uiso   1.00
O265   O     0.17693   0.45725   0.77282   0.00000  Uiso   1.00
O266   O     0.00000   0.25000   0.75000   0.00000  Uiso   1.00
O267   O     0.32307   0.04274   0.22718   0.00000  Uiso   1.00
O268   O     0.04275   0.17693   0.77282   0.00000  Uiso   1.00
O269   O     0.45726   0.32307   0.22718   0.00000  Uiso   1.00
O270   O     0.32307   0.04274   0.77282   0.00000  Uiso   1.00
O271   O     0.17693   0.45725   0.22718   0.00000  Uiso   1.00
O272   O     0.45726   0.17693   0.22718   0.00000  Uiso   1.00
O273   O     0.04275   0.32307   0.77282   0.00000  Uiso   1.00
O274   O     0.17693   0.04274   0.22718   0.00000  Uiso   1.00
O275   O     0.32307   0.45725   0.77282   0.00000  Uiso   1.00
O276   O     0.04275   0.32307   0.22718   0.00000  Uiso   1.00
O277   O     0.25000   0.46964   0.33683   0.00000  Uiso   1.00
O278   O     0.45726   0.17693   0.77282   0.00000  Uiso   1.00
O279   O     0.32307   0.45725   0.22718   0.00000  Uiso   1.00
O280   O     0.17693   0.04274   0.77282   0.00000  Uiso   1.00
O281   O     0.19572   0.03837   0.02218   0.00000  Uiso   1.00
O282   O     0.31072   0.02693   0.97866   0.00000  Uiso   1.00
O283   O     0.47305   0.18929   0.02134   0.00000  Uiso   1.00
O284   O     0.46164   0.30429   0.97782   0.00000  Uiso   1.00
O285   O     0.30428   0.46163   0.02218   0.00000  Uiso   1.00
O286   O     0.18928   0.47307   0.97866   0.00000  Uiso   1.00
O287   O     0.02695   0.31071   0.02134   0.00000  Uiso   1.00
O288   O     0.25000   0.03036   0.66317   0.00000  Uiso   1.00
O289   O     0.03836   0.19571   0.97782   0.00000  Uiso   1.00
O290   O     0.44571   0.28836   0.52218   0.00000  Uiso   1.00
O291   O     0.06071   0.27695   0.47866   0.00000  Uiso   1.00
O292   O     0.22307   0.43928   0.52134   0.00000  Uiso   1.00
O293   O     0.21163   0.05428   0.47782   0.00000  Uiso   1.00
O294   O     0.05429   0.21164   0.52218   0.00000  Uiso   1.00
O295   O     0.43929   0.22305   0.47866   0.00000  Uiso   1.00
O296   O     0.27693   0.06072   0.52134   0.00000  Uiso   1.00
O297   O     0.28837   0.44572   0.47782   0.00000  Uiso   1.00
O298   O     0.03036   0.25000   0.33683   0.00000  Uiso   1.00
O299   O     0.46964   0.25000   0.66317   0.00000  Uiso   1.00
O300   O     0.25000   0.03036   0.33683   0.00000  Uiso   1.00
Zn301  Zn    0.20660  -0.00000   0.21760   0.00000  Uiso   1.00
Zn302  Zn    0.04340   0.25000   0.28240   0.00000  Uiso   1.00
Zn303  Zn    0.25000   0.45660   0.71760   0.00000  Uiso   1.00
Zn304  Zn    0.25000   0.04340   0.28240   0.00000  Uiso   1.00
Zn305  Zn    0.04340   0.25000   0.71760   0.00000  Uiso   1.00
Zn306  Zn    0.45660   0.25000   0.28240   0.00000  Uiso   1.00
Zn307  Zn    0.25000   0.04340   0.71760   0.00000  Uiso   1.00
Zn308  Zn    0.25000   0.45660   0.28240   0.00000  Uiso   1.00
Zn309  Zn    0.29340  -0.00000   0.78240   0.00000  Uiso   1.00
Zn310  Zn    0.00000   0.20660   0.21760   0.00000  Uiso   1.00
Zn311  Zn    0.00000   0.29340   0.78240   0.00000  Uiso   1.00
Zn312  Zn    0.29340  -0.00000   0.21760   0.00000  Uiso   1.00
Zn313  Zn    0.20660  -0.00000   0.78240   0.00000  Uiso   1.00
Zn314  Zn    0.00000   0.29340   0.21760   0.00000  Uiso   1.00
Zn315  Zn    0.00000   0.20660   0.78240   0.00000  Uiso   1.00
Zn316  Zn    0.45660   0.25000   0.71760   0.00000  Uiso   1.00
C317   C     0.72338   0.02024   0.04168   0.00000  Uiso   1.00
C318   C     0.53005   0.26461   0.45906   0.00000  Uiso   1.00
C319   C     0.84807   0.40193   0.75000   0.00000  Uiso   1.00
C320   C     0.90192   0.15192   0.25000   0.00000  Uiso   1.00
C321   C     0.59806   0.34806   0.75000   0.00000  Uiso   1.00
C322   C     0.84807   0.40193   0.25000   0.00000  Uiso   1.00
C323   C     0.65193   0.09807   0.75000   0.00000  Uiso   1.00
C324   C     0.59807   0.15193   0.75000   0.00000  Uiso   1.00
C325   C     0.90193   0.34807   0.25000   0.00000  Uiso   1.00
C326   C     0.65192   0.40192   0.75000   0.00000  Uiso   1.00
C327   C     0.84806   0.09806   0.25000   0.00000  Uiso   1.00
C328   C     0.90193   0.34807   0.75000   0.00000  Uiso   1.00
C329   C     0.73540   0.46994   0.54094   0.00000  Uiso   1.00
C330   C     0.59807   0.15193   0.25000   0.00000  Uiso   1.00
C331   C     0.84808   0.09808   0.75000   0.00000  Uiso   1.00
C332   C     0.65194   0.40194   0.25000   0.00000  Uiso   1.00
C333   C     0.75000  -0.00000   0.10242   0.00000  Uiso   1.00
C334   C     0.75000  -0.00000   0.89805   0.00000  Uiso   1.00
C335   C     0.50000   0.25000   0.10195   0.00000  Uiso   1.00
C336   C     0.50000   0.25000   0.89758   0.00000  Uiso   1.00
C337   C     0.50000   0.25000   0.60242   0.00000  Uiso   1.00
C338   C     0.50000   0.25000   0.39805   0.00000  Uiso   1.00
C339   C     0.75000  -0.00000   0.60195   0.00000  Uiso   1.00
C340   C     0.72976   0.02662   0.45832   0.00000  Uiso   1.00
C341   C     0.75000  -0.00000   0.39758   0.00000  Uiso   1.00
C342   C     0.70785   0.07374   0.01210   0.00000  Uiso   1.00
C343   C     0.80584   0.06401   0.98870   0.00000  Uiso   1.00
C344   C     0.93598   0.19418   0.01130   0.00000  Uiso   1.00
C345   C     0.92627   0.29217   0.98790   0.00000  Uiso   1.00
C346   C     0.79215   0.42626   0.01210   0.00000  Uiso   1.00
C347   C     0.69417   0.43599   0.98870   0.00000  Uiso   1.00
C348   C     0.56402   0.30582   0.01130   0.00000  Uiso   1.00
C349   C     0.57373   0.20783   0.98790   0.00000  Uiso   1.00
C350   C     0.95783   0.32373   0.51210   0.00000  Uiso   1.00
C351   C     0.52663   0.22977   0.54168   0.00000  Uiso   1.00
C352   C     0.55582   0.31402   0.48870   0.00000  Uiso   1.00
C353   C     0.68599   0.44416   0.51130   0.00000  Uiso   1.00
C354   C     0.67626   0.04215   0.48790   0.00000  Uiso   1.00
C355   C     0.54217   0.17627   0.51210   0.00000  Uiso   1.00
C356   C     0.94418   0.18598   0.48870   0.00000  Uiso   1.00
C357   C     0.81401   0.05583   0.51130   0.00000  Uiso   1.00
C358   C     0.82374   0.45785   0.48790   0.00000  Uiso   1.00
C359   C     0.96995   0.23539   0.45906   0.00000  Uiso   1.00
C360   C     0.76460   0.03005   0.54094   0.00000  Uiso   1.00
C361   C     0.77024   0.47338   0.45832   0.00000  Uiso   1.00
C362   C     0.72313   0.01992   0.08197   0.00000  Uiso   1.00
C363   C     0.78032   0.01424   0.91875   0.00000  Uiso   1.00
C364   C     0.98576   0.21969   0.08125   0.00000  Uiso   1.00
C365   C     0.78006   0.01460   0.95906   0.00000  Uiso   1.00
C366   C     0.98009   0.27687   0.91803   0.00000  Uiso   1.00
C367   C     0.77687   0.48008   0.08197   0.00000  Uiso   1.00
C368   C     0.71968   0.48576   0.91875   0.00000  Uiso   1.00
C369   C     0.51424   0.28031   0.08125   0.00000  Uiso   1.00
C370   C     0.51991   0.22313   0.91803   0.00000  Uiso   1.00
C371   C     0.97313   0.26991   0.58197   0.00000  Uiso   1.00
C372   C     0.53031   0.26424   0.41875   0.00000  Uiso   1.00
C373   C     0.73576   0.46968   0.58125   0.00000  Uiso   1.00
C374   C     0.73008   0.02687   0.41803   0.00000  Uiso   1.00
C375   C     0.52687   0.23009   0.58197   0.00000  Uiso   1.00
C376   C     0.98539   0.21995   0.04094   0.00000  Uiso   1.00
C377   C     0.96969   0.23575   0.41875   0.00000  Uiso   1.00
C378   C     0.76424   0.03032   0.58125   0.00000  Uiso   1.00
C379   C     0.76992   0.47313   0.41803   0.00000  Uiso   1.00
C380   C     0.75000  -0.00000   0.02153   0.00000  Uiso   1.00
C381   C     0.75000  -0.00000   0.97919   0.00000  Uiso   1.00
C382   C     0.50000   0.25000   0.02082   0.00000  Uiso   1.00
C383   C     0.50000   0.25000   0.97848   0.00000  Uiso   1.00
C384   C     0.50000   0.25000   0.52152   0.00000  Uiso   1.00
C385   C     0.50000   0.25000   0.47919   0.00000  Uiso   1.00
C386   C     0.75000  -0.00000   0.52082   0.00000  Uiso   1.00
C387   C     0.97977   0.27663   0.95832   0.00000  Uiso   1.00
C388   C     0.75000  -0.00000   0.47848   0.00000  Uiso   1.00
C389   C     0.75000  -0.00000   0.35522   0.00000  Uiso   1.00
C390   C     0.75000  -0.00000   0.64461   0.00000  Uiso   1.00
C391   C     0.50000   0.25000   0.35539   0.00000  Uiso   1.00
C392   C     0.50000   0.25000   0.64478   0.00000  Uiso   1.00
C393   C     0.50000   0.25000   0.85522   0.00000  Uiso   1.00
C394   C     0.50000   0.25000   0.14461   0.00000  Uiso   1.00
C395   C     0.75000  -0.00000   0.85539   0.00000  Uiso   1.00
C396   C     0.75000  -0.00000   0.14478   0.00000  Uiso   1.00
C397   C     0.67999   0.07001   0.25000   0.00000  Uiso   1.00
C398   C     0.77662   0.47976   0.04168   0.00000  Uiso   1.00
C399   C     0.82001   0.42999   0.75000   0.00000  Uiso   1.00
C400   C     0.93000   0.18000   0.25000   0.00000  Uiso   1.00
C401   C     0.57000   0.32000   0.75000   0.00000  Uiso   1.00
C402   C     0.82001   0.42999   0.25000   0.00000  Uiso   1.00
C403   C     0.67999   0.07001   0.75000   0.00000  Uiso   1.00
C404   C     0.57000   0.32000   0.25000   0.00000  Uiso   1.00
C405   C     0.93000   0.18000   0.75000   0.00000  Uiso   1.00
C406   C     0.68000   0.43000   0.75000   0.00000  Uiso   1.00
C407   C     0.82000   0.07000   0.25000   0.00000  Uiso   1.00
C408   C     0.92999   0.32001   0.75000   0.00000  Uiso   1.00
C409   C     0.71995   0.48540   0.95906   0.00000  Uiso   1.00
C410   C     0.57001   0.17999   0.25000   0.00000  Uiso   1.00
C411   C     0.82000   0.07000   0.75000   0.00000  Uiso   1.00
C412   C     0.68000   0.43000   0.25000   0.00000  Uiso   1.00
C413   C     0.57001   0.17999   0.75000   0.00000  Uiso   1.00
C414   C     0.92999   0.32001   0.25000   0.00000  Uiso   1.00
C415   C     0.63314   0.39391   0.28434   0.00000  Uiso   1.00
C416   C     0.86697   0.10603   0.71570   0.00000  Uiso   1.00
C417   C     0.58811   0.11511   0.25557   0.00000  Uiso   1.00
C418   C     0.91190   0.38489   0.74442   0.00000  Uiso   1.00
C419   C     0.86686   0.10609   0.28434   0.00000  Uiso   1.00
C420   C     0.51461   0.28005   0.04094   0.00000  Uiso   1.00
C421   C     0.63303   0.39397   0.71570   0.00000  Uiso   1.00
C422   C     0.91189   0.38489   0.25557   0.00000  Uiso   1.00
C423   C     0.58810   0.11511   0.74442   0.00000  Uiso   1.00
C424   C     0.61511   0.08811   0.74443   0.00000  Uiso   1.00
C425   C     0.88489   0.41190   0.25558   0.00000  Uiso   1.00
C426   C     0.60609   0.36685   0.71566   0.00000  Uiso   1.00
C427   C     0.89397   0.13303   0.28430   0.00000  Uiso   1.00
C428   C     0.88489   0.41189   0.74443   0.00000  Uiso   1.00
C429   C     0.61511   0.08810   0.25558   0.00000  Uiso   1.00
C430   C     0.89391   0.13315   0.71566   0.00000  Uiso   1.00
C431   C     0.52023   0.22337   0.95832   0.00000  Uiso   1.00
C432   C     0.60603   0.36697   0.28430   0.00000  Uiso   1.00
C433   C     0.88315   0.14391   0.78434   0.00000  Uiso   1.00
C434   C     0.61697   0.35603   0.21570   0.00000  Uiso   1.00
C435   C     0.83811   0.36511   0.75557   0.00000  Uiso   1.00
C436   C     0.66190   0.13489   0.24442   0.00000  Uiso   1.00
C437   C     0.61686   0.35609   0.78434   0.00000  Uiso   1.00
C438   C     0.88303   0.14397   0.21570   0.00000  Uiso   1.00
C439   C     0.66189   0.13489   0.75557   0.00000  Uiso   1.00
C440   C     0.83810   0.36511   0.24442   0.00000  Uiso   1.00
C441   C     0.86511   0.33811   0.24443   0.00000  Uiso   1.00
C442   C     0.97337   0.27023   0.54168   0.00000  Uiso   1.00
C443   C     0.63489   0.16190   0.75558   0.00000  Uiso   1.00
C444   C     0.85609   0.11686   0.21566   0.00000  Uiso   1.00
C445   C     0.64397   0.38303   0.78430   0.00000  Uiso   1.00
C446   C     0.63489   0.16189   0.24443   0.00000  Uiso   1.00
C447   C     0.86511   0.33810   0.75558   0.00000  Uiso   1.00
C448   C     0.64391   0.38314   0.21566   0.00000  Uiso   1.00
C449   C     0.85603   0.11697   0.78430   0.00000  Uiso   1.00
C450   C     0.59808   0.34808   0.25000   0.00000  Uiso   1.00
C451   C     0.90194   0.15194   0.75000   0.00000  Uiso   1.00
C452   C     0.65193   0.09807   0.25000   0.00000  Uiso   1.00
Cl453  Cl    0.64236   0.41863   0.32715   0.00000  Uiso   1.00
Cl454  Cl    0.89722   0.45803   0.26438   0.00000  Uiso   1.00
Cl455  Cl    0.58137   0.35764   0.67285   0.00000  Uiso   1.00
Cl456  Cl    0.91907   0.14183   0.32693   0.00000  Uiso   1.00
Cl457  Cl    0.89723   0.45803   0.73565   0.00000  Uiso   1.00
Cl458  Cl    0.60278   0.04197   0.26438   0.00000  Uiso   1.00
Cl459  Cl    0.91863   0.14236   0.67285   0.00000  Uiso   1.00
Cl460  Cl    0.58094   0.35817   0.32693   0.00000  Uiso   1.00
Cl461  Cl    0.89236   0.16863   0.82715   0.00000  Uiso   1.00
Cl462  Cl    0.60817   0.33094   0.17307   0.00000  Uiso   1.00
Cl463  Cl    0.79197   0.35277   0.76435   0.00000  Uiso   1.00
Cl464  Cl    0.85816   0.08094   0.67307   0.00000  Uiso   1.00
Cl465  Cl    0.70803   0.14722   0.23562   0.00000  Uiso   1.00
Cl466  Cl    0.60764   0.33137   0.82715   0.00000  Uiso   1.00
Cl467  Cl    0.89183   0.16906   0.17307   0.00000  Uiso   1.00
Cl468  Cl    0.70803   0.14723   0.76434   0.00000  Uiso   1.00
Cl469  Cl    0.79197   0.35278   0.23562   0.00000  Uiso   1.00
Cl470  Cl    0.85277   0.29197   0.23565   0.00000  Uiso   1.00
Cl471  Cl    0.64722   0.20803   0.76438   0.00000  Uiso   1.00
Cl472  Cl    0.83136   0.10764   0.17286   0.00000  Uiso   1.00
Cl473  Cl    0.66906   0.39184   0.82693   0.00000  Uiso   1.00
Cl474  Cl    0.64723   0.20803   0.23565   0.00000  Uiso   1.00
Cl475  Cl    0.54197   0.10277   0.26435   0.00000  Uiso   1.00
Cl476  Cl    0.85278   0.29197   0.76438   0.00000  Uiso   1.00
Cl477  Cl    0.66863   0.39236   0.17286   0.00000  Uiso   1.00
Cl478  Cl    0.83094   0.10816   0.82693   0.00000  Uiso   1.00
Cl479  Cl    0.68956   0.04655   0.10573   0.00000  Uiso   1.00
Cl480  Cl    0.81905   0.03354   0.89579   0.00000  Uiso   1.00
Cl481  Cl    0.96644   0.18096   0.10421   0.00000  Uiso   1.00
Cl482  Cl    0.95347   0.31045   0.89428   0.00000  Uiso   1.00
Cl483  Cl    0.81044   0.45345   0.10573   0.00000  Uiso   1.00
Cl484  Cl    0.68095   0.46646   0.89579   0.00000  Uiso   1.00
Cl485  Cl    0.53356   0.31904   0.10421   0.00000  Uiso   1.00
Cl486  Cl    0.95803   0.39722   0.73562   0.00000  Uiso   1.00
Cl487  Cl    0.54653   0.18955   0.89428   0.00000  Uiso   1.00
Cl488  Cl    0.93955   0.29653   0.60572   0.00000  Uiso   1.00
Cl489  Cl    0.56904   0.28356   0.39579   0.00000  Uiso   1.00
Cl490  Cl    0.71646   0.43095   0.60421   0.00000  Uiso   1.00
Cl491  Cl    0.70345   0.06044   0.39428   0.00000  Uiso   1.00
Cl492  Cl    0.56045   0.20347   0.60572   0.00000  Uiso   1.00
Cl493  Cl    0.93096   0.21644   0.39579   0.00000  Uiso   1.00
Cl494  Cl    0.78354   0.06905   0.60421   0.00000  Uiso   1.00
Cl495  Cl    0.79655   0.43956   0.39428   0.00000  Uiso   1.00
Cl496  Cl    0.85764   0.08136   0.32714   0.00000  Uiso   1.00
Cl497  Cl    0.64184   0.41906   0.67307   0.00000  Uiso   1.00
Cl498  Cl    0.95803   0.39723   0.26435   0.00000  Uiso   1.00
Cl499  Cl    0.54197   0.10278   0.73562   0.00000  Uiso   1.00
Cl500  Cl    0.60277   0.04197   0.73565   0.00000  Uiso   1.00
H501   H     0.72619   0.07255   0.98664   0.00000  Uiso   1.00
H502   H     0.92745   0.27382   0.01336   0.00000  Uiso   1.00
H503   H     0.91189   0.27846   0.96352   0.00000  Uiso   1.00
H504   H     0.90969   0.31632   0.99619   0.00000  Uiso   1.00
H505   H     0.77381   0.42745   0.98665   0.00000  Uiso   1.00
H506   H     0.77844   0.41188   0.03648   0.00000  Uiso   1.00
H507   H     0.81630   0.40967   0.00381   0.00000  Uiso   1.00
H508   H     0.71238   0.43353   0.01415   0.00000  Uiso   1.00
H509   H     0.70476   0.41922   0.96431   0.00000  Uiso   1.00
H510   H     0.66720   0.42447   0.99697   0.00000  Uiso   1.00
H511   H     0.56648   0.28761   0.98585   0.00000  Uiso   1.00
H512   H     0.72156   0.08812   0.03648   0.00000  Uiso   1.00
H513   H     0.58079   0.29522   0.03569   0.00000  Uiso   1.00
H514   H     0.57555   0.33278   0.00303   0.00000  Uiso   1.00
H515   H     0.57255   0.22618   0.01336   0.00000  Uiso   1.00
H516   H     0.58811   0.22154   0.96352   0.00000  Uiso   1.00
H517   H     0.59031   0.18368   0.99619   0.00000  Uiso   1.00
H518   H     0.97618   0.32255   0.48664   0.00000  Uiso   1.00
H519   H     0.97154   0.33811   0.53648   0.00000  Uiso   1.00
H520   H     0.93368   0.34031   0.50381   0.00000  Uiso   1.00
H521   H     0.53761   0.31648   0.51415   0.00000  Uiso   1.00
H522   H     0.54522   0.33079   0.46431   0.00000  Uiso   1.00
H523   H     0.68370   0.09033   0.00381   0.00000  Uiso   1.00
H524   H     0.58278   0.32555   0.49697   0.00000  Uiso   1.00
H525   H     0.68353   0.46238   0.48585   0.00000  Uiso   1.00
H526   H     0.66922   0.45476   0.53569   0.00000  Uiso   1.00
H527   H     0.67447   0.41720   0.50303   0.00000  Uiso   1.00
H528   H     0.67745   0.02381   0.51335   0.00000  Uiso   1.00
H529   H     0.66188   0.02844   0.46352   0.00000  Uiso   1.00
H530   H     0.65967   0.06630   0.49619   0.00000  Uiso   1.00
H531   H     0.52382   0.17745   0.48664   0.00000  Uiso   1.00
H532   H     0.52846   0.16189   0.53648   0.00000  Uiso   1.00
H533   H     0.56632   0.15969   0.50381   0.00000  Uiso   1.00
H534   H     0.78762   0.06647   0.01415   0.00000  Uiso   1.00
H535   H     0.96239   0.18352   0.51415   0.00000  Uiso   1.00
H536   H     0.95478   0.16920   0.46431   0.00000  Uiso   1.00
H537   H     0.91722   0.17445   0.49697   0.00000  Uiso   1.00
H538   H     0.81647   0.03762   0.48585   0.00000  Uiso   1.00
H539   H     0.83078   0.04524   0.53569   0.00000  Uiso   1.00
H540   H     0.82553   0.08280   0.50303   0.00000  Uiso   1.00
H541   H     0.82255   0.47619   0.51336   0.00000  Uiso   1.00
H542   H     0.83812   0.47156   0.46352   0.00000  Uiso   1.00
H543   H     0.84033   0.43370   0.49619   0.00000  Uiso   1.00
H544   H     0.79524   0.08078   0.96431   0.00000  Uiso   1.00
H545   H     0.83280   0.07553   0.99697   0.00000  Uiso   1.00
H546   H     0.93352   0.21239   0.98585   0.00000  Uiso   1.00
H547   H     0.91921   0.20478   0.03569   0.00000  Uiso   1.00
H548   H     0.92445   0.16722   0.00303   0.00000  Uiso   1.00
O549   O     0.75000  -0.00000   0.25000   0.00000  Uiso   1.00
O550   O     0.75000   0.46964   0.66317   0.00000  Uiso   1.00
O551   O     0.96964   0.25000   0.33683   0.00000  Uiso   1.00
O552   O     0.53036   0.25000   0.66317   0.00000  Uiso   1.00
O553   O     0.50000   0.21964   0.83683   0.00000  Uiso   1.00
O554   O     0.50000   0.28036   0.16317   0.00000  Uiso   1.00
O555   O     0.78036  -0.00000   0.83683   0.00000  Uiso   1.00
O556   O     0.71964  -0.00000   0.16317   0.00000  Uiso   1.00
O557   O     0.50000   0.28036   0.83683   0.00000  Uiso   1.00
O558   O     0.50000   0.21964   0.16317   0.00000  Uiso   1.00
O559   O     0.71964  -0.00000   0.83683   0.00000  Uiso   1.00
O560   O     0.75000  -0.00000   0.75000   0.00000  Uiso   1.00
O561   O     0.78036  -0.00000   0.16317   0.00000  Uiso   1.00
O562   O     0.70726   0.07307   0.27282   0.00000  Uiso   1.00
O563   O     0.79275   0.42693   0.72718   0.00000  Uiso   1.00
O564   O     0.92693   0.20725   0.27282   0.00000  Uiso   1.00
O565   O     0.57307   0.29274   0.72718   0.00000  Uiso   1.00
O566   O     0.79275   0.42693   0.27282   0.00000  Uiso   1.00
O567   O     0.70726   0.07307   0.72718   0.00000  Uiso   1.00
O568   O     0.57307   0.29274   0.27282   0.00000  Uiso   1.00
O569   O     0.92693   0.20725   0.72718   0.00000  Uiso   1.00
O570   O     0.70726   0.42693   0.72718   0.00000  Uiso   1.00
O571   O     0.50000   0.25000   0.25000   0.00000  Uiso   1.00
O572   O     0.79275   0.07307   0.27282   0.00000  Uiso   1.00
O573   O     0.92693   0.29274   0.72718   0.00000  Uiso   1.00
O574   O     0.57307   0.20725   0.27282   0.00000  Uiso   1.00
O575   O     0.79275   0.07307   0.72718   0.00000  Uiso   1.00
O576   O     0.70726   0.42693   0.27282   0.00000  Uiso   1.00
O577   O     0.57307   0.20725   0.72718   0.00000  Uiso   1.00
O578   O     0.92693   0.29274   0.27282   0.00000  Uiso   1.00
O579   O     0.95726   0.32307   0.77282   0.00000  Uiso   1.00
O580   O     0.54275   0.17693   0.22718   0.00000  Uiso   1.00
O581   O     0.67693   0.45725   0.77282   0.00000  Uiso   1.00
O582   O     0.50000   0.25000   0.75000   0.00000  Uiso   1.00
O583   O     0.82307   0.04274   0.22718   0.00000  Uiso   1.00
O584   O     0.54275   0.17693   0.77282   0.00000  Uiso   1.00
O585   O     0.95726   0.32307   0.22718   0.00000  Uiso   1.00
O586   O     0.82307   0.04274   0.77282   0.00000  Uiso   1.00
O587   O     0.67693   0.45725   0.22718   0.00000  Uiso   1.00
O588   O     0.95726   0.17693   0.22718   0.00000  Uiso   1.00
O589   O     0.54275   0.32307   0.77282   0.00000  Uiso   1.00
O590   O     0.67693   0.04274   0.22718   0.00000  Uiso   1.00
O591   O     0.82307   0.45725   0.77282   0.00000  Uiso   1.00
O592   O     0.54275   0.32307   0.22718   0.00000  Uiso   1.00
O593   O     0.75000   0.46964   0.33683   0.00000  Uiso   1.00
O594   O     0.95726   0.17693   0.77282   0.00000  Uiso   1.00
O595   O     0.82307   0.45725   0.22718   0.00000  Uiso   1.00
O596   O     0.67693   0.04274   0.77282   0.00000  Uiso   1.00
O597   O     0.69572   0.03837   0.02218   0.00000  Uiso   1.00
O598   O     0.81072   0.02693   0.97866   0.00000  Uiso   1.00
O599   O     0.97305   0.18929   0.02134   0.00000  Uiso   1.00
O600   O     0.96164   0.30429   0.97782   0.00000  Uiso   1.00
O601   O     0.80428   0.46163   0.02218   0.00000  Uiso   1.00
O602   O     0.68928   0.47307   0.97866   0.00000  Uiso   1.00
O603   O     0.52695   0.31071   0.02134   0.00000  Uiso   1.00
O604   O     0.75000   0.03036   0.66317   0.00000  Uiso   1.00
O605   O     0.53836   0.19571   0.97782   0.00000  Uiso   1.00
O606   O     0.94571   0.28836   0.52218   0.00000  Uiso   1.00
O607   O     0.56071   0.27695   0.47866   0.00000  Uiso   1.00
O608   O     0.72307   0.43928   0.52134   0.00000  Uiso   1.00
O609   O     0.71163   0.05428   0.47782   0.00000  Uiso   1.00
O610   O     0.55429   0.21164   0.52218   0.00000  Uiso   1.00
O611   O     0.93929   0.22305   0.47866   0.00000  Uiso   1.00
O612   O     0.77693   0.06072   0.52134   0.00000  Uiso   1.00
O613   O     0.78837   0.44572   0.47782   0.00000  Uiso   1.00
O614   O     0.53036   0.25000   0.33683   0.00000  Uiso   1.00
O615   O     0.96964   0.25000   0.66317   0.00000  Uiso   1.00
O616   O     0.75000   0.03036   0.33683   0.00000  Uiso   1.00
Zn617  Zn    0.70660  -0.00000   0.21760   0.00000  Uiso   1.00
Zn618  Zn    0.54340   0.25000   0.28240   0.00000  Uiso   1.00
Zn619  Zn    0.75000   0.45660   0.71760   0.00000  Uiso   1.00
Zn620  Zn    0.75000   0.04340   0.28240   0.00000  Uiso   1.00
Zn621  Zn    0.54340   0.25000   0.71760   0.00000  Uiso   1.00
Zn622  Zn    0.95660   0.25000   0.28240   0.00000  Uiso   1.00
Zn623  Zn    0.75000   0.04340   0.71760   0.00000  Uiso   1.00
Zn624  Zn    0.75000   0.45660   0.28240   0.00000  Uiso   1.00
Zn625  Zn    0.79340  -0.00000   0.78240   0.00000  Uiso   1.00
Zn626  Zn    0.50000   0.20660   0.21760   0.00000  Uiso   1.00
Zn627  Zn    0.50000   0.29340   0.78240   0.00000  Uiso   1.00
Zn628  Zn    0.79340  -0.00000   0.21760   0.00000  Uiso   1.00
Zn629  Zn    0.70660  -0.00000   0.78240   0.00000  Uiso   1.00
Zn630  Zn    0.50000   0.29340   0.21760   0.00000  Uiso   1.00
Zn631  Zn    0.50000   0.20660   0.78240   0.00000  Uiso   1.00
Zn632  Zn    0.95660   0.25000   0.71760   0.00000  Uiso   1.00
C633   C     0.22338   0.52024   0.04168   0.00000  Uiso   1.00
C634   C     0.03005   0.76461   0.45906   0.00000  Uiso   1.00
C635   C     0.34807   0.90193   0.75000   0.00000  Uiso   1.00
C636   C     0.40192   0.65192   0.25000   0.00000  Uiso   1.00
C637   C     0.09806   0.84806   0.75000   0.00000  Uiso   1.00
C638   C     0.34807   0.90193   0.25000   0.00000  Uiso   1.00
C639   C     0.15193   0.59807   0.75000   0.00000  Uiso   1.00
C640   C     0.09807   0.65193   0.75000   0.00000  Uiso   1.00
C641   C     0.40193   0.84807   0.25000   0.00000  Uiso   1.00
C642   C     0.15192   0.90192   0.75000   0.00000  Uiso   1.00
C643   C     0.34806   0.59806   0.25000   0.00000  Uiso   1.00
C644   C     0.40193   0.84807   0.75000   0.00000  Uiso   1.00
C645   C     0.23540   0.96994   0.54094   0.00000  Uiso   1.00
C646   C     0.09807   0.65193   0.25000   0.00000  Uiso   1.00
C647   C     0.34808   0.59808   0.75000   0.00000  Uiso   1.00
C648   C     0.15194   0.90194   0.25000   0.00000  Uiso   1.00
C649   C     0.25000   0.50000   0.10242   0.00000  Uiso   1.00
C650   C     0.25000   0.50000   0.89805   0.00000  Uiso   1.00
C651   C     0.00000   0.75000   0.10195   0.00000  Uiso   1.00
C652   C     0.00000   0.75000   0.89758   0.00000  Uiso   1.00
C653   C     0.00000   0.75000   0.60242   0.00000  Uiso   1.00
C654   C     0.00000   0.75000   0.39805   0.00000  Uiso   1.00
C655   C     0.25000   0.50000   0.60195   0.00000  Uiso   1.00
C656   C     0.22976   0.52662   0.45832   0.00000  Uiso   1.00
C657   C     0.25000   0.50000   0.39758   0.00000  Uiso   1.00
C658   C     0.20785   0.57374   0.01210   0.00000  Uiso   1.00
C659   C     0.30584   0.56401   0.98870   0.00000  Uiso   1.00
C660   C     0.43598   0.69418   0.01130   0.00000  Uiso   1.00
C661   C     0.42627   0.79217   0.98790   0.00000  Uiso   1.00
C662   C     0.29215   0.92626   0.01210   0.00000  Uiso   1.00
C663   C     0.19417   0.93599   0.98870   0.00000  Uiso   1.00
C664   C     0.06402   0.80582   0.01130   0.00000  Uiso   1.00
C665   C     0.07373   0.70783   0.98790   0.00000  Uiso   1.00
C666   C     0.45783   0.82373   0.51210   0.00000  Uiso   1.00
C667   C     0.02663   0.72977   0.54168   0.00000  Uiso   1.00
C668   C     0.05582   0.81402   0.48870   0.00000  Uiso   1.00
C669   C     0.18599   0.94416   0.51130   0.00000  Uiso   1.00
C670   C     0.17626   0.54215   0.48790   0.00000  Uiso   1.00
C671   C     0.04217   0.67627   0.51210   0.00000  Uiso   1.00
C672   C     0.44418   0.68598   0.48870   0.00000  Uiso   1.00
C673   C     0.31401   0.55583   0.51130   0.00000  Uiso   1.00
C674   C     0.32374   0.95785   0.48790   0.00000  Uiso   1.00
C675   C     0.46995   0.73539   0.45906   0.00000  Uiso   1.00
C676   C     0.26460   0.53005   0.54094   0.00000  Uiso   1.00
C677   C     0.27024   0.97338   0.45832   0.00000  Uiso   1.00
C678   C     0.22313   0.51992   0.08197   0.00000  Uiso   1.00
C679   C     0.28032   0.51424   0.91875   0.00000  Uiso   1.00
C680   C     0.48576   0.71969   0.08125   0.00000  Uiso   1.00
C681   C     0.28006   0.51460   0.95906   0.00000  Uiso   1.00
C682   C     0.48009   0.77687   0.91803   0.00000  Uiso   1.00
C683   C     0.27687   0.98008   0.08197   0.00000  Uiso   1.00
C684   C     0.21968   0.98576   0.91875   0.00000  Uiso   1.00
C685   C     0.01424   0.78031   0.08125   0.00000  Uiso   1.00
C686   C     0.01991   0.72313   0.91803   0.00000  Uiso   1.00
C687   C     0.47313   0.76991   0.58197   0.00000  Uiso   1.00
C688   C     0.03031   0.76424   0.41875   0.00000  Uiso   1.00
C689   C     0.23576   0.96968   0.58125   0.00000  Uiso   1.00
C690   C     0.23008   0.52687   0.41803   0.00000  Uiso   1.00
C691   C     0.02687   0.73009   0.58197   0.00000  Uiso   1.00
C692   C     0.48539   0.71995   0.04094   0.00000  Uiso   1.00
C693   C     0.46969   0.73575   0.41875   0.00000  Uiso   1.00
C694   C     0.26424   0.53032   0.58125   0.00000  Uiso   1.00
C695   C     0.26992   0.97313   0.41803   0.00000  Uiso   1.00
C696   C     0.25000   0.50000   0.02153   0.00000  Uiso   1.00
C697   C     0.25000   0.50000   0.97919   0.00000  Uiso   1.00
C698   C    -0.00000   0.75000   0.02082   0.00000  Uiso   1.00
C699   C     0.00000   0.75000   0.97848   0.00000  Uiso   1.00
C700   C     0.00000   0.75000   0.52152   0.00000  Uiso   1.00
C701   C     0.00000   0.75000   0.47919   0.00000  Uiso   1.00
C702   C     0.25000   0.50000   0.52082   0.00000  Uiso   1.00
C703   C     0.47977   0.77663   0.95832   0.00000  Uiso   1.00
C704   C     0.25000   0.50000   0.47848   0.00000  Uiso   1.00
C705   C     0.25000   0.50000   0.35522   0.00000  Uiso   1.00
C706   C     0.25000   0.50000   0.64461   0.00000  Uiso   1.00
C707   C     0.00000   0.75000   0.35539   0.00000  Uiso   1.00
C708   C     0.00000   0.75000   0.64478   0.00000  Uiso   1.00
C709   C     0.00000   0.75000   0.85522   0.00000  Uiso   1.00
C710   C     0.00000   0.75000   0.14461   0.00000  Uiso   1.00
C711   C     0.25000   0.50000   0.85539   0.00000  Uiso   1.00
C712   C     0.25000   0.50000   0.14478   0.00000  Uiso   1.00
C713   C     0.17999   0.57001   0.25000   0.00000  Uiso   1.00
C714   C     0.27662   0.97976   0.04168   0.00000  Uiso   1.00
C715   C     0.32001   0.92999   0.75000   0.00000  Uiso   1.00
C716   C     0.43000   0.68000   0.25000   0.00000  Uiso   1.00
C717   C     0.07000   0.82000   0.75000   0.00000  Uiso   1.00
C718   C     0.32001   0.92999   0.25000   0.00000  Uiso   1.00
C719   C     0.17999   0.57001   0.75000   0.00000  Uiso   1.00
C720   C     0.07000   0.82000   0.25000   0.00000  Uiso   1.00
C721   C     0.43000   0.68000   0.75000   0.00000  Uiso   1.00
C722   C     0.18000   0.93000   0.75000   0.00000  Uiso   1.00
C723   C     0.32000   0.57000   0.25000   0.00000  Uiso   1.00
C724   C     0.42999   0.82001   0.75000   0.00000  Uiso   1.00
C725   C     0.21995   0.98540   0.95906   0.00000  Uiso   1.00
C726   C     0.07001   0.67999   0.25000   0.00000  Uiso   1.00
C727   C     0.32000   0.57000   0.75000   0.00000  Uiso   1.00
C728   C     0.18000   0.93000   0.25000   0.00000  Uiso   1.00
C729   C     0.07001   0.67999   0.75000   0.00000  Uiso   1.00
C730   C     0.42999   0.82001   0.25000   0.00000  Uiso   1.00
C731   C     0.13314   0.89391   0.28434   0.00000  Uiso   1.00
C732   C     0.36697   0.60603   0.71570   0.00000  Uiso   1.00
C733   C     0.08811   0.61511   0.25557   0.00000  Uiso   1.00
C734   C     0.41190   0.88489   0.74442   0.00000  Uiso   1.00
C735   C     0.36686   0.60609   0.28434   0.00000  Uiso   1.00
C736   C     0.01461   0.78005   0.04094   0.00000  Uiso   1.00
C737   C     0.13303   0.89397   0.71570   0.00000  Uiso   1.00
C738   C     0.41189   0.88489   0.25557   0.00000  Uiso   1.00
C739   C     0.08810   0.61511   0.74442   0.00000  Uiso   1.00
C740   C     0.11511   0.58811   0.74443   0.00000  Uiso   1.00
C741   C     0.38489   0.91190   0.25558   0.00000  Uiso   1.00
C742   C     0.10609   0.86685   0.71566   0.00000  Uiso   1.00
C743   C     0.39397   0.63303   0.28430   0.00000  Uiso   1.00
C744   C     0.38489   0.91189   0.74443   0.00000  Uiso   1.00
C745   C     0.11511   0.58810   0.25558   0.00000  Uiso   1.00
C746   C     0.39391   0.63315   0.71566   0.00000  Uiso   1.00
C747   C     0.02023   0.72337   0.95832   0.00000  Uiso   1.00
C748   C     0.10603   0.86697   0.28430   0.00000  Uiso   1.00
C749   C     0.38315   0.64391   0.78434   0.00000  Uiso   1.00
C750   C     0.11697   0.85603   0.21570   0.00000  Uiso   1.00
C751   C     0.33811   0.86511   0.75557   0.00000  Uiso   1.00
C752   C     0.16190   0.63489   0.24442   0.00000  Uiso   1.00
C753   C     0.11686   0.85609   0.78434   0.00000  Uiso   1.00
C754   C     0.38303   0.64397   0.21570   0.00000  Uiso   1.00
C755   C     0.16189   0.63489   0.75557   0.00000  Uiso   1.00
C756   C     0.33810   0.86511   0.24442   0.00000  Uiso   1.00
C757   C     0.36511   0.83811   0.24443   0.00000  Uiso   1.00
C758   C     0.47337   0.77023   0.54168   0.00000  Uiso   1.00
C759   C     0.13489   0.66190   0.75558   0.00000  Uiso   1.00
C760   C     0.35609   0.61686   0.21566   0.00000  Uiso   1.00
C761   C     0.14397   0.88303   0.78430   0.00000  Uiso   1.00
C762   C     0.13489   0.66189   0.24443   0.00000  Uiso   1.00
C763   C     0.36511   0.83810   0.75558   0.00000  Uiso   1.00
C764   C     0.14391   0.88314   0.21566   0.00000  Uiso   1.00
C765   C     0.35603   0.61697   0.78430   0.00000  Uiso   1.00
C766   C     0.09808   0.84808   0.25000   0.00000  Uiso   1.00
C767   C     0.40194   0.65194   0.75000   0.00000  Uiso   1.00
C768   C     0.15193   0.59807   0.25000   0.00000  Uiso   1.00
Cl769  Cl    0.14236   0.91863   0.32715   0.00000  Uiso   1.00
Cl770  Cl    0.39722   0.95803   0.26438   0.00000  Uiso   1.00
Cl771  Cl    0.08137   0.85764   0.67285   0.00000  Uiso   1.00
Cl772  Cl    0.41907   0.64183   0.32693   0.00000  Uiso   1.00
Cl773  Cl    0.39723   0.95803   0.73565   0.00000  Uiso   1.00
Cl774  Cl    0.10278   0.54197   0.26438   0.00000  Uiso   1.00
Cl775  Cl    0.41863   0.64236   0.67285   0.00000  Uiso   1.00
Cl776  Cl    0.08094   0.85817   0.32693   0.00000  Uiso   1.00
Cl777  Cl    0.39236   0.66863   0.82715   0.00000  Uiso   1.00
Cl778  Cl    0.10817   0.83094   0.17307   0.00000  Uiso   1.00
Cl779  Cl    0.29197   0.85277   0.76435   0.00000  Uiso   1.00
Cl780  Cl    0.35816   0.58094   0.67307   0.00000  Uiso   1.00
Cl781  Cl    0.20803   0.64722   0.23562   0.00000  Uiso   1.00
Cl782  Cl    0.10764   0.83137   0.82715   0.00000  Uiso   1.00
Cl783  Cl    0.39183   0.66906   0.17307   0.00000  Uiso   1.00
Cl784  Cl    0.20803   0.64723   0.76434   0.00000  Uiso   1.00
Cl785  Cl    0.29197   0.85278   0.23562   0.00000  Uiso   1.00
Cl786  Cl    0.35277   0.79197   0.23565   0.00000  Uiso   1.00
Cl787  Cl    0.14722   0.70803   0.76438   0.00000  Uiso   1.00
Cl788  Cl    0.33136   0.60764   0.17286   0.00000  Uiso   1.00
Cl789  Cl    0.16906   0.89184   0.82693   0.00000  Uiso   1.00
Cl790  Cl    0.14723   0.70803   0.23565   0.00000  Uiso   1.00
Cl791  Cl    0.04197   0.60277   0.26435   0.00000  Uiso   1.00
Cl792  Cl    0.35278   0.79197   0.76438   0.00000  Uiso   1.00
Cl793  Cl    0.16863   0.89236   0.17286   0.00000  Uiso   1.00
Cl794  Cl    0.33094   0.60816   0.82693   0.00000  Uiso   1.00
Cl795  Cl    0.18956   0.54655   0.10573   0.00000  Uiso   1.00
Cl796  Cl    0.31905   0.53354   0.89579   0.00000  Uiso   1.00
Cl797  Cl    0.46644   0.68096   0.10421   0.00000  Uiso   1.00
Cl798  Cl    0.45347   0.81045   0.89428   0.00000  Uiso   1.00
Cl799  Cl    0.31044   0.95345   0.10573   0.00000  Uiso   1.00
Cl800  Cl    0.18095   0.96646   0.89579   0.00000  Uiso   1.00
Cl801  Cl    0.03356   0.81904   0.10421   0.00000  Uiso   1.00
Cl802  Cl    0.45803   0.89722   0.73562   0.00000  Uiso   1.00
Cl803  Cl    0.04653   0.68955   0.89428   0.00000  Uiso   1.00
Cl804  Cl    0.43955   0.79653   0.60572   0.00000  Uiso   1.00
Cl805  Cl    0.06904   0.78356   0.39579   0.00000  Uiso   1.00
Cl806  Cl    0.21646   0.93095   0.60421   0.00000  Uiso   1.00
Cl807  Cl    0.20345   0.56044   0.39428   0.00000  Uiso   1.00
Cl808  Cl    0.06045   0.70347   0.60572   0.00000  Uiso   1.00
Cl809  Cl    0.43096   0.71644   0.39579   0.00000  Uiso   1.00
Cl810  Cl    0.28354   0.56905   0.60421   0.00000  Uiso   1.00
Cl811  Cl    0.29655   0.93956   0.39428   0.00000  Uiso   1.00
Cl812  Cl    0.35764   0.58136   0.32714   0.00000  Uiso   1.00
Cl813  Cl    0.14184   0.91906   0.67307   0.00000  Uiso   1.00
Cl814  Cl    0.45803   0.89723   0.26435   0.00000  Uiso   1.00
Cl815  Cl    0.04197   0.60278   0.73562   0.00000  Uiso   1.00
Cl816  Cl    0.10277   0.54197   0.73565   0.00000  Uiso   1.00
H817   H     0.22619   0.57255   0.98664   0.00000  Uiso   1.00
H818   H     0.42745   0.77382   0.01336   0.00000  Uiso   1.00
H819   H     0.41189   0.77846   0.96352   0.00000  Uiso   1.00
H820   H     0.40969   0.81632   0.99619   0.00000  Uiso   1.00
H821   H     0.27381   0.92745   0.98665   0.00000  Uiso   1.00
H822   H     0.27844   0.91188   0.03648   0.00000  Uiso   1.00
H823   H     0.31630   0.90967   0.00381   0.00000  Uiso   1.00
H824   H     0.21238   0.93353   0.01415   0.00000  Uiso   1.00
H825   H     0.20476   0.91922   0.96431   0.00000  Uiso   1.00
H826   H     0.16720   0.92447   0.99697   0.00000  Uiso   1.00
H827   H     0.06648   0.78761   0.98585   0.00000  Uiso   1.00
H828   H     0.22156   0.58812   0.03648   0.00000  Uiso   1.00
H829   H     0.08079   0.79522   0.03569   0.00000  Uiso   1.00
H830   H     0.07555   0.83278   0.00303   0.00000  Uiso   1.00
H831   H     0.07255   0.72618   0.01336   0.00000  Uiso   1.00
H832   H     0.08811   0.72154   0.96352   0.00000  Uiso   1.00
H833   H     0.09031   0.68368   0.99619   0.00000  Uiso   1.00
H834   H     0.47618   0.82255   0.48664   0.00000  Uiso   1.00
H835   H     0.47154   0.83811   0.53648   0.00000  Uiso   1.00
H836   H     0.43368   0.84031   0.50381   0.00000  Uiso   1.00
H837   H     0.03761   0.81648   0.51415   0.00000  Uiso   1.00
H838   H     0.04522   0.83079   0.46431   0.00000  Uiso   1.00
H839   H     0.18370   0.59033   0.00381   0.00000  Uiso   1.00
H840   H     0.08278   0.82555   0.49697   0.00000  Uiso   1.00
H841   H     0.18353   0.96238   0.48585   0.00000  Uiso   1.00
H842   H     0.16922   0.95476   0.53569   0.00000  Uiso   1.00
H843   H     0.17447   0.91720   0.50303   0.00000  Uiso   1.00
H844   H     0.17745   0.52381   0.51335   0.00000  Uiso   1.00
H845   H     0.16188   0.52844   0.46352   0.00000  Uiso   1.00
H846   H     0.15967   0.56630   0.49619   0.00000  Uiso   1.00
H847   H     0.02382   0.67745   0.48664   0.00000  Uiso   1.00
H848   H     0.02846   0.66189   0.53648   0.00000  Uiso   1.00
H849   H     0.06632   0.65969   0.50381   0.00000  Uiso   1.00
H850   H     0.28762   0.56647   0.01415   0.00000  Uiso   1.00
H851   H     0.46239   0.68352   0.51415   0.00000  Uiso   1.00
H852   H     0.45478   0.66920   0.46431   0.00000  Uiso   1.00
H853   H     0.41722   0.67445   0.49697   0.00000  Uiso   1.00
H854   H     0.31647   0.53762   0.48585   0.00000  Uiso   1.00
H855   H     0.33078   0.54524   0.53569   0.00000  Uiso   1.00
H856   H     0.32553   0.58280   0.50303   0.00000  Uiso   1.00
H857   H     0.32255   0.97619   0.51336   0.00000  Uiso   1.00
H858   H     0.33812   0.97156   0.46352   0.00000  Uiso   1.00
H859   H     0.34033   0.93370   0.49619   0.00000  Uiso   1.00
H860   H     0.29524   0.58078   0.96431   0.00000  Uiso   1.00
H861   H     0.33280   0.57553   0.99697   0.00000  Uiso   1.00
H862   H     0.43352   0.71239   0.98585   0.00000  Uiso   1.00
H863   H     0.41921   0.70478   0.03569   0.00000  Uiso   1.00
H864   H     0.42445   0.66722   0.00303   0.00000  Uiso   1.00
O865   O     0.25000   0.50000   0.25000   0.00000  Uiso   1.00
O866   O     0.25000   0.96964   0.66317   0.00000  Uiso   1.00
O867   O     0.46964   0.75000   0.33683   0.00000  Uiso   1.00
O868   O     0.03036   0.75000   0.66317   0.00000  Uiso   1.00
O869   O     0.00000   0.71964   0.83683   0.00000  Uiso   1.00
O870   O     0.00000   0.78036   0.16317   0.00000  Uiso   1.00
O871   O     0.28036   0.50000   0.83683   0.00000  Uiso   1.00
O872   O     0.21964   0.50000   0.16317   0.00000  Uiso   1.00
O873   O     0.00000   0.78036   0.83683   0.00000  Uiso   1.00
O874   O     0.00000   0.71964   0.16317   0.00000  Uiso   1.00
O875   O     0.21964   0.50000   0.83683   0.00000  Uiso   1.00
O876   O     0.25000   0.50000   0.75000   0.00000  Uiso   1.00
O877   O     0.28036   0.50000   0.16317   0.00000  Uiso   1.00
O878   O     0.20726   0.57307   0.27282   0.00000  Uiso   1.00
O879   O     0.29275   0.92693   0.72718   0.00000  Uiso   1.00
O880   O     0.42693   0.70725   0.27282   0.00000  Uiso   1.00
O881   O     0.07307   0.79274   0.72718   0.00000  Uiso   1.00
O882   O     0.29275   0.92693   0.27282   0.00000  Uiso   1.00
O883   O     0.20726   0.57307   0.72718   0.00000  Uiso   1.00
O884   O     0.07307   0.79274   0.27282   0.00000  Uiso   1.00
O885   O     0.42693   0.70725   0.72718   0.00000  Uiso   1.00
O886   O     0.20726   0.92693   0.72718   0.00000  Uiso   1.00
O887   O     0.00000   0.75000   0.25000   0.00000  Uiso   1.00
O888   O     0.29275   0.57307   0.27282   0.00000  Uiso   1.00
O889   O     0.42693   0.79274   0.72718   0.00000  Uiso   1.00
O890   O     0.07307   0.70725   0.27282   0.00000  Uiso   1.00
O891   O     0.29275   0.57307   0.72718   0.00000  Uiso   1.00
O892   O     0.20726   0.92693   0.27282   0.00000  Uiso   1.00
O893   O     0.07307   0.70725   0.72718   0.00000  Uiso   1.00
O894   O     0.42693   0.79274   0.27282   0.00000  Uiso   1.00
O895   O     0.45726   0.82307   0.77282   0.00000  Uiso   1.00
O896   O     0.04275   0.67693   0.22718   0.00000  Uiso   1.00
O897   O     0.17693   0.95725   0.77282   0.00000  Uiso   1.00
O898   O     0.00000   0.75000   0.75000   0.00000  Uiso   1.00
O899   O     0.32307   0.54274   0.22718   0.00000  Uiso   1.00
O900   O     0.04275   0.67693   0.77282   0.00000  Uiso   1.00
O901   O     0.45726   0.82307   0.22718   0.00000  Uiso   1.00
O902   O     0.32307   0.54274   0.77282   0.00000  Uiso   1.00
O903   O     0.17693   0.95725   0.22718   0.00000  Uiso   1.00
O904   O     0.45726   0.67693   0.22718   0.00000  Uiso   1.00
O905   O     0.04275   0.82307   0.77282   0.00000  Uiso   1.00
O906   O     0.17693   0.54274   0.22718   0.00000  Uiso   1.00
O907   O     0.32307   0.95725   0.77282   0.00000  Uiso   1.00
O908   O     0.04275   0.82307   0.22718   0.00000  Uiso   1.00
O909   O     0.25000   0.96964   0.33683   0.00000  Uiso   1.00
O910   O     0.45726   0.67693   0.77282   0.00000  Uiso   1.00
O911   O     0.32307   0.95725   0.22718   0.00000  Uiso   1.00
O912   O     0.17693   0.54274   0.77282   0.00000  Uiso   1.00
O913   O     0.19572   0.53837   0.02218   0.00000  Uiso   1.00
O914   O     0.31072   0.52693   0.97866   0.00000  Uiso   1.00
O915   O     0.47305   0.68929   0.02134   0.00000  Uiso   1.00
O916   O     0.46164   0.80429   0.97782   0.00000  Uiso   1.00
O917   O     0.30428   0.96163   0.02218   0.00000  Uiso   1.00
O918   O     0.18928   0.97307   0.97866   0.00000  Uiso   1.00
O919   O     0.02695   0.81071   0.02134   0.00000  Uiso   1.00
O920   O     0.25000   0.53036   0.66317   0.00000  Uiso   1.00
O921   O     0.03836   0.69571   0.97782   0.00000  Uiso   1.00
O922   O     0.44571   0.78836   0.52218   0.00000  Uiso   1.00
O923   O     0.06071   0.77695   0.47866   0.00000  Uiso   1.00
O924   O     0.22307   0.93928   0.52134   0.00000  Uiso   1.00
O925   O     0.21163   0.55428   0.47782   0.00000  Uiso   1.00
O926   O     0.05429   0.71164   0.52218   0.00000  Uiso   1.00
O927   O     0.43929   0.72305   0.47866   0.00000  Uiso   1.00
O928   O     0.27693   0.56072   0.52134   0.00000  Uiso   1.00
O929   O     0.28837   0.94572   0.47782   0.00000  Uiso   1.00
O930   O     0.03036   0.75000   0.33683   0.00000  Uiso   1.00
O931   O     0.46964   0.75000   0.66317   0.00000  Uiso   1.00
O932   O     0.25000   0.53036   0.33683   0.00000  Uiso   1.00
Zn933  Zn    0.20660   0.50000   0.21760   0.00000  Uiso   1.00
Zn934  Zn    0.04340   0.75000   0.28240   0.00000  Uiso   1.00
Zn935  Zn    0.25000   0.95660   0.71760   0.00000  Uiso   1.00
Zn936  Zn    0.25000   0.54340   0.28240   0.00000  Uiso   1.00
Zn937  Zn    0.04340   0.75000   0.71760   0.00000  Uiso   1.00
Zn938  Zn    0.45660   0.75000   0.28240   0.00000  Uiso   1.00
Zn939  Zn    0.25000   0.54340   0.71760   0.00000  Uiso   1.00
Zn940  Zn    0.25000   0.95660   0.28240   0.00000  Uiso   1.00
Zn941  Zn    0.29340   0.50000   0.78240   0.00000  Uiso   1.00
Zn942  Zn    0.00000   0.70660   0.21760   0.00000  Uiso   1.00
Zn943  Zn    0.00000   0.79340   0.78240   0.00000  Uiso   1.00
Zn944  Zn    0.29340   0.50000   0.21760   0.00000  Uiso   1.00
Zn945  Zn    0.20660   0.50000   0.78240   0.00000  Uiso   1.00
Zn946  Zn    0.00000   0.79340   0.21760   0.00000  Uiso   1.00
Zn947  Zn    0.00000   0.70660   0.78240   0.00000  Uiso   1.00
Zn948  Zn    0.45660   0.75000   0.71760   0.00000  Uiso   1.00
C949   C     0.72338   0.52024   0.04168   0.00000  Uiso   1.00
C950   C     0.53005   0.76461   0.45906   0.00000  Uiso   1.00
C951   C     0.84807   0.90193   0.75000   0.00000  Uiso   1.00
C952   C     0.90192   0.65192   0.25000   0.00000  Uiso   1.00
C953   C     0.59806   0.84806   0.75000   0.00000  Uiso   1.00
C954   C     0.84807   0.90193   0.25000   0.00000  Uiso   1.00
C955   C     0.65193   0.59807   0.75000   0.00000  Uiso   1.00
C956   C     0.59807   0.65193   0.75000   0.00000  Uiso   1.00
C957   C     0.90193   0.84807   0.25000   0.00000  Uiso   1.00
C958   C     0.65192   0.90192   0.75000   0.00000  Uiso   1.00
C959   C     0.84806   0.59806   0.25000   0.00000  Uiso   1.00
C960   C     0.90193   0.84807   0.75000   0.00000  Uiso   1.00
C961   C     0.73540   0.96994   0.54094   0.00000  Uiso   1.00
C962   C     0.59807   0.65193   0.25000   0.00000  Uiso   1.00
C963   C     0.84808   0.59808   0.75000   0.00000  Uiso   1.00
C964   C     0.65194   0.90194   0.25000   0.00000  Uiso   1.00
C965   C     0.75000   0.50000   0.10242   0.00000  Uiso   1.00
C966   C     0.75000   0.50000   0.89805   0.00000  Uiso   1.00
C967   C     0.50000   0.75000   0.10195   0.00000  Uiso   1.00
C968   C     0.50000   0.75000   0.89758   0.00000  Uiso   1.00
C969   C     0.50000   0.75000   0.60242   0.00000  Uiso   1.00
C970   C     0.50000   0.75000   0.39805   0.00000  Uiso   1.00
C971   C     0.75000   0.50000   0.60195   0.00000  Uiso   1.00
C972   C     0.72976   0.52662   0.45832   0.00000  Uiso   1.00
C973   C     0.75000   0.50000   0.39758   0.00000  Uiso   1.00
C974   C     0.70785   0.57374   0.01210   0.00000  Uiso   1.00
C975   C     0.80584   0.56401   0.98870   0.00000  Uiso   1.00
C976   C     0.93598   0.69418   0.01130   0.00000  Uiso   1.00
C977   C     0.92627   0.79217   0.98790   0.00000  Uiso   1.00
C978   C     0.79215   0.92626   0.01210   0.00000  Uiso   1.00
C979   C     0.69417   0.93599   0.98870   0.00000  Uiso   1.00
C980   C     0.56402   0.80582   0.01130   0.00000  Uiso   1.00
C981   C     0.57373   0.70783   0.98790   0.00000  Uiso   1.00
C982   C     0.95783   0.82373   0.51210   0.00000  Uiso   1.00
C983   C     0.52663   0.72977   0.54168   0.00000  Uiso   1.00
C984   C     0.55582   0.81402   0.48870   0.00000  Uiso   1.00
C985   C     0.68599   0.94416   0.51130   0.00000  Uiso   1.00
C986   C     0.67626   0.54215   0.48790   0.00000  Uiso   1.00
C987   C     0.54217   0.67627   0.51210   0.00000  Uiso   1.00
C988   C     0.94418   0.68598   0.48870   0.00000  Uiso   1.00
C989   C     0.81401   0.55583   0.51130   0.00000  Uiso   1.00
C990   C     0.82374   0.95785   0.48790   0.00000  Uiso   1.00
C991   C     0.96995   0.73539   0.45906   0.00000  Uiso   1.00
C992   C     0.76460   0.53005   0.54094   0.00000  Uiso   1.00
C993   C     0.77024   0.97338   0.45832   0.00000  Uiso   1.00
C994   C     0.72313   0.51992   0.08197   0.00000  Uiso   1.00
C995   C     0.78032   0.51424   0.91875   0.00000  Uiso   1.00
C996   C     0.98576   0.71969   0.08125   0.00000  Uiso   1.00
C997   C     0.78006   0.51460   0.95906   0.00000  Uiso   1.00
C998   C     0.98009   0.77687   0.91803   0.00000  Uiso   1.00
C999   C     0.77687   0.98008   0.08197   0.00000  Uiso   1.00
C1000  C     0.71968   0.98576   0.91875   0.00000  Uiso   1.00
C1001  C     0.51424   0.78031   0.08125   0.00000  Uiso   1.00
C1002  C     0.51991   0.72313   0.91803   0.00000  Uiso   1.00
C1003  C     0.97313   0.76991   0.58197   0.00000  Uiso   1.00
C1004  C     0.53031   0.76424   0.41875   0.00000  Uiso   1.00
C1005  C     0.73576   0.96968   0.58125   0.00000  Uiso   1.00
C1006  C     0.73008   0.52687   0.41803   0.00000  Uiso   1.00
C1007  C     0.52687   0.73009   0.58197   0.00000  Uiso   1.00
C1008  C     0.98539   0.71995   0.04094   0.00000  Uiso   1.00
C1009  C     0.96969   0.73575   0.41875   0.00000  Uiso   1.00
C1010  C     0.76424   0.53032   0.58125   0.00000  Uiso   1.00
C1011  C     0.76992   0.97313   0.41803   0.00000  Uiso   1.00
C1012  C     0.75000   0.50000   0.02153   0.00000  Uiso   1.00
C1013  C     0.75000   0.50000   0.97919   0.00000  Uiso   1.00
C1014  C     0.50000   0.75000   0.02082   0.00000  Uiso   1.00
C1015  C     0.50000   0.75000   0.97848   0.00000  Uiso   1.00
C1016  C     0.50000   0.75000   0.52152   0.00000  Uiso   1.00
C1017  C     0.50000   0.75000   0.47919   0.00000  Uiso   1.00
C1018  C     0.75000   0.50000   0.52082   0.00000  Uiso   1.00
C1019  C     0.97977   0.77663   0.95832   0.00000  Uiso   1.00
C1020  C     0.75000   0.50000   0.47848   0.00000  Uiso   1.00
C1021  C     0.75000   0.50000   0.35522   0.00000  Uiso   1.00
C1022  C     0.75000   0.50000   0.64461   0.00000  Uiso   1.00
C1023  C     0.50000   0.75000   0.35539   0.00000  Uiso   1.00
C1024  C     0.50000   0.75000   0.64478   0.00000  Uiso   1.00
C1025  C     0.50000   0.75000   0.85522   0.00000  Uiso   1.00
C1026  C     0.50000   0.75000   0.14461   0.00000  Uiso   1.00
C1027  C     0.75000   0.50000   0.85539   0.00000  Uiso   1.00
C1028  C     0.75000   0.50000   0.14478   0.00000  Uiso   1.00
C1029  C     0.67999   0.57001   0.25000   0.00000  Uiso   1.00
C1030  C     0.77662   0.97976   0.04168   0.00000  Uiso   1.00
C1031  C     0.82001   0.92999   0.75000   0.00000  Uiso   1.00
C1032  C     0.93000   0.68000   0.25000   0.00000  Uiso   1.00
C1033  C     0.57000   0.82000   0.75000   0.00000  Uiso   1.00
C1034  C     0.82001   0.92999   0.25000   0.00000  Uiso   1.00
C1035  C     0.67999   0.57001   0.75000   0.00000  Uiso   1.00
C1036  C     0.57000   0.82000   0.25000   0.00000  Uiso   1.00
C1037  C     0.93000   0.68000   0.75000   0.00000  Uiso   1.00
C1038  C     0.68000   0.93000   0.75000   0.00000  Uiso   1.00
C1039  C     0.82000   0.57000   0.25000   0.00000  Uiso   1.00
C1040  C     0.92999   0.82001   0.75000   0.00000  Uiso   1.00
C1041  C     0.71995   0.98540   0.95906   0.00000  Uiso   1.00
C1042  C     0.57001   0.67999   0.25000   0.00000  Uiso   1.00
C1043  C     0.82000   0.57000   0.75000   0.00000  Uiso   1.00
C1044  C     0.68000   0.93000   0.25000   0.00000  Uiso   1.00
C1045  C     0.57001   0.67999   0.75000   0.00000  Uiso   1.00
C1046  C     0.92999   0.82001   0.25000   0.00000  Uiso   1.00
C1047  C     0.63314   0.89391   0.28434   0.00000  Uiso   1.00
C1048  C     0.86697   0.60603   0.71570   0.00000  Uiso   1.00
C1049  C     0.58811   0.61511   0.25557   0.00000  Uiso   1.00
C1050  C     0.91190   0.88489   0.74442   0.00000  Uiso   1.00
C1051  C     0.86686   0.60609   0.28434   0.00000  Uiso   1.00
C1052  C     0.51461   0.78005   0.04094   0.00000  Uiso   1.00
C1053  C     0.63303   0.89397   0.71570   0.00000  Uiso   1.00
C1054  C     0.91189   0.88489   0.25557   0.00000  Uiso   1.00
C1055  C     0.58810   0.61511   0.74442   0.00000  Uiso   1.00
C1056  C     0.61511   0.58811   0.74443   0.00000  Uiso   1.00
C1057  C     0.88489   0.91190   0.25558   0.00000  Uiso   1.00
C1058  C     0.60609   0.86685   0.71566   0.00000  Uiso   1.00
C1059  C     0.89397   0.63303   0.28430   0.00000  Uiso   1.00
C1060  C     0.88489   0.91189   0.74443   0.00000  Uiso   1.00
C1061  C     0.61511   0.58810   0.25558   0.00000  Uiso   1.00
C1062  C     0.89391   0.63315   0.71566   0.00000  Uiso   1.00
C1063  C     0.52023   0.72337   0.95832   0.00000  Uiso   1.00
C1064  C     0.60603   0.86697   0.28430   0.00000  Uiso   1.00
C1065  C     0.88315   0.64391   0.78434   0.00000  Uiso   1.00
C1066  C     0.61697   0.85603   0.21570   0.00000  Uiso   1.00
C1067  C     0.83811   0.86511   0.75557   0.00000  Uiso   1.00
C1068  C     0.66190   0.63489   0.24442   0.00000  Uiso   1.00
C1069  C     0.61686   0.85609   0.78434   0.00000  Uiso   1.00
C1070  C     0.88303   0.64397   0.21570   0.00000  Uiso   1.00
C1071  C     0.66189   0.63489   0.75557   0.00000  Uiso   1.00
C1072  C     0.83810   0.86511   0.24442   0.00000  Uiso   1.00
C1073  C     0.86511   0.83811   0.24443   0.00000  Uiso   1.00
C1074  C     0.97337   0.77023   0.54168   0.00000  Uiso   1.00
C1075  C     0.63489   0.66190   0.75558   0.00000  Uiso   1.00
C1076  C     0.85609   0.61686   0.21566   0.00000  Uiso   1.00
C1077  C     0.64397   0.88303   0.78430   0.00000  Uiso   1.00
C1078  C     0.63489   0.66189   0.24443   0.00000  Uiso   1.00
C1079  C     0.86511   0.83810   0.75558   0.00000  Uiso   1.00
C1080  C     0.64391   0.88314   0.21566   0.00000  Uiso   1.00
C1081  C     0.85603   0.61697   0.78430   0.00000  Uiso   1.00
C1082  C     0.59808   0.84808   0.25000   0.00000  Uiso   1.00
C1083  C     0.90194   0.65194   0.75000   0.00000  Uiso   1.00
C1084  C     0.65193   0.59807   0.25000   0.00000  Uiso   1.00
Cl1085 Cl    0.64236   0.91863   0.32715   0.00000  Uiso   1.00
Cl1086 Cl    0.89722   0.95803   0.26438   0.00000  Uiso   1.00
Cl1087 Cl    0.58137   0.85764   0.67285   0.00000  Uiso   1.00
Cl1088 Cl    0.91907   0.64183   0.32693   0.00000  Uiso   1.00
Cl1089 Cl    0.89723   0.95803   0.73565   0.00000  Uiso   1.00
Cl1090 Cl    0.60278   0.54197   0.26438   0.00000  Uiso   1.00
Cl1091 Cl    0.91863   0.64236   0.67285   0.00000  Uiso   1.00
Cl1092 Cl    0.58094   0.85817   0.32693   0.00000  Uiso   1.00
Cl1093 Cl    0.89236   0.66863   0.82715   0.00000  Uiso   1.00
Cl1094 Cl    0.60817   0.83094   0.17307   0.00000  Uiso   1.00
Cl1095 Cl    0.79197   0.85277   0.76435   0.00000  Uiso   1.00
Cl1096 Cl    0.85816   0.58094   0.67307   0.00000  Uiso   1.00
Cl1097 Cl    0.70803   0.64722   0.23562   0.00000  Uiso   1.00
Cl1098 Cl    0.60764   0.83137   0.82715   0.00000  Uiso   1.00
Cl1099 Cl    0.89183   0.66906   0.17307   0.00000  Uiso   1.00
Cl1100 Cl    0.70803   0.64723   0.76434   0.00000  Uiso   1.00
Cl1101 Cl    0.79197   0.85278   0.23562   0.00000  Uiso   1.00
Cl1102 Cl    0.85277   0.79197   0.23565   0.00000  Uiso   1.00
Cl1103 Cl    0.64722   0.70803   0.76438   0.00000  Uiso   1.00
Cl1104 Cl    0.83136   0.60764   0.17286   0.00000  Uiso   1.00
Cl1105 Cl    0.66906   0.89184   0.82693   0.00000  Uiso   1.00
Cl1106 Cl    0.64723   0.70803   0.23565   0.00000  Uiso   1.00
Cl1107 Cl    0.54197   0.60277   0.26435   0.00000  Uiso   1.00
Cl1108 Cl    0.85278   0.79197   0.76438   0.00000  Uiso   1.00
Cl1109 Cl    0.66863   0.89236   0.17286   0.00000  Uiso   1.00
Cl1110 Cl    0.83094   0.60816   0.82693   0.00000  Uiso   1.00
Cl1111 Cl    0.68956   0.54655   0.10573   0.00000  Uiso   1.00
Cl1112 Cl    0.81905   0.53354   0.89579   0.00000  Uiso   1.00
Cl1113 Cl    0.96644   0.68096   0.10421   0.00000  Uiso   1.00
Cl1114 Cl    0.95347   0.81045   0.89428   0.00000  Uiso   1.00
Cl1115 Cl    0.81044   0.95345   0.10573   0.00000  Uiso   1.00
Cl1116 Cl    0.68095   0.96646   0.89579   0.00000  Uiso   1.00
Cl1117 Cl    0.53356   0.81904   0.10421   0.00000  Uiso   1.00
Cl1118 Cl    0.95803   0.89722   0.73562   0.00000  Uiso   1.00
Cl1119 Cl    0.54653   0.68955   0.89428   0.00000  Uiso   1.00
Cl1120 Cl    0.93955   0.79653   0.60572   0.00000  Uiso   1.00
Cl1121 Cl    0.56904   0.78356   0.39579   0.00000  Uiso   1.00
Cl1122 Cl    0.71646   0.93095   0.60421   0.00000  Uiso   1.00
Cl1123 Cl    0.70345   0.56044   0.39428   0.00000  Uiso   1.00
Cl1124 Cl    0.56045   0.70347   0.60572   0.00000  Uiso   1.00
Cl1125 Cl    0.93096   0.71644   0.39579   0.00000  Uiso   1.00
Cl1126 Cl    0.78354   0.56905   0.60421   0.00000  Uiso   1.00
Cl1127 Cl    0.79655   0.93956   0.39428   0.00000  Uiso   1.00
Cl1128 Cl    0.85764   0.58136   0.32714   0.00000  Uiso   1.00
Cl1129 Cl    0.64184   0.91906   0.67307   0.00000  Uiso   1.00
Cl1130 Cl    0.95803   0.89723   0.26435   0.00000  Uiso   1.00
Cl1131 Cl    0.54197   0.60278   0.73562   0.00000  Uiso   1.00
Cl1132 Cl    0.60277   0.54197   0.73565   0.00000  Uiso   1.00
H1133  H     0.72619   0.57255   0.98664   0.00000  Uiso   1.00
H1134  H     0.92745   0.77382   0.01336   0.00000  Uiso   1.00
H1135  H     0.91189   0.77846   0.96352   0.00000  Uiso   1.00
H1136  H     0.90969   0.81632   0.99619   0.00000  Uiso   1.00
H1137  H     0.77381   0.92745   0.98665   0.00000  Uiso   1.00
H1138  H     0.77844   0.91188   0.03648   0.00000  Uiso   1.00
H1139  H     0.81630   0.90967   0.00381   0.00000  Uiso   1.00
H1140  H     0.71238   0.93353   0.01415   0.00000  Uiso   1.00
H1141  H     0.70476   0.91922   0.96431   0.00000  Uiso   1.00
H1142  H     0.66720   0.92447   0.99697   0.00000  Uiso   1.00
H1143  H     0.56648   0.78761   0.98585   0.00000  Uiso   1.00
H1144  H     0.72156   0.58812   0.03648   0.00000  Uiso   1.00
H1145  H     0.58079   0.79522   0.03569   0.00000  Uiso   1.00
H1146  H     0.57555   0.83278   0.00303   0.00000  Uiso   1.00
H1147  H     0.57255   0.72618   0.01336   0.00000  Uiso   1.00
H1148  H     0.58811   0.72154   0.96352   0.00000  Uiso   1.00
H1149  H     0.59031   0.68368   0.99619   0.00000  Uiso   1.00
H1150  H     0.97618   0.82255   0.48664   0.00000  Uiso   1.00
H1151  H     0.97154   0.83811   0.53648   0.00000  Uiso   1.00
H1152  H     0.93368   0.84031   0.50381   0.00000  Uiso   1.00
H1153  H     0.53761   0.81648   0.51415   0.00000  Uiso   1.00
H1154  H     0.54522   0.83079   0.46431   0.00000  Uiso   1.00
H1155  H     0.68370   0.59033   0.00381   0.00000  Uiso   1.00
H1156  H     0.58278   0.82555   0.49697   0.00000  Uiso   1.00
H1157  H     0.68353   0.96238   0.48585   0.00000  Uiso   1.00
H1158  H     0.66922   0.95476   0.53569   0.00000  Uiso   1.00
H1159  H     0.67447   0.91720   0.50303   0.00000  Uiso   1.00
H1160  H     0.67745   0.52381   0.51335   0.00000  Uiso   1.00
H1161  H     0.66188   0.52844   0.46352   0.00000  Uiso   1.00
H1162  H     0.65967   0.56630   0.49619   0.00000  Uiso   1.00
H1163  H     0.52382   0.67745   0.48664   0.00000  Uiso   1.00
H1164  H     0.52846   0.66189   0.53648   0.00000  Uiso   1.00
H1165  H     0.56632   0.65969   0.50381   0.00000  Uiso   1.00
H1166  H     0.78762   0.56647   0.01415   0.00000  Uiso   1.00
H1167  H     0.96239   0.68352   0.51415   0.00000  Uiso   1.00
H1168  H     0.95478   0.66920   0.46431   0.00000  Uiso   1.00
H1169  H     0.91722   0.67445   0.49697   0.00000  Uiso   1.00
H1170  H     0.81647   0.53762   0.48585   0.00000  Uiso   1.00
H1171  H     0.83078   0.54524   0.53569   0.00000  Uiso   1.00
H1172  H     0.82553   0.58280   0.50303   0.00000  Uiso   1.00
H1173  H     0.82255   0.97619   0.51336   0.00000  Uiso   1.00
H1174  H     0.83812   0.97156   0.46352   0.00000  Uiso   1.00
H1175  H     0.84033   0.93370   0.49619   0.00000  Uiso   1.00
H1176  H     0.79524   0.58078   0.96431   0.00000  Uiso   1.00
H1177  H     0.83280   0.57553   0.99697   0.00000  Uiso   1.00
H1178  H     0.93352   0.71239   0.98585   0.00000  Uiso   1.00
H1179  H     0.91921   0.70478   0.03569   0.00000  Uiso   1.00
H1180  H     0.92445   0.66722   0.00303   0.00000  Uiso   1.00
O1181  O     0.75000   0.50000   0.25000   0.00000  Uiso   1.00
O1182  O     0.75000   0.96964   0.66317   0.00000  Uiso   1.00
O1183  O     0.96964   0.75000   0.33683   0.00000  Uiso   1.00
O1184  O     0.53036   0.75000   0.66317   0.00000  Uiso   1.00
O1185  O     0.50000   0.71964   0.83683   0.00000  Uiso   1.00
O1186  O     0.50000   0.78036   0.16317   0.00000  Uiso   1.00
O1187  O     0.78036   0.50000   0.83683   0.00000  Uiso   1.00
O1188  O     0.71964   0.50000   0.16317   0.00000  Uiso   1.00
O1189  O     0.50000   0.78036   0.83683   0.00000  Uiso   1.00
O1190  O     0.50000   0.71964   0.16317   0.00000  Uiso   1.00
O1191  O     0.71964   0.50000   0.83683   0.00000  Uiso   1.00
O1192  O     0.75000   0.50000   0.75000   0.00000  Uiso   1.00
O1193  O     0.78036   0.50000   0.16317   0.00000  Uiso   1.00
O1194  O     0.70726   0.57307   0.27282   0.00000  Uiso   1.00
O1195  O     0.79275   0.92693   0.72718   0.00000  Uiso   1.00
O1196  O     0.92693   0.70725   0.27282   0.00000  Uiso   1.00
O1197  O     0.57307   0.79274   0.72718   0.00000  Uiso   1.00
O1198  O     0.79275   0.92693   0.27282   0.00000  Uiso   1.00
O1199  O     0.70726   0.57307   0.72718   0.00000  Uiso   1.00
O1200  O     0.57307   0.79274   0.27282   0.00000  Uiso   1.00
O1201  O     0.92693   0.70725   0.72718   0.00000  Uiso   1.00
O1202  O     0.70726   0.92693   0.72718   0.00000  Uiso   1.00
O1203  O     0.50000   0.75000   0.25000   0.00000  Uiso   1.00
O1204  O     0.79275   0.57307   0.27282   0.00000  Uiso   1.00
O1205  O     0.92693   0.79274   0.72718   0.00000  Uiso   1.00
O1206  O     0.57307   0.70725   0.27282   0.00000  Uiso   1.00
O1207  O     0.79275   0.57307   0.72718   0.00000  Uiso   1.00
O1208  O     0.70726   0.92693   0.27282   0.00000  Uiso   1.00
O1209  O     0.57307   0.70725   0.72718   0.00000  Uiso   1.00
O1210  O     0.92693   0.79274   0.27282   0.00000  Uiso   1.00
O1211  O     0.95726   0.82307   0.77282   0.00000  Uiso   1.00
O1212  O     0.54275   0.67693   0.22718   0.00000  Uiso   1.00
O1213  O     0.67693   0.95725   0.77282   0.00000  Uiso   1.00
O1214  O     0.50000   0.75000   0.75000   0.00000  Uiso   1.00
O1215  O     0.82307   0.54274   0.22718   0.00000  Uiso   1.00
O1216  O     0.54275   0.67693   0.77282   0.00000  Uiso   1.00
O1217  O     0.95726   0.82307   0.22718   0.00000  Uiso   1.00
O1218  O     0.82307   0.54274   0.77282   0.00000  Uiso   1.00
O1219  O     0.67693   0.95725   0.22718   0.00000  Uiso   1.00
O1220  O     0.95726   0.67693   0.22718   0.00000  Uiso   1.00
O1221  O     0.54275   0.82307   0.77282   0.00000  Uiso   1.00
O1222  O     0.67693   0.54274   0.22718   0.00000  Uiso   1.00
O1223  O     0.82307   0.95725   0.77282   0.00000  Uiso   1.00
O1224  O     0.54275   0.82307   0.22718   0.00000  Uiso   1.00
O1225  O     0.75000   0.96964   0.33683   0.00000  Uiso   1.00
O1226  O     0.95726   0.67693   0.77282   0.00000  Uiso   1.00
O1227  O     0.82307   0.95725   0.22718   0.00000  Uiso   1.00
O1228  O     0.67693   0.54274   0.77282   0.00000  Uiso   1.00
O1229  O     0.69572   0.53837   0.02218   0.00000  Uiso   1.00
O1230  O     0.81072   0.52693   0.97866   0.00000  Uiso   1.00
O1231  O     0.97305   0.68929   0.02134   0.00000  Uiso   1.00
O1232  O     0.96164   0.80429   0.97782   0.00000  Uiso   1.00
O1233  O     0.80428   0.96163   0.02218   0.00000  Uiso   1.00
O1234  O     0.68928   0.97307   0.97866   0.00000  Uiso   1.00
O1235  O     0.52695   0.81071   0.02134   0.00000  Uiso   1.00
O1236  O     0.75000   0.53036   0.66317   0.00000  Uiso   1.00
O1237  O     0.53836   0.69571   0.97782   0.00000  Uiso   1.00
O1238  O     0.94571   0.78836   0.52218   0.00000  Uiso   1.00
O1239  O     0.56071   0.77695   0.47866   0.00000  Uiso   1.00
O1240  O     0.72307   0.93928   0.52134   0.00000  Uiso   1.00
O1241  O     0.71163   0.55428   0.47782   0.00000  Uiso   1.00
O1242  O     0.55429   0.71164   0.52218   0.00000  Uiso   1.00
O1243  O     0.93929   0.72305   0.47866   0.00000  Uiso   1.00
O1244  O     0.77693   0.56072   0.52134   0.00000  Uiso   1.00
O1245  O     0.78837   0.94572   0.47782   0.00000  Uiso   1.00
O1246  O     0.53036   0.75000   0.33683   0.00000  Uiso   1.00
O1247  O     0.96964   0.75000   0.66317   0.00000  Uiso   1.00
O1248  O     0.75000   0.53036   0.33683   0.00000  Uiso   1.00
Zn1249 Zn    0.70660   0.50000   0.21760   0.00000  Uiso   1.00
Zn1250 Zn    0.54340   0.75000   0.28240   0.00000  Uiso   1.00
Zn1251 Zn    0.75000   0.95660   0.71760   0.00000  Uiso   1.00
Zn1252 Zn    0.75000   0.54340   0.28240   0.00000  Uiso   1.00
Zn1253 Zn    0.54340   0.75000   0.71760   0.00000  Uiso   1.00
Zn1254 Zn    0.95660   0.75000   0.28240   0.00000  Uiso   1.00
Zn1255 Zn    0.75000   0.54340   0.71760   0.00000  Uiso   1.00
Zn1256 Zn    0.75000   0.95660   0.28240   0.00000  Uiso   1.00
Zn1257 Zn    0.79340   0.50000   0.78240   0.00000  Uiso   1.00
Zn1258 Zn    0.50000   0.70660   0.21760   0.00000  Uiso   1.00
Zn1259 Zn    0.50000   0.79340   0.78240   0.00000  Uiso   1.00
Zn1260 Zn    0.79340   0.50000   0.21760   0.00000  Uiso   1.00
Zn1261 Zn    0.70660   0.50000   0.78240   0.00000  Uiso   1.00
Zn1262 Zn    0.50000   0.79340   0.21760   0.00000  Uiso   1.00
Zn1263 Zn    0.50000   0.70660   0.78240   0.00000  Uiso   1.00
Zn1264 Zn    0.95660   0.75000   0.71760   0.00000  Uiso   1.00
loop_
_geom_bond_atom_site_label_1
_geom_bond_atom_site_label_2
_geom_bond_distance
_geom_bond_site_symmetry_2
_ccdc_geom_bond_type
C1     C46     1.398   .     A
C1     O281    1.385   .     S
C1     C64     1.408   .     S
C2     C56     1.399   .     A
C2     O291    1.386   .     S
C2     C69     1.406   .     S
C3     C112    1.407   .     A
C3     C83     1.451   .     S
C3     C119    1.407   .     A
C4     C84     1.450   .     S
C4     C122    1.406   .     A
C4     C111    1.406   .     A
C5     C110    1.406   .     A
C5     C85     1.450   .     S
C5     C121    1.406   .     A
C6     C109    1.407   .     A
C6     C86     1.451   .     S
C6     C124    1.407   .     A
C7     C123    1.407   .     A
C7     C87     1.451   .     S
C7     C108    1.407   .     A
C8     C127    1.407   .     A
C8     C107    1.407   .     A
C8     C97     1.451   .     S
C9     C98     1.451   .     S
C9     C125    1.407   .     A
C9     C106    1.407   .     A
C10    C129    1.406   .     A
C10    C90     1.450   .     S
C10    C105    1.406   .     A
C11    C91     1.450   .     S
C11    C128    1.406   .     A
C11    C103    1.406   .     A
C12    C92     1.451   .     S
C12    C131    1.407   .     A
C12    C102    1.407   .     A
C13    C702    1.406   .     A
C13    C57     1.399   .     A
C13    O292    1.386   .     S
C14    C130    1.407   .     A
C14    C101    1.407   .     A
C14    C94     1.451   .     S
C15    C100    1.406   .     A
C15    C95     1.450   .     S
C15    C133    1.406   .     A
C16    C96     1.450   .     S
C16    C132    1.406   .     A
C16    C99     1.406   .     A
C17    C80     1.470   .     S
C17    C683    1.414   1_545 A
C17    C46     1.414   .     S
C18    C79     1.480   .     S
C18    C684    1.419   1_545 A
C18    C47     1.419   .     S
C19    C78     1.480   .     S
C19    C364    1.419   1_455 A
C19    C53     1.419   .     S
C20    C366    1.414   1_455 A
C20    C54     1.414   .     S
C20    C77     1.470   .     S
C21    C76     1.470   .     S
C21    C371    1.414   1_455 A
C21    C59     1.414   .     S
C22    C56     1.419   .     A
C22    C75     1.480   .     S
C22    C377    1.419   1_455 S
C23    C689    1.419   1_545 A
C23    C62     1.419   .     S
C23    C74     1.480   .     S
C24    C58     1.398   .     A
C24    O293    1.385   .     S
C24    C72     1.408   .     S
C25    C73     1.470   .     S
C25    C695    1.414   1_545 A
C25    C58     1.414   .     S
C26    H196    1.115   .     S
C26    O281    1.410   .     S
C26    H207    1.109   .     S
C26    H185    1.110   1_554 S
C27    H229    1.109   .     S
C27    O282    1.410   .     S
C27    H228    1.115   .     S
C27    H218    1.110   1_556 S
C28    O283    1.410   .     S
C28    H231    1.115   .     S
C28    H232    1.109   .     S
C28    H230    1.110   1_554 S
C29    H188    1.109   .     S
C29    O284    1.410   .     S
C29    H187    1.115   .     S
C29    H186    1.110   1_556 S
C30    O285    1.410   .     S
C30    H190    1.115   .     S
C30    H191    1.109   .     S
C30    H189    1.110   1_554 S
C31    O286    1.410   .     S
C31    H193    1.115   .     S
C31    H194    1.109   .     S
C31    H192    1.110   1_556 S
C32    O287    1.410   .     S
C32    H197    1.115   .     S
C32    H198    1.109   .     S
C32    H195    1.110   1_554 S
C33    H200    1.115   .     S
C33    O289    1.410   .     S
C33    H201    1.109   .     S
C33    H199    1.110   1_556 S
C34    H204    1.109   .     S
C34    H202    1.110   .     S
C34    H203    1.115   .     S
C34    O290    1.410   .     S
C35    C59     1.398   .     A
C35    O294    1.385   .     S
C35    C68     1.408   .     S
C36    H206    1.115   .     S
C36    H208    1.109   .     S
C36    O291    1.410   .     S
C36    H205    1.110   .     S
C37    H211    1.109   .     S
C37    O292    1.410   .     S
C37    H209    1.110   .     S
C37    H210    1.115   .     S
C38    O293    1.410   .     S
C38    H214    1.109   .     S
C38    H212    1.110   .     S
C38    H213    1.115   .     S
C39    O294    1.410   .     S
C39    H215    1.110   .     S
C39    H217    1.109   .     S
C39    H216    1.115   .     S
C40    H220    1.115   .     S
C40    H221    1.109   .     S
C40    H219    1.110   .     S
C40    O295    1.410   .     S
C41    H222    1.110   .     S
C41    H224    1.109   .     S
C41    H223    1.115   .     S
C41    O296    1.410   .     S
C42    O297    1.410   .     S
C42    H226    1.115   .     S
C42    H227    1.109   .     S
C42    H225    1.110   .     S
C43    O295    1.386   .     S
C43    C61     1.399   .     A
C43    C385    1.406   .     A
C44    O296    1.386   .     S
C44    C62     1.399   .     A
C44    C70     1.406   .     S
C45    O297    1.385   .     S
C45    C63     1.398   .     A
C45    C704    1.408   .     A
C46    Cl163   1.770   .     S
C47    Cl164   1.770   .     S
C47    C49     1.399   .     A
C48    Cl165   1.770   .     S
C48    C60     1.399   .     A
C48    C335    1.419   .     A
C49    O282    1.386   .     S
C49    C65     1.406   .     S
C50    Cl166   1.770   .     S
C50    C71     1.398   .     A
C50    C336    1.414   .     A
C51    Cl167   1.770   .     S
C51    C82     1.398   .     A
C51    C649    1.414   .     A
C52    C93     1.399   .     A
C52    C650    1.419   .     A
C52    Cl168   1.770   .     S
C53    C104    1.399   .     A
C53    Cl169   1.770   .     S
C54    C115    1.398   .     A
C54    Cl171   1.770   .     S
C55    C337    1.414   .     A
C55    C126    1.398   .     A
C55    Cl172   1.770   .     S
C56    Cl173   1.770   .     S
C57    C655    1.419   .     A
C57    Cl174   1.770   .     S
C58    Cl175   1.770   .     S
C59    Cl176   1.770   .     S
C60    O283    1.386   .     S
C60    C382    1.406   .     A
C61    Cl177   1.770   .     S
C61    C338    1.419   .     S
C62    Cl178   1.770   .     S
C63    Cl179   1.770   .     S
C63    C657    1.414   .     A
C64    C714    1.408   1_545 A
C64    C65     1.469   1_554 S
C65    C725    1.406   1_545 A
C65    C64     1.469   1_556 S
C66    C376    1.406   1_455 A
C66    C67     1.469   1_554 S
C66    C104    1.406   .     S
C67    C387    1.408   1_455 A
C67    C66     1.469   1_556 S
C67    C115    1.408   .     S
C68    C69     1.469   .     S
C68    C442    1.408   1_455 A
C69    C359    1.406   1_455 A
C70    C645    1.406   1_545 A
C70    C72     1.469   .     S
C71    O284    1.385   .     S
C71    C383    1.408   .     A
C72    C677    1.408   1_545 A
C73    O909    1.280   1_545 A
C73    O300    1.280   .     S
C74    O288    1.283   .     A
C74    O866    1.283   1_545 S
C75    O298    1.283   .     A
C75    O551    1.283   1_455 S
C76    O615    1.280   1_455 A
C76    O236    1.280   .     S
C77    O237    1.280   .     S
C77    O241    1.280   .     S
C78    O238    1.283   .     S
C78    O242    1.283   .     S
C79    O239    1.283   .     S
C79    O243    1.283   .     S
C80    O240    1.280   .     A
C80    O245    1.280   .     A
C81    C136    1.451   .     S
C81    O274    1.277   .     A
C81    O246    1.277   .     A
C82    O285    1.385   .     S
C82    C696    1.408   .     A
C83    O247    1.277   .     A
C83    O275    1.277   .     A
C84    O248    1.277   .     A
C84    O272    1.277   .     A
C85    O249    1.277   .     A
C85    O273    1.277   .     A
C86    O279    1.277   .     A
C86    O250    1.277   .     A
C87    O280    1.277   .     A
C87    O251    1.277   .     A
C88    O252    1.277   .     A
C88    C134    1.450   .     S
C88    O276    1.277   .     A
C89    C135    1.450   .     S
C89    O253    1.277   .     A
C89    O278    1.277   .     A
C90    O254    1.277   .     A
C90    O265    1.277   .     A
C91    O267    1.277   .     A
C91    O256    1.277   .     A
C92    O257    1.277   .     A
C92    O263    1.277   .     A
C93    O286    1.386   .     S
C93    C697    1.406   .     A
C94    O264    1.277   .     A
C94    O258    1.277   .     A
C95    O270    1.277   .     A
C95    O259    1.277   .     A
C96    O271    1.277   .     A
C96    O260    1.277   .     A
C97    O261    1.277   .     A
C97    O268    1.277   .     A
C98    O269    1.277   .     A
C98    O262    1.277   .     A
C99    C116    1.396   .     A
C99    Cl137   1.771   .     S
C100   C114    1.396   .     A
C100   Cl148   1.770   .     S
C101   C113    1.396   .     A
C101   Cl159   1.771   .     S
C102   Cl170   1.771   .     S
C102   C112    1.396   .     A
C103   C111    1.396   .     A
C103   Cl180   1.771   .     S
C104   O287    1.386   .     S
C105   C110    1.396   .     A
C105   Cl181   1.770   .     S
C106   C109    1.396   .     A
C106   Cl182   1.771   .     S
C107   C108    1.396   .     A
C107   Cl183   1.771   .     S
C108   Cl184   1.771   .     S
C109   Cl138   1.771   .     S
C110   Cl139   1.771   .     S
C111   Cl140   1.770   .     S
C112   Cl141   1.771   .     S
C113   Cl142   1.771   .     S
C113   C136    1.407   .     A
C114   Cl143   1.771   .     S
C114   C135    1.406   .     A
C115   O289    1.385   .     S
C116   Cl144   1.770   .     S
C116   C134    1.406   .     A
C117   C133    1.396   .     A
C117   C135    1.406   .     A
C117   Cl145   1.771   .     S
C118   C134    1.406   .     A
C118   C132    1.396   .     A
C118   Cl146   1.770   .     S
C119   C131    1.396   .     A
C119   Cl147   1.771   .     S
C120   Cl149   1.771   .     S
C120   C136    1.407   .     A
C120   C130    1.396   .     A
C121   C129    1.396   .     A
C121   Cl150   1.771   .     S
C122   C128    1.396   .     A
C122   Cl151   1.770   .     S
C123   Cl152   1.771   .     S
C123   C127    1.396   .     A
C124   Cl153   1.771   .     S
C124   C125    1.396   .     A
C125   Cl154   1.771   .     S
C126   O290    1.385   .     S
C126   C384    1.408   .     A
C127   Cl155   1.771   .     S
C128   Cl156   1.771   .     S
C129   Cl157   1.770   .     S
C130   Cl158   1.771   .     S
C131   Cl160   1.771   .     S
C132   Cl161   1.771   .     S
C133   Cl162   1.770   .     S
H185   C26     1.110   1_556 S
H186   C29     1.110   1_554 S
H189   C30     1.110   1_556 S
H192   C31     1.110   1_554 S
H195   C32     1.110   1_556 S
H199   C33     1.110   1_554 S
H218   C27     1.110   1_554 S
H230   C28     1.110   1_556 S
O233   Zn312   1.944   .     S
O233   Zn301   1.944   .     S
O233   Zn940   1.944   1_545 S
O233   Zn304   1.944   .     S
O234   Zn303   1.948   .     S
O234   C706    1.283   .     S
O235   Zn306   1.948   .     S
O235   C391    1.283   .     S
O236   Zn305   1.948   .     S
O237   Zn315   1.948   .     S
O238   Zn314   1.948   .     S
O239   Zn309   1.948   .     S
O240   Zn301   1.948   .     S
O241   Zn311   1.948   .     S
O242   Zn310   1.948   .     S
O243   Zn313   1.948   .     S
O244   Zn313   1.944   .     S
O244   Zn307   1.944   .     S
O244   Zn309   1.944   .     S
O244   Zn935   1.944   1_545 S
O245   Zn312   1.948   .     S
O246   Zn304   1.931   .     S
O247   Zn303   1.931   .     S
O248   Zn306   1.930   .     S
O249   Zn305   1.930   .     S
O250   Zn308   1.931   .     S
O251   Zn307   1.931   .     S
O252   Zn302   1.930   .     S
O253   Zn316   1.930   .     S
O254   Zn303   1.930   .     S
O255   Zn310   1.944   .     S
O255   Zn314   1.944   .     S
O255   Zn302   1.944   .     S
O255   Zn622   1.944   1_455 S
O256   Zn304   1.930   .     S
O257   Zn316   1.931   .     S
O258   Zn302   1.931   .     S
O259   Zn307   1.930   .     S
O260   Zn308   1.930   .     S
O261   Zn305   1.931   .     S
O262   Zn306   1.931   .     S
O263   Zn627   1.931   .     S
O264   Zn310   1.931   .     S
O265   Zn945   1.930   .     S
O266   Zn632   1.944   1_455 S
O266   Zn305   1.944   .     S
O266   Zn311   1.944   .     S
O266   Zn315   1.944   .     S
O267   Zn312   1.930   .     S
O268   Zn315   1.931   .     S
O269   Zn630   1.931   .     S
O270   Zn309   1.930   .     S
O271   Zn933   1.930   .     S
O272   Zn626   1.930   .     S
O273   Zn311   1.930   .     S
O274   Zn301   1.931   .     S
O275   Zn941   1.931   .     S
O276   Zn314   1.930   .     S
O277   C705    1.280   .     A
O277   Zn308   1.948   .     S
O278   Zn631   1.930   .     S
O279   Zn944   1.931   .     S
O280   Zn313   1.931   .     S
O288   Zn307   1.948   .     S
O298   Zn302   1.948   .     S
O299   Zn316   1.948   .     S
O299   C392    1.280   .     A
O300   Zn304   1.948   .     S
Zn301  O903    1.930   1_545 S
Zn303  O876    1.944   .     S
Zn306  O571    1.944   .     S
Zn308  O865    1.944   .     S
Zn309  O907    1.931   1_545 S
Zn310  O588    1.930   1_455 S
Zn311  O579    1.931   1_455 S
Zn312  O911    1.931   1_545 S
Zn313  O897    1.930   1_545 S
Zn314  O585    1.931   1_455 S
Zn315  O594    1.930   1_455 S
Zn316  O582    1.944   .     S
C317   C362    1.398   .     A
C317   O597    1.385   .     S
C317   C380    1.408   .     S
C318   C372    1.399   .     A
C318   O607    1.386   .     S
C318   C385    1.406   .     S
C319   C428    1.407   .     A
C319   C399    1.451   .     S
C319   C435    1.407   .     A
C320   C400    1.450   .     S
C320   C438    1.406   .     A
C320   C427    1.406   .     A
C321   C426    1.406   .     A
C321   C401    1.450   .     S
C321   C437    1.406   .     A
C322   C425    1.407   .     A
C322   C402    1.451   .     S
C322   C440    1.407   .     A
C323   C439    1.407   .     A
C323   C403    1.451   .     S
C323   C424    1.407   .     A
C324   C443    1.407   .     A
C324   C423    1.407   .     A
C324   C413    1.451   .     S
C325   C414    1.451   .     S
C325   C441    1.407   .     A
C325   C422    1.407   .     A
C326   C445    1.406   .     A
C326   C406    1.450   .     S
C326   C421    1.406   .     A
C327   C407    1.450   .     S
C327   C444    1.406   .     A
C327   C419    1.406   .     A
C328   C408    1.451   .     S
C328   C447    1.407   .     A
C328   C418    1.407   .     A
C329   C1018   1.406   .     A
C329   C373    1.399   .     A
C329   O608    1.386   .     S
C330   C446    1.407   .     A
C330   C417    1.407   .     A
C330   C410    1.451   .     S
C331   C416    1.406   .     A
C331   C411    1.450   .     S
C331   C449    1.406   .     A
C332   C412    1.450   .     S
C332   C448    1.406   .     A
C332   C415    1.406   .     A
C333   C396    1.470   .     S
C333   C999    1.414   1_545 A
C333   C362    1.414   .     S
C334   C395    1.480   .     S
C334   C1000   1.419   1_545 A
C334   C363    1.419   .     S
C335   C394    1.480   .     S
C335   C369    1.419   .     S
C336   C370    1.414   .     S
C336   C393    1.470   .     S
C337   C392    1.470   .     S
C337   C375    1.414   .     S
C338   C372    1.419   .     A
C338   C391    1.480   .     S
C339   C1005   1.419   1_545 A
C339   C378    1.419   .     S
C339   C390    1.480   .     S
C340   C374    1.398   .     A
C340   O609    1.385   .     S
C340   C388    1.408   .     S
C341   C389    1.470   .     S
C341   C1011   1.414   1_545 A
C341   C374    1.414   .     S
C342   H512    1.115   .     S
C342   O597    1.410   .     S
C342   H523    1.109   .     S
C342   H501    1.110   1_554 S
C343   H545    1.109   .     S
C343   O598    1.410   .     S
C343   H544    1.115   .     S
C343   H534    1.110   1_556 S
C344   O599    1.410   .     S
C344   H547    1.115   .     S
C344   H548    1.109   .     S
C344   H546    1.110   1_554 S
C345   H504    1.109   .     S
C345   O600    1.410   .     S
C345   H503    1.115   .     S
C345   H502    1.110   1_556 S
C346   O601    1.410   .     S
C346   H506    1.115   .     S
C346   H507    1.109   .     S
C346   H505    1.110   1_554 S
C347   O602    1.410   .     S
C347   H509    1.115   .     S
C347   H510    1.109   .     S
C347   H508    1.110   1_556 S
C348   O603    1.410   .     S
C348   H513    1.115   .     S
C348   H514    1.109   .     S
C348   H511    1.110   1_554 S
C349   H516    1.115   .     S
C349   O605    1.410   .     S
C349   H517    1.109   .     S
C349   H515    1.110   1_556 S
C350   H520    1.109   .     S
C350   H518    1.110   .     S
C350   H519    1.115   .     S
C350   O606    1.410   .     S
C351   C375    1.398   .     A
C351   O610    1.385   .     S
C351   C384    1.408   .     S
C352   H522    1.115   .     S
C352   H524    1.109   .     S
C352   O607    1.410   .     S
C352   H521    1.110   .     S
C353   H527    1.109   .     S
C353   O608    1.410   .     S
C353   H525    1.110   .     S
C353   H526    1.115   .     S
C354   O609    1.410   .     S
C354   H530    1.109   .     S
C354   H528    1.110   .     S
C354   H529    1.115   .     S
C355   O610    1.410   .     S
C355   H531    1.110   .     S
C355   H533    1.109   .     S
C355   H532    1.115   .     S
C356   H536    1.115   .     S
C356   H537    1.109   .     S
C356   H535    1.110   .     S
C356   O611    1.410   .     S
C357   H538    1.110   .     S
C357   H540    1.109   .     S
C357   H539    1.115   .     S
C357   O612    1.410   .     S
C358   O613    1.410   .     S
C358   H542    1.115   .     S
C358   H543    1.109   .     S
C358   H541    1.110   .     S
C359   O611    1.386   .     S
C359   C377    1.399   .     A
C359   C69     1.406   1_655 A
C360   O612    1.386   .     S
C360   C378    1.399   .     A
C360   C386    1.406   .     S
C361   O613    1.385   .     S
C361   C379    1.398   .     A
C361   C1020   1.408   .     A
C362   Cl479   1.770   .     S
C363   Cl480   1.770   .     S
C363   C365    1.399   .     A
C364   Cl481   1.770   .     S
C364   C376    1.399   .     A
C364   C19     1.419   1_655 A
C365   O598    1.386   .     S
C365   C381    1.406   .     S
C366   Cl482   1.770   .     S
C366   C387    1.398   .     A
C366   C20     1.414   1_655 A
C367   Cl483   1.770   .     S
C367   C398    1.398   .     A
C367   C965    1.414   .     A
C368   C409    1.399   .     A
C368   C966    1.419   .     A
C368   Cl484   1.770   .     S
C369   C420    1.399   .     A
C369   Cl485   1.770   .     S
C370   C431    1.398   .     A
C370   Cl487   1.770   .     S
C371   C21     1.414   1_655 A
C371   C442    1.398   .     A
C371   Cl488   1.770   .     S
C372   Cl489   1.770   .     S
C373   C971    1.419   .     A
C373   Cl490   1.770   .     S
C374   Cl491   1.770   .     S
C375   Cl492   1.770   .     S
C376   O599    1.386   .     S
C376   C66     1.406   1_655 A
C377   Cl493   1.770   .     S
C377   C22     1.419   1_655 S
C378   Cl494   1.770   .     S
C379   Cl495   1.770   .     S
C379   C973    1.414   .     A
C380   C1030   1.408   1_545 A
C380   C381    1.469   1_554 S
C381   C1041   1.406   1_545 A
C381   C380    1.469   1_556 S
C382   C383    1.469   1_554 S
C382   C420    1.406   .     S
C383   C382    1.469   1_556 S
C383   C431    1.408   .     S
C384   C385    1.469   .     S
C386   C961    1.406   1_545 A
C386   C388    1.469   .     S
C387   O600    1.385   .     S
C387   C67     1.408   1_655 A
C388   C993    1.408   1_545 A
C389   O1225   1.280   1_545 A
C389   O616    1.280   .     S
C390   O604    1.283   .     A
C390   O1182   1.283   1_545 S
C391   O614    1.283   .     A
C392   O552    1.280   .     S
C393   O553    1.280   .     S
C393   O557    1.280   .     S
C394   O554    1.283   .     S
C394   O558    1.283   .     S
C395   O555    1.283   .     S
C395   O559    1.283   .     S
C396   O556    1.280   .     A
C396   O561    1.280   .     A
C397   C452    1.451   .     S
C397   O590    1.277   .     A
C397   O562    1.277   .     A
C398   O601    1.385   .     S
C398   C1012   1.408   .     A
C399   O563    1.277   .     A
C399   O591    1.277   .     A
C400   O564    1.277   .     A
C400   O588    1.277   .     A
C401   O565    1.277   .     A
C401   O589    1.277   .     A
C402   O595    1.277   .     A
C402   O566    1.277   .     A
C403   O596    1.277   .     A
C403   O567    1.277   .     A
C404   O568    1.277   .     A
C404   C450    1.450   .     S
C404   O592    1.277   .     A
C405   C451    1.450   .     S
C405   O569    1.277   .     A
C405   O594    1.277   .     A
C406   O570    1.277   .     A
C406   O581    1.277   .     A
C407   O583    1.277   .     A
C407   O572    1.277   .     A
C408   O573    1.277   .     A
C408   O579    1.277   .     A
C409   O602    1.386   .     S
C409   C1013   1.406   .     A
C410   O580    1.277   .     A
C410   O574    1.277   .     A
C411   O586    1.277   .     A
C411   O575    1.277   .     A
C412   O587    1.277   .     A
C412   O576    1.277   .     A
C413   O577    1.277   .     A
C413   O584    1.277   .     A
C414   O585    1.277   .     A
C414   O578    1.277   .     A
C415   C432    1.396   .     A
C415   Cl453   1.771   .     S
C416   C430    1.396   .     A
C416   Cl464   1.770   .     S
C417   C429    1.396   .     A
C417   Cl475   1.771   .     S
C418   Cl486   1.771   .     S
C418   C428    1.396   .     A
C419   C427    1.396   .     A
C419   Cl496   1.771   .     S
C420   O603    1.386   .     S
C421   C426    1.396   .     A
C421   Cl497   1.770   .     S
C422   C425    1.396   .     A
C422   Cl498   1.771   .     S
C423   C424    1.396   .     A
C423   Cl499   1.771   .     S
C424   Cl500   1.771   .     S
C425   Cl454   1.771   .     S
C426   Cl455   1.771   .     S
C427   Cl456   1.770   .     S
C428   Cl457   1.771   .     S
C429   Cl458   1.771   .     S
C429   C452    1.407   .     A
C430   Cl459   1.771   .     S
C430   C451    1.406   .     A
C431   O605    1.385   .     S
C432   Cl460   1.770   .     S
C432   C450    1.406   .     A
C433   C449    1.396   .     A
C433   C451    1.406   .     A
C433   Cl461   1.771   .     S
C434   C450    1.406   .     A
C434   C448    1.396   .     A
C434   Cl462   1.770   .     S
C435   C447    1.396   .     A
C435   Cl463   1.771   .     S
C436   Cl465   1.771   .     S
C436   C452    1.407   .     A
C436   C446    1.396   .     A
C437   C445    1.396   .     A
C437   Cl466   1.771   .     S
C438   C444    1.396   .     A
C438   Cl467   1.770   .     S
C439   Cl468   1.771   .     S
C439   C443    1.396   .     A
C440   Cl469   1.771   .     S
C440   C441    1.396   .     A
C441   Cl470   1.771   .     S
C442   O606    1.385   .     S
C442   C68     1.408   1_655 A
C443   Cl471   1.771   .     S
C444   Cl472   1.771   .     S
C445   Cl473   1.770   .     S
C446   Cl474   1.771   .     S
C447   Cl476   1.771   .     S
C448   Cl477   1.771   .     S
C449   Cl478   1.770   .     S
H501   C342    1.110   1_556 S
H502   C345    1.110   1_554 S
H505   C346    1.110   1_556 S
H508   C347    1.110   1_554 S
H511   C348    1.110   1_556 S
H515   C349    1.110   1_554 S
H534   C343    1.110   1_554 S
H546   C344    1.110   1_556 S
O549   Zn628   1.944   .     S
O549   Zn617   1.944   .     S
O549   Zn1256  1.944   1_545 S
O549   Zn620   1.944   .     S
O550   Zn619   1.948   .     S
O550   C1022   1.283   .     S
O551   Zn622   1.948   .     S
O551   C75     1.283   1_655 S
O552   Zn621   1.948   .     S
O553   Zn631   1.948   .     S
O554   Zn630   1.948   .     S
O555   Zn625   1.948   .     S
O556   Zn617   1.948   .     S
O557   Zn627   1.948   .     S
O558   Zn626   1.948   .     S
O559   Zn629   1.948   .     S
O560   Zn629   1.944   .     S
O560   Zn623   1.944   .     S
O560   Zn625   1.944   .     S
O560   Zn1251  1.944   1_545 S
O561   Zn628   1.948   .     S
O562   Zn620   1.931   .     S
O563   Zn619   1.931   .     S
O564   Zn622   1.930   .     S
O565   Zn621   1.930   .     S
O566   Zn624   1.931   .     S
O567   Zn623   1.931   .     S
O568   Zn618   1.930   .     S
O569   Zn632   1.930   .     S
O570   Zn619   1.930   .     S
O571   Zn626   1.944   .     S
O571   Zn630   1.944   .     S
O571   Zn618   1.944   .     S
O572   Zn620   1.930   .     S
O573   Zn632   1.931   .     S
O574   Zn618   1.931   .     S
O575   Zn623   1.930   .     S
O576   Zn624   1.930   .     S
O577   Zn621   1.931   .     S
O578   Zn622   1.931   .     S
O579   Zn311   1.931   1_655 S
O580   Zn626   1.931   .     S
O581   Zn1261  1.930   .     S
O582   Zn621   1.944   .     S
O582   Zn627   1.944   .     S
O582   Zn631   1.944   .     S
O583   Zn628   1.930   .     S
O584   Zn631   1.931   .     S
O585   Zn314   1.931   1_655 S
O586   Zn625   1.930   .     S
O587   Zn1249  1.930   .     S
O588   Zn310   1.930   1_655 S
O589   Zn627   1.930   .     S
O590   Zn617   1.931   .     S
O591   Zn1257  1.931   .     S
O592   Zn630   1.930   .     S
O593   C1021   1.280   .     A
O593   Zn624   1.948   .     S
O594   Zn315   1.930   1_655 S
O595   Zn1260  1.931   .     S
O596   Zn629   1.931   .     S
O604   Zn623   1.948   .     S
O614   Zn618   1.948   .     S
O615   Zn632   1.948   .     S
O615   C76     1.280   1_655 A
O616   Zn620   1.948   .     S
Zn617  O1219   1.930   1_545 S
Zn619  O1192   1.944   .     S
Zn622  O255    1.944   1_655 S
Zn624  O1181   1.944   .     S
Zn625  O1223   1.931   1_545 S
Zn628  O1227   1.931   1_545 S
Zn629  O1213   1.930   1_545 S
Zn632  O266    1.944   1_655 S
C633   C678    1.398   .     A
C633   O913    1.385   .     S
C633   C696    1.408   .     S
C634   C688    1.399   .     A
C634   O923    1.386   .     S
C634   C701    1.406   .     S
C635   C744    1.407   .     A
C635   C715    1.451   .     S
C635   C751    1.407   .     A
C636   C716    1.450   .     S
C636   C754    1.406   .     A
C636   C743    1.406   .     A
C637   C742    1.406   .     A
C637   C717    1.450   .     S
C637   C753    1.406   .     A
C638   C741    1.407   .     A
C638   C718    1.451   .     S
C638   C756    1.407   .     A
C639   C755    1.407   .     A
C639   C719    1.451   .     S
C639   C740    1.407   .     A
C640   C759    1.407   .     A
C640   C739    1.407   .     A
C640   C729    1.451   .     S
C641   C730    1.451   .     S
C641   C757    1.407   .     A
C641   C738    1.407   .     A
C642   C761    1.406   .     A
C642   C722    1.450   .     S
C642   C737    1.406   .     A
C643   C723    1.450   .     S
C643   C760    1.406   .     A
C643   C735    1.406   .     A
C644   C724    1.451   .     S
C644   C763    1.407   .     A
C644   C734    1.407   .     A
C645   C70     1.406   1_565 A
C645   C689    1.399   .     A
C645   O924    1.386   .     S
C646   C762    1.407   .     A
C646   C733    1.407   .     A
C646   C726    1.451   .     S
C647   C732    1.406   .     A
C647   C727    1.450   .     S
C647   C765    1.406   .     A
C648   C728    1.450   .     S
C648   C764    1.406   .     A
C648   C731    1.406   .     A
C649   C712    1.470   .     S
C649   C678    1.414   .     S
C650   C711    1.480   .     S
C650   C679    1.419   .     S
C651   C710    1.480   .     S
C651   C996    1.419   1_455 A
C651   C685    1.419   .     S
C652   C998    1.414   1_455 A
C652   C686    1.414   .     S
C652   C709    1.470   .     S
C653   C708    1.470   .     S
C653   C1003   1.414   1_455 A
C653   C691    1.414   .     S
C654   C688    1.419   .     A
C654   C707    1.480   .     S
C654   C1009   1.419   1_455 S
C655   C694    1.419   .     S
C655   C706    1.480   .     S
C656   C690    1.398   .     A
C656   O925    1.385   .     S
C656   C704    1.408   .     S
C657   C705    1.470   .     S
C657   C690    1.414   .     S
C658   H828    1.115   .     S
C658   O913    1.410   .     S
C658   H839    1.109   .     S
C658   H817    1.110   1_554 S
C659   H861    1.109   .     S
C659   O914    1.410   .     S
C659   H860    1.115   .     S
C659   H850    1.110   1_556 S
C660   O915    1.410   .     S
C660   H863    1.115   .     S
C660   H864    1.109   .     S
C660   H862    1.110   1_554 S
C661   H820    1.109   .     S
C661   O916    1.410   .     S
C661   H819    1.115   .     S
C661   H818    1.110   1_556 S
C662   O917    1.410   .     S
C662   H822    1.115   .     S
C662   H823    1.109   .     S
C662   H821    1.110   1_554 S
C663   O918    1.410   .     S
C663   H825    1.115   .     S
C663   H826    1.109   .     S
C663   H824    1.110   1_556 S
C664   O919    1.410   .     S
C664   H829    1.115   .     S
C664   H830    1.109   .     S
C664   H827    1.110   1_554 S
C665   H832    1.115   .     S
C665   O921    1.410   .     S
C665   H833    1.109   .     S
C665   H831    1.110   1_556 S
C666   H836    1.109   .     S
C666   H834    1.110   .     S
C666   H835    1.115   .     S
C666   O922    1.410   .     S
C667   C691    1.398   .     A
C667   O926    1.385   .     S
C667   C700    1.408   .     S
C668   H838    1.115   .     S
C668   H840    1.109   .     S
C668   O923    1.410   .     S
C668   H837    1.110   .     S
C669   H843    1.109   .     S
C669   O924    1.410   .     S
C669   H841    1.110   .     S
C669   H842    1.115   .     S
C670   O925    1.410   .     S
C670   H846    1.109   .     S
C670   H844    1.110   .     S
C670   H845    1.115   .     S
C671   O926    1.410   .     S
C671   H847    1.110   .     S
C671   H849    1.109   .     S
C671   H848    1.115   .     S
C672   H852    1.115   .     S
C672   H853    1.109   .     S
C672   H851    1.110   .     S
C672   O927    1.410   .     S
C673   H854    1.110   .     S
C673   H856    1.109   .     S
C673   H855    1.115   .     S
C673   O928    1.410   .     S
C674   O929    1.410   .     S
C674   H858    1.115   .     S
C674   H859    1.109   .     S
C674   H857    1.110   .     S
C675   O927    1.386   .     S
C675   C693    1.399   .     A
C675   C1017   1.406   .     A
C676   O928    1.386   .     S
C676   C694    1.399   .     A
C676   C702    1.406   .     S
C677   O929    1.385   .     S
C677   C695    1.398   .     A
C677   C72     1.408   1_565 A
C678   Cl795   1.770   .     S
C679   Cl796   1.770   .     S
C679   C681    1.399   .     A
C680   Cl797   1.770   .     S
C680   C692    1.399   .     A
C680   C967    1.419   .     A
C681   O914    1.386   .     S
C681   C697    1.406   .     S
C682   Cl798   1.770   .     S
C682   C703    1.398   .     A
C682   C968    1.414   .     A
C683   Cl799   1.770   .     S
C683   C714    1.398   .     A
C683   C17     1.414   1_565 A
C684   C725    1.399   .     A
C684   C18     1.419   1_565 A
C684   Cl800   1.770   .     S
C685   C736    1.399   .     A
C685   Cl801   1.770   .     S
C686   C747    1.398   .     A
C686   Cl803   1.770   .     S
C687   C969    1.414   .     A
C687   C758    1.398   .     A
C687   Cl804   1.770   .     S
C688   Cl805   1.770   .     S
C689   C23     1.419   1_565 A
C689   Cl806   1.770   .     S
C690   Cl807   1.770   .     S
C691   Cl808   1.770   .     S
C692   O915    1.386   .     S
C692   C1014   1.406   .     A
C693   Cl809   1.770   .     S
C693   C970    1.419   .     S
C694   Cl810   1.770   .     S
C695   Cl811   1.770   .     S
C695   C25     1.414   1_565 A
C696   C697    1.469   1_554 S
C697   C696    1.469   1_556 S
C698   C1008   1.406   1_455 A
C698   C699    1.469   1_554 S
C698   C736    1.406   .     S
C699   C1019   1.408   1_455 A
C699   C698    1.469   1_556 S
C699   C747    1.408   .     S
C700   C701    1.469   .     S
C700   C1074   1.408   1_455 A
C701   C991    1.406   1_455 A
C702   C704    1.469   .     S
C703   O916    1.385   .     S
C703   C1015   1.408   .     A
C705   O932    1.280   .     S
C706   O920    1.283   .     A
C707   O930    1.283   .     A
C707   O1183   1.283   1_455 S
C708   O1247   1.280   1_455 A
C708   O868    1.280   .     S
C709   O869    1.280   .     S
C709   O873    1.280   .     S
C710   O870    1.283   .     S
C710   O874    1.283   .     S
C711   O871    1.283   .     S
C711   O875    1.283   .     S
C712   O872    1.280   .     A
C712   O877    1.280   .     A
C713   C768    1.451   .     S
C713   O906    1.277   .     A
C713   O878    1.277   .     A
C714   O917    1.385   .     S
C714   C64     1.408   1_565 A
C715   O879    1.277   .     A
C715   O907    1.277   .     A
C716   O880    1.277   .     A
C716   O904    1.277   .     A
C717   O881    1.277   .     A
C717   O905    1.277   .     A
C718   O911    1.277   .     A
C718   O882    1.277   .     A
C719   O912    1.277   .     A
C719   O883    1.277   .     A
C720   O884    1.277   .     A
C720   C766    1.450   .     S
C720   O908    1.277   .     A
C721   C767    1.450   .     S
C721   O885    1.277   .     A
C721   O910    1.277   .     A
C722   O886    1.277   .     A
C722   O897    1.277   .     A
C723   O899    1.277   .     A
C723   O888    1.277   .     A
C724   O889    1.277   .     A
C724   O895    1.277   .     A
C725   O918    1.386   .     S
C725   C65     1.406   1_565 A
C726   O896    1.277   .     A
C726   O890    1.277   .     A
C727   O902    1.277   .     A
C727   O891    1.277   .     A
C728   O903    1.277   .     A
C728   O892    1.277   .     A
C729   O893    1.277   .     A
C729   O900    1.277   .     A
C730   O901    1.277   .     A
C730   O894    1.277   .     A
C731   C748    1.396   .     A
C731   Cl769   1.771   .     S
C732   C746    1.396   .     A
C732   Cl780   1.770   .     S
C733   C745    1.396   .     A
C733   Cl791   1.771   .     S
C734   Cl802   1.771   .     S
C734   C744    1.396   .     A
C735   C743    1.396   .     A
C735   Cl812   1.771   .     S
C736   O919    1.386   .     S
C737   C742    1.396   .     A
C737   Cl813   1.770   .     S
C738   C741    1.396   .     A
C738   Cl814   1.771   .     S
C739   C740    1.396   .     A
C739   Cl815   1.771   .     S
C740   Cl816   1.771   .     S
C741   Cl770   1.771   .     S
C742   Cl771   1.771   .     S
C743   Cl772   1.770   .     S
C744   Cl773   1.771   .     S
C745   Cl774   1.771   .     S
C745   C768    1.407   .     A
C746   Cl775   1.771   .     S
C746   C767    1.406   .     A
C747   O921    1.385   .     S
C748   Cl776   1.770   .     S
C748   C766    1.406   .     A
C749   C765    1.396   .     A
C749   C767    1.406   .     A
C749   Cl777   1.771   .     S
C750   C766    1.406   .     A
C750   C764    1.396   .     A
C750   Cl778   1.770   .     S
C751   C763    1.396   .     A
C751   Cl779   1.771   .     S
C752   Cl781   1.771   .     S
C752   C768    1.407   .     A
C752   C762    1.396   .     A
C753   C761    1.396   .     A
C753   Cl782   1.771   .     S
C754   C760    1.396   .     A
C754   Cl783   1.770   .     S
C755   Cl784   1.771   .     S
C755   C759    1.396   .     A
C756   Cl785   1.771   .     S
C756   C757    1.396   .     A
C757   Cl786   1.771   .     S
C758   O922    1.385   .     S
C758   C1016   1.408   .     A
C759   Cl787   1.771   .     S
C760   Cl788   1.771   .     S
C761   Cl789   1.770   .     S
C762   Cl790   1.771   .     S
C763   Cl792   1.771   .     S
C764   Cl793   1.771   .     S
C765   Cl794   1.770   .     S
H817   C658    1.110   1_556 S
H818   C661    1.110   1_554 S
H821   C662    1.110   1_556 S
H824   C663    1.110   1_554 S
H827   C664    1.110   1_556 S
H831   C665    1.110   1_554 S
H850   C659    1.110   1_554 S
H862   C660    1.110   1_556 S
O865   Zn944   1.944   .     S
O865   Zn933   1.944   .     S
O865   Zn936   1.944   .     S
O866   Zn935   1.948   .     S
O866   C74     1.283   1_565 S
O867   Zn938   1.948   .     S
O867   C1023   1.283   .     S
O868   Zn937   1.948   .     S
O869   Zn947   1.948   .     S
O870   Zn946   1.948   .     S
O871   Zn941   1.948   .     S
O872   Zn933   1.948   .     S
O873   Zn943   1.948   .     S
O874   Zn942   1.948   .     S
O875   Zn945   1.948   .     S
O876   Zn945   1.944   .     S
O876   Zn939   1.944   .     S
O876   Zn941   1.944   .     S
O877   Zn944   1.948   .     S
O878   Zn936   1.931   .     S
O879   Zn935   1.931   .     S
O880   Zn938   1.930   .     S
O881   Zn937   1.930   .     S
O882   Zn940   1.931   .     S
O883   Zn939   1.931   .     S
O884   Zn934   1.930   .     S
O885   Zn948   1.930   .     S
O886   Zn935   1.930   .     S
O887   Zn942   1.944   .     S
O887   Zn946   1.944   .     S
O887   Zn934   1.944   .     S
O887   Zn1254  1.944   1_455 S
O888   Zn936   1.930   .     S
O889   Zn948   1.931   .     S
O890   Zn934   1.931   .     S
O891   Zn939   1.930   .     S
O892   Zn940   1.930   .     S
O893   Zn937   1.931   .     S
O894   Zn938   1.931   .     S
O895   Zn1259  1.931   .     S
O896   Zn942   1.931   .     S
O897   Zn313   1.930   1_565 S
O898   Zn1264  1.944   1_455 S
O898   Zn937   1.944   .     S
O898   Zn943   1.944   .     S
O898   Zn947   1.944   .     S
O899   Zn944   1.930   .     S
O900   Zn947   1.931   .     S
O901   Zn1262  1.931   .     S
O902   Zn941   1.930   .     S
O903   Zn301   1.930   1_565 S
O904   Zn1258  1.930   .     S
O905   Zn943   1.930   .     S
O906   Zn933   1.931   .     S
O907   Zn309   1.931   1_565 S
O908   Zn946   1.930   .     S
O909   C73     1.280   1_565 A
O909   Zn940   1.948   .     S
O910   Zn1263  1.930   .     S
O911   Zn312   1.931   1_565 S
O912   Zn945   1.931   .     S
O920   Zn939   1.948   .     S
O930   Zn934   1.948   .     S
O931   Zn948   1.948   .     S
O931   C1024   1.280   .     A
O932   Zn936   1.948   .     S
Zn935  O244    1.944   1_565 S
Zn938  O1203   1.944   .     S
Zn940  O233    1.944   1_565 S
Zn942  O1220   1.930   1_455 S
Zn943  O1211   1.931   1_455 S
Zn946  O1217   1.931   1_455 S
Zn947  O1226   1.930   1_455 S
Zn948  O1214   1.944   .     S
C949   C994    1.398   .     A
C949   O1229   1.385   .     S
C949   C1012   1.408   .     S
C950   C1004   1.399   .     A
C950   O1239   1.386   .     S
C950   C1017   1.406   .     S
C951   C1060   1.407   .     A
C951   C1031   1.451   .     S
C951   C1067   1.407   .     A
C952   C1032   1.450   .     S
C952   C1070   1.406   .     A
C952   C1059   1.406   .     A
C953   C1058   1.406   .     A
C953   C1033   1.450   .     S
C953   C1069   1.406   .     A
C954   C1057   1.407   .     A
C954   C1034   1.451   .     S
C954   C1072   1.407   .     A
C955   C1071   1.407   .     A
C955   C1035   1.451   .     S
C955   C1056   1.407   .     A
C956   C1075   1.407   .     A
C956   C1055   1.407   .     A
C956   C1045   1.451   .     S
C957   C1046   1.451   .     S
C957   C1073   1.407   .     A
C957   C1054   1.407   .     A
C958   C1077   1.406   .     A
C958   C1038   1.450   .     S
C958   C1053   1.406   .     A
C959   C1039   1.450   .     S
C959   C1076   1.406   .     A
C959   C1051   1.406   .     A
C960   C1040   1.451   .     S
C960   C1079   1.407   .     A
C960   C1050   1.407   .     A
C961   C386    1.406   1_565 A
C961   C1005   1.399   .     A
C961   O1240   1.386   .     S
C962   C1078   1.407   .     A
C962   C1049   1.407   .     A
C962   C1042   1.451   .     S
C963   C1048   1.406   .     A
C963   C1043   1.450   .     S
C963   C1081   1.406   .     A
C964   C1044   1.450   .     S
C964   C1080   1.406   .     A
C964   C1047   1.406   .     A
C965   C1028   1.470   .     S
C965   C994    1.414   .     S
C966   C1027   1.480   .     S
C966   C995    1.419   .     S
C967   C1026   1.480   .     S
C967   C1001   1.419   .     S
C968   C1002   1.414   .     S
C968   C1025   1.470   .     S
C969   C1024   1.470   .     S
C969   C1007   1.414   .     S
C970   C1004   1.419   .     A
C970   C1023   1.480   .     S
C971   C1010   1.419   .     S
C971   C1022   1.480   .     S
C972   C1006   1.398   .     A
C972   O1241   1.385   .     S
C972   C1020   1.408   .     S
C973   C1021   1.470   .     S
C973   C1006   1.414   .     S
C974   H1144   1.115   .     S
C974   O1229   1.410   .     S
C974   H1155   1.109   .     S
C974   H1133   1.110   1_554 S
C975   H1177   1.109   .     S
C975   O1230   1.410   .     S
C975   H1176   1.115   .     S
C975   H1166   1.110   1_556 S
C976   O1231   1.410   .     S
C976   H1179   1.115   .     S
C976   H1180   1.109   .     S
C976   H1178   1.110   1_554 S
C977   H1136   1.109   .     S
C977   O1232   1.410   .     S
C977   H1135   1.115   .     S
C977   H1134   1.110   1_556 S
C978   O1233   1.410   .     S
C978   H1138   1.115   .     S
C978   H1139   1.109   .     S
C978   H1137   1.110   1_554 S
C979   O1234   1.410   .     S
C979   H1141   1.115   .     S
C979   H1142   1.109   .     S
C979   H1140   1.110   1_556 S
C980   O1235   1.410   .     S
C980   H1145   1.115   .     S
C980   H1146   1.109   .     S
C980   H1143   1.110   1_554 S
C981   H1148   1.115   .     S
C981   O1237   1.410   .     S
C981   H1149   1.109   .     S
C981   H1147   1.110   1_556 S
C982   H1152   1.109   .     S
C982   H1150   1.110   .     S
C982   H1151   1.115   .     S
C982   O1238   1.410   .     S
C983   C1007   1.398   .     A
C983   O1242   1.385   .     S
C983   C1016   1.408   .     S
C984   H1154   1.115   .     S
C984   H1156   1.109   .     S
C984   O1239   1.410   .     S
C984   H1153   1.110   .     S
C985   H1159   1.109   .     S
C985   O1240   1.410   .     S
C985   H1157   1.110   .     S
C985   H1158   1.115   .     S
C986   O1241   1.410   .     S
C986   H1162   1.109   .     S
C986   H1160   1.110   .     S
C986   H1161   1.115   .     S
C987   O1242   1.410   .     S
C987   H1163   1.110   .     S
C987   H1165   1.109   .     S
C987   H1164   1.115   .     S
C988   H1168   1.115   .     S
C988   H1169   1.109   .     S
C988   H1167   1.110   .     S
C988   O1243   1.410   .     S
C989   H1170   1.110   .     S
C989   H1172   1.109   .     S
C989   H1171   1.115   .     S
C989   O1244   1.410   .     S
C990   O1245   1.410   .     S
C990   H1174   1.115   .     S
C990   H1175   1.109   .     S
C990   H1173   1.110   .     S
C991   O1243   1.386   .     S
C991   C1009   1.399   .     A
C991   C701    1.406   1_655 A
C992   O1244   1.386   .     S
C992   C1010   1.399   .     A
C992   C1018   1.406   .     S
C993   O1245   1.385   .     S
C993   C1011   1.398   .     A
C993   C388    1.408   1_565 A
C994   Cl1111  1.770   .     S
C995   Cl1112  1.770   .     S
C995   C997    1.399   .     A
C996   Cl1113  1.770   .     S
C996   C1008   1.399   .     A
C996   C651    1.419   1_655 A
C997   O1230   1.386   .     S
C997   C1013   1.406   .     S
C998   Cl1114  1.770   .     S
C998   C1019   1.398   .     A
C998   C652    1.414   1_655 A
C999   Cl1115  1.770   .     S
C999   C1030   1.398   .     A
C999   C333    1.414   1_565 A
C1000  C1041   1.399   .     A
C1000  C334    1.419   1_565 A
C1000  Cl1116  1.770   .     S
C1001  C1052   1.399   .     A
C1001  Cl1117  1.770   .     S
C1002  C1063   1.398   .     A
C1002  Cl1119  1.770   .     S
C1003  C653    1.414   1_655 A
C1003  C1074   1.398   .     A
C1003  Cl1120  1.770   .     S
C1004  Cl1121  1.770   .     S
C1005  C339    1.419   1_565 A
C1005  Cl1122  1.770   .     S
C1006  Cl1123  1.770   .     S
C1007  Cl1124  1.770   .     S
C1008  O1231   1.386   .     S
C1008  C698    1.406   1_655 A
C1009  Cl1125  1.770   .     S
C1009  C654    1.419   1_655 S
C1010  Cl1126  1.770   .     S
C1011  Cl1127  1.770   .     S
C1011  C341    1.414   1_565 A
C1012  C1013   1.469   1_554 S
C1013  C1012   1.469   1_556 S
C1014  C1015   1.469   1_554 S
C1014  C1052   1.406   .     S
C1015  C1014   1.469   1_556 S
C1015  C1063   1.408   .     S
C1016  C1017   1.469   .     S
C1018  C1020   1.469   .     S
C1019  O1232   1.385   .     S
C1019  C699    1.408   1_655 A
C1021  O1248   1.280   .     S
C1022  O1236   1.283   .     A
C1023  O1246   1.283   .     A
C1024  O1184   1.280   .     S
C1025  O1185   1.280   .     S
C1025  O1189   1.280   .     S
C1026  O1186   1.283   .     S
C1026  O1190   1.283   .     S
C1027  O1187   1.283   .     S
C1027  O1191   1.283   .     S
C1028  O1188   1.280   .     A
C1028  O1193   1.280   .     A
C1029  C1084   1.451   .     S
C1029  O1222   1.277   .     A
C1029  O1194   1.277   .     A
C1030  O1233   1.385   .     S
C1030  C380    1.408   1_565 A
C1031  O1195   1.277   .     A
C1031  O1223   1.277   .     A
C1032  O1196   1.277   .     A
C1032  O1220   1.277   .     A
C1033  O1197   1.277   .     A
C1033  O1221   1.277   .     A
C1034  O1227   1.277   .     A
C1034  O1198   1.277   .     A
C1035  O1228   1.277   .     A
C1035  O1199   1.277   .     A
C1036  O1200   1.277   .     A
C1036  C1082   1.450   .     S
C1036  O1224   1.277   .     A
C1037  C1083   1.450   .     S
C1037  O1201   1.277   .     A
C1037  O1226   1.277   .     A
C1038  O1202   1.277   .     A
C1038  O1213   1.277   .     A
C1039  O1215   1.277   .     A
C1039  O1204   1.277   .     A
C1040  O1205   1.277   .     A
C1040  O1211   1.277   .     A
C1041  O1234   1.386   .     S
C1041  C381    1.406   1_565 A
C1042  O1212   1.277   .     A
C1042  O1206   1.277   .     A
C1043  O1218   1.277   .     A
C1043  O1207   1.277   .     A
C1044  O1219   1.277   .     A
C1044  O1208   1.277   .     A
C1045  O1209   1.277   .     A
C1045  O1216   1.277   .     A
C1046  O1217   1.277   .     A
C1046  O1210   1.277   .     A
C1047  C1064   1.396   .     A
C1047  Cl1085  1.771   .     S
C1048  C1062   1.396   .     A
C1048  Cl1096  1.770   .     S
C1049  C1061   1.396   .     A
C1049  Cl1107  1.771   .     S
C1050  Cl1118  1.771   .     S
C1050  C1060   1.396   .     A
C1051  C1059   1.396   .     A
C1051  Cl1128  1.771   .     S
C1052  O1235   1.386   .     S
C1053  C1058   1.396   .     A
C1053  Cl1129  1.770   .     S
C1054  C1057   1.396   .     A
C1054  Cl1130  1.771   .     S
C1055  C1056   1.396   .     A
C1055  Cl1131  1.771   .     S
C1056  Cl1132  1.771   .     S
C1057  Cl1086  1.771   .     S
C1058  Cl1087  1.771   .     S
C1059  Cl1088  1.770   .     S
C1060  Cl1089  1.771   .     S
C1061  Cl1090  1.771   .     S
C1061  C1084   1.407   .     A
C1062  Cl1091  1.771   .     S
C1062  C1083   1.406   .     A
C1063  O1237   1.385   .     S
C1064  Cl1092  1.770   .     S
C1064  C1082   1.406   .     A
C1065  C1081   1.396   .     A
C1065  C1083   1.406   .     A
C1065  Cl1093  1.771   .     S
C1066  C1082   1.406   .     A
C1066  C1080   1.396   .     A
C1066  Cl1094  1.770   .     S
C1067  C1079   1.396   .     A
C1067  Cl1095  1.771   .     S
C1068  Cl1097  1.771   .     S
C1068  C1084   1.407   .     A
C1068  C1078   1.396   .     A
C1069  C1077   1.396   .     A
C1069  Cl1098  1.771   .     S
C1070  C1076   1.396   .     A
C1070  Cl1099  1.770   .     S
C1071  Cl1100  1.771   .     S
C1071  C1075   1.396   .     A
C1072  Cl1101  1.771   .     S
C1072  C1073   1.396   .     A
C1073  Cl1102  1.771   .     S
C1074  O1238   1.385   .     S
C1074  C700    1.408   1_655 A
C1075  Cl1103  1.771   .     S
C1076  Cl1104  1.771   .     S
C1077  Cl1105  1.770   .     S
C1078  Cl1106  1.771   .     S
C1079  Cl1108  1.771   .     S
C1080  Cl1109  1.771   .     S
C1081  Cl1110  1.770   .     S
H1133  C974    1.110   1_556 S
H1134  C977    1.110   1_554 S
H1137  C978    1.110   1_556 S
H1140  C979    1.110   1_554 S
H1143  C980    1.110   1_556 S
H1147  C981    1.110   1_554 S
H1166  C975    1.110   1_554 S
H1178  C976    1.110   1_556 S
O1181  Zn1260  1.944   .     S
O1181  Zn1249  1.944   .     S
O1181  Zn1252  1.944   .     S
O1182  Zn1251  1.948   .     S
O1182  C390    1.283   1_565 S
O1183  Zn1254  1.948   .     S
O1183  C707    1.283   1_655 S
O1184  Zn1253  1.948   .     S
O1185  Zn1263  1.948   .     S
O1186  Zn1262  1.948   .     S
O1187  Zn1257  1.948   .     S
O1188  Zn1249  1.948   .     S
O1189  Zn1259  1.948   .     S
O1190  Zn1258  1.948   .     S
O1191  Zn1261  1.948   .     S
O1192  Zn1261  1.944   .     S
O1192  Zn1255  1.944   .     S
O1192  Zn1257  1.944   .     S
O1193  Zn1260  1.948   .     S
O1194  Zn1252  1.931   .     S
O1195  Zn1251  1.931   .     S
O1196  Zn1254  1.930   .     S
O1197  Zn1253  1.930   .     S
O1198  Zn1256  1.931   .     S
O1199  Zn1255  1.931   .     S
O1200  Zn1250  1.930   .     S
O1201  Zn1264  1.930   .     S
O1202  Zn1251  1.930   .     S
O1203  Zn1258  1.944   .     S
O1203  Zn1262  1.944   .     S
O1203  Zn1250  1.944   .     S
O1204  Zn1252  1.930   .     S
O1205  Zn1264  1.931   .     S
O1206  Zn1250  1.931   .     S
O1207  Zn1255  1.930   .     S
O1208  Zn1256  1.930   .     S
O1209  Zn1253  1.931   .     S
O1210  Zn1254  1.931   .     S
O1211  Zn943   1.931   1_655 S
O1212  Zn1258  1.931   .     S
O1213  Zn629   1.930   1_565 S
O1214  Zn1253  1.944   .     S
O1214  Zn1259  1.944   .     S
O1214  Zn1263  1.944   .     S
O1215  Zn1260  1.930   .     S
O1216  Zn1263  1.931   .     S
O1217  Zn946   1.931   1_655 S
O1218  Zn1257  1.930   .     S
O1219  Zn617   1.930   1_565 S
O1220  Zn942   1.930   1_655 S
O1221  Zn1259  1.930   .     S
O1222  Zn1249  1.931   .     S
O1223  Zn625   1.931   1_565 S
O1224  Zn1262  1.930   .     S
O1225  C389    1.280   1_565 A
O1225  Zn1256  1.948   .     S
O1226  Zn947   1.930   1_655 S
O1227  Zn628   1.931   1_565 S
O1228  Zn1261  1.931   .     S
O1236  Zn1255  1.948   .     S
O1246  Zn1250  1.948   .     S
O1247  Zn1264  1.948   .     S
O1247  C708    1.280   1_655 A
O1248  Zn1252  1.948   .     S
Zn1251 O560    1.944   1_565 S
Zn1254 O887    1.944   1_655 S
Zn1256 O549    1.944   1_565 S
Zn1264 O898    1.944   1_655 S
