data_str_m2_o1_o18_pcu_sym.177
_audit_creation_date              2020-01-03
_audit_creation_method            'Materials Studio'
_symmetry_space_group_name_H-M    'P1'
_symmetry_Int_Tables_number       1
_symmetry_cell_setting            triclinic
loop_
_symmetry_equiv_pos_as_xyz
  x,y,z
_cell_length_a                    28.6983
_cell_length_b                    32.3725
_cell_length_c                    30.5750
_cell_angle_alpha                 88.3610
_cell_angle_beta                  74.7631
_cell_angle_gamma                 89.1347
loop_
_atom_site_label
_atom_site_type_symbol
_atom_site_fract_x
_atom_site_fract_y
_atom_site_fract_z
_atom_site_U_iso_or_equiv
_atom_site_adp_type
_atom_site_occupancy
C1     C     0.33318   0.08745   0.25149   0.00000  Uiso   1.00
C2     C     0.00015   0.24588   0.24851   0.00000  Uiso   1.00
C3     C     0.18379   0.21411   0.03897   0.00000  Uiso   1.00
C4     C     0.13587   0.17634   0.44663   0.00000  Uiso   1.00
C5     C     0.23205   0.22027   0.01628   0.00000  Uiso   1.00
C6     C     0.08782   0.16940   0.46979   0.00000  Uiso   1.00
C7     C     0.29385   0.02005   0.27954   0.00000  Uiso   1.00
C8     C     0.03949   0.31326   0.22047   0.00000  Uiso   1.00
C9     C     0.29394   0.31082   0.27571   0.00000  Uiso   1.00
C10    C     0.03941   0.02249   0.22432   0.00000  Uiso   1.00
C11    C     0.33327   0.29057   0.24723   0.00000  Uiso   1.00
C12    C     0.00007   0.04275   0.25278   0.00000  Uiso   1.00
C13    C     0.18585   0.13715   0.27366   0.00000  Uiso   1.00
C14    C     0.14745   0.19619   0.22636   0.00000  Uiso   1.00
C15    C     0.13649   0.13705   0.27426   0.00000  Uiso   1.00
C16    C     0.19677   0.19637   0.22587   0.00000  Uiso   1.00
C17    C     0.30627   0.16761   0.33642   0.00000  Uiso   1.00
C18    C     0.02727   0.16657   0.16330   0.00000  Uiso   1.00
C19    C     0.29139   0.17463   0.38582   0.00000  Uiso   1.00
C20    C     0.04235   0.16759   0.11266   0.00000  Uiso   1.00
C21    C     0.30003   0.21155   0.45126   0.00000  Uiso   1.00
C22    C     0.02440   0.16287   0.03937   0.00000  Uiso   1.00
C23    C     0.32006   0.19769   0.40757   0.00000  Uiso   1.00
C24    C     0.00840   0.16454   0.08647   0.00000  Uiso   1.00
C25    C     0.24420   0.16358   0.41005   0.00000  Uiso   1.00
C26    C     0.09210   0.17041   0.08967   0.00000  Uiso   1.00
C27    C     0.22163   0.18352   0.45116   0.00000  Uiso   1.00
C28    C     0.10642   0.17778   0.04203   0.00000  Uiso   1.00
C29    C     0.25138   0.20479   0.47313   0.00000  Uiso   1.00
C30    C     0.07289   0.16962   0.01700   0.00000  Uiso   1.00
C31    C     0.17082   0.18261   0.47147   0.00000  Uiso   1.00
C32    C     0.15374   0.19090   0.01839   0.00000  Uiso   1.00
Cu33   Cu    0.04689   0.16667   0.25000   0.00000  Uiso   1.00
Cu34   Cu    0.28645   0.16666   0.25000   0.00000  Uiso   1.00
H35    H     0.19979   0.11374   0.29293   0.00000  Uiso   1.00
H36    H     0.13350   0.21961   0.20712   0.00000  Uiso   1.00
N37    N     0.11736   0.16668   0.24999   0.00000  Uiso   1.00
N38    N     0.21597   0.16666   0.25001   0.00000  Uiso   1.00
O39    O     0.03958   0.10655   0.25000   0.00000  Uiso   1.00
O40    O     0.29375   0.22678   0.25000   0.00000  Uiso   1.00
O41    O     0.29372   0.10654   0.25000   0.00000  Uiso   1.00
O42    O     0.03961   0.22679   0.25000   0.00000  Uiso   1.00
O43    O     0.01852   0.16668   0.31492   0.00000  Uiso   1.00
O44    O     0.31481   0.16666   0.18508   0.00000  Uiso   1.00
O45    O     0.27267   0.16667   0.31492   0.00000  Uiso   1.00
O46    O     0.06067   0.16667   0.18508   0.00000  Uiso   1.00
H47    H     0.25445   0.23791   0.03242   0.00000  Uiso   1.00
H48    H     0.06181   0.16412   0.45058   0.00000  Uiso   1.00
O49    O     0.12609   0.16303   0.11378   0.00000  Uiso   1.00
H50    H     0.15526   0.15058   0.09337   0.00000  Uiso   1.00
O51    O     0.22233   0.13194   0.39359   0.00000  Uiso   1.00
H52    H     0.19940   0.11793   0.41952   0.00000  Uiso   1.00
O53    O     0.29299   0.16100   0.10574   0.00000  Uiso   1.00
H54    H     0.28288   0.18684   0.12227   0.00000  Uiso   1.00
O55    O     0.03369   0.20854   0.38686   0.00000  Uiso   1.00
H56    H     0.05096   0.18310   0.37417   0.00000  Uiso   1.00
H57    H     0.32252   0.22872   0.46773   0.00000  Uiso   1.00
H58    H     0.33158   0.15799   0.02013   0.00000  Uiso   1.00
O59    O     0.16660   0.23456   0.07908   0.00000  Uiso   1.00
H60    H     0.13219   0.24172   0.08236   0.00000  Uiso   1.00
O61    O     0.14587   0.18093   0.40010   0.00000  Uiso   1.00
H62    H     0.17249   0.20099   0.38988   0.00000  Uiso   1.00
O63    O     0.25537   0.03779   0.31049   0.00000  Uiso   1.00
H64    H     0.26545   0.06463   0.31958   0.00000  Uiso   1.00
O65    O     0.07795   0.29552   0.18949   0.00000  Uiso   1.00
H66    H     0.06786   0.26870   0.18038   0.00000  Uiso   1.00
H67    H     0.26401   0.29327   0.29668   0.00000  Uiso   1.00
H68    H     0.06935   0.04004   0.20336   0.00000  Uiso   1.00
O69    O     0.10919   0.10611   0.29989   0.00000  Uiso   1.00
H70    H     0.07558   0.11569   0.30940   0.00000  Uiso   1.00
O71    O     0.22389   0.22755   0.20053   0.00000  Uiso   1.00
H72    H     0.25771   0.21854   0.19195   0.00000  Uiso   1.00
C73    C     0.66652   0.08745   0.25149   0.00000  Uiso   1.00
C74    C     0.33348   0.24588   0.24851   0.00000  Uiso   1.00
C75    C     0.51713   0.21411   0.03897   0.00000  Uiso   1.00
C76    C     0.46921   0.17634   0.44663   0.00000  Uiso   1.00
C77    C     0.56539   0.22027   0.01628   0.00000  Uiso   1.00
C78    C     0.42115   0.16940   0.46979   0.00000  Uiso   1.00
C79    C     0.62718   0.02005   0.27954   0.00000  Uiso   1.00
C80    C     0.37282   0.31326   0.22047   0.00000  Uiso   1.00
C81    C     0.62728   0.31082   0.27571   0.00000  Uiso   1.00
C82    C     0.37274   0.02249   0.22432   0.00000  Uiso   1.00
C83    C     0.66660   0.29057   0.24723   0.00000  Uiso   1.00
C84    C     0.33340   0.04275   0.25278   0.00000  Uiso   1.00
C85    C     0.51919   0.13715   0.27366   0.00000  Uiso   1.00
C86    C     0.48079   0.19619   0.22636   0.00000  Uiso   1.00
C87    C     0.46982   0.13705   0.27426   0.00000  Uiso   1.00
C88    C     0.53010   0.19637   0.22587   0.00000  Uiso   1.00
C89    C     0.63960   0.16761   0.33642   0.00000  Uiso   1.00
C90    C     0.36060   0.16657   0.16330   0.00000  Uiso   1.00
C91    C     0.62472   0.17463   0.38582   0.00000  Uiso   1.00
C92    C     0.37568   0.16759   0.11266   0.00000  Uiso   1.00
C93    C     0.63337   0.21155   0.45126   0.00000  Uiso   1.00
C94    C     0.35774   0.16287   0.03937   0.00000  Uiso   1.00
C95    C     0.65340   0.19769   0.40757   0.00000  Uiso   1.00
C96    C     0.34173   0.16454   0.08647   0.00000  Uiso   1.00
C97    C     0.57753   0.16358   0.41005   0.00000  Uiso   1.00
C98    C     0.42544   0.17041   0.08967   0.00000  Uiso   1.00
C99    C     0.55496   0.18352   0.45116   0.00000  Uiso   1.00
C100   C     0.43975   0.17778   0.04203   0.00000  Uiso   1.00
C101   C     0.58471   0.20479   0.47313   0.00000  Uiso   1.00
C102   C     0.40623   0.16962   0.01700   0.00000  Uiso   1.00
C103   C     0.50415   0.18261   0.47147   0.00000  Uiso   1.00
C104   C     0.48707   0.19090   0.01839   0.00000  Uiso   1.00
Cu105  Cu    0.38022   0.16667   0.25000   0.00000  Uiso   1.00
Cu106  Cu    0.61978   0.16666   0.25000   0.00000  Uiso   1.00
H107   H     0.53312   0.11374   0.29293   0.00000  Uiso   1.00
H108   H     0.46684   0.21961   0.20712   0.00000  Uiso   1.00
N109   N     0.45069   0.16668   0.24999   0.00000  Uiso   1.00
N110   N     0.54931   0.16666   0.25001   0.00000  Uiso   1.00
O111   O     0.37291   0.10655   0.25000   0.00000  Uiso   1.00
O112   O     0.62709   0.22678   0.25000   0.00000  Uiso   1.00
O113   O     0.62706   0.10654   0.25000   0.00000  Uiso   1.00
O114   O     0.37294   0.22679   0.25000   0.00000  Uiso   1.00
O115   O     0.35186   0.16668   0.31492   0.00000  Uiso   1.00
O116   O     0.64814   0.16666   0.18508   0.00000  Uiso   1.00
O117   O     0.60600   0.16667   0.31492   0.00000  Uiso   1.00
O118   O     0.39400   0.16667   0.18508   0.00000  Uiso   1.00
H119   H     0.58778   0.23791   0.03242   0.00000  Uiso   1.00
H120   H     0.39515   0.16412   0.45058   0.00000  Uiso   1.00
O121   O     0.45942   0.16303   0.11378   0.00000  Uiso   1.00
H122   H     0.48859   0.15058   0.09337   0.00000  Uiso   1.00
O123   O     0.55567   0.13194   0.39359   0.00000  Uiso   1.00
H124   H     0.53273   0.11793   0.41952   0.00000  Uiso   1.00
O125   O     0.62633   0.16100   0.10574   0.00000  Uiso   1.00
H126   H     0.61622   0.18684   0.12227   0.00000  Uiso   1.00
O127   O     0.36702   0.20854   0.38686   0.00000  Uiso   1.00
H128   H     0.38430   0.18310   0.37417   0.00000  Uiso   1.00
H129   H     0.65585   0.22872   0.46773   0.00000  Uiso   1.00
H130   H     0.66491   0.15799   0.02013   0.00000  Uiso   1.00
O131   O     0.49994   0.23456   0.07908   0.00000  Uiso   1.00
H132   H     0.46553   0.24172   0.08236   0.00000  Uiso   1.00
O133   O     0.47920   0.18093   0.40010   0.00000  Uiso   1.00
H134   H     0.50583   0.20099   0.38988   0.00000  Uiso   1.00
O135   O     0.58870   0.03779   0.31049   0.00000  Uiso   1.00
H136   H     0.59878   0.06463   0.31958   0.00000  Uiso   1.00
O137   O     0.41128   0.29552   0.18949   0.00000  Uiso   1.00
H138   H     0.40119   0.26870   0.18038   0.00000  Uiso   1.00
H139   H     0.59734   0.29327   0.29668   0.00000  Uiso   1.00
H140   H     0.40268   0.04004   0.20336   0.00000  Uiso   1.00
O141   O     0.44252   0.10611   0.29989   0.00000  Uiso   1.00
H142   H     0.40892   0.11569   0.30940   0.00000  Uiso   1.00
O143   O     0.55722   0.22755   0.20053   0.00000  Uiso   1.00
H144   H     0.59104   0.21854   0.19195   0.00000  Uiso   1.00
C145   C     0.99985   0.08745   0.25149   0.00000  Uiso   1.00
C146   C     0.66682   0.24588   0.24851   0.00000  Uiso   1.00
C147   C     0.85046   0.21411   0.03897   0.00000  Uiso   1.00
C148   C     0.80254   0.17634   0.44663   0.00000  Uiso   1.00
C149   C     0.89872   0.22027   0.01628   0.00000  Uiso   1.00
C150   C     0.75448   0.16940   0.46979   0.00000  Uiso   1.00
C151   C     0.96052   0.02005   0.27954   0.00000  Uiso   1.00
C152   C     0.70616   0.31326   0.22047   0.00000  Uiso   1.00
C153   C     0.96061   0.31082   0.27571   0.00000  Uiso   1.00
C154   C     0.70607   0.02249   0.22432   0.00000  Uiso   1.00
C155   C     0.99994   0.29057   0.24723   0.00000  Uiso   1.00
C156   C     0.66674   0.04275   0.25278   0.00000  Uiso   1.00
C157   C     0.85252   0.13715   0.27366   0.00000  Uiso   1.00
C158   C     0.81412   0.19619   0.22636   0.00000  Uiso   1.00
C159   C     0.80316   0.13705   0.27426   0.00000  Uiso   1.00
C160   C     0.86343   0.19637   0.22587   0.00000  Uiso   1.00
C161   C     0.97294   0.16761   0.33642   0.00000  Uiso   1.00
C162   C     0.69394   0.16657   0.16330   0.00000  Uiso   1.00
C163   C     0.95805   0.17463   0.38582   0.00000  Uiso   1.00
C164   C     0.70901   0.16759   0.11266   0.00000  Uiso   1.00
C165   C     0.96670   0.21155   0.45126   0.00000  Uiso   1.00
C166   C     0.69107   0.16287   0.03937   0.00000  Uiso   1.00
C167   C     0.98673   0.19769   0.40757   0.00000  Uiso   1.00
C168   C     0.67507   0.16454   0.08647   0.00000  Uiso   1.00
C169   C     0.91087   0.16358   0.41005   0.00000  Uiso   1.00
C170   C     0.75877   0.17041   0.08967   0.00000  Uiso   1.00
C171   C     0.88829   0.18352   0.45116   0.00000  Uiso   1.00
C172   C     0.77309   0.17778   0.04203   0.00000  Uiso   1.00
C173   C     0.91804   0.20479   0.47313   0.00000  Uiso   1.00
C174   C     0.73956   0.16962   0.01700   0.00000  Uiso   1.00
C175   C     0.83748   0.18261   0.47147   0.00000  Uiso   1.00
C176   C     0.82040   0.19090   0.01839   0.00000  Uiso   1.00
Cu177  Cu    0.71355   0.16667   0.25000   0.00000  Uiso   1.00
Cu178  Cu    0.95311   0.16666   0.25000   0.00000  Uiso   1.00
H179   H     0.86645   0.11374   0.29293   0.00000  Uiso   1.00
H180   H     0.80017   0.21961   0.20712   0.00000  Uiso   1.00
N181   N     0.78403   0.16668   0.24999   0.00000  Uiso   1.00
N182   N     0.88264   0.16666   0.25001   0.00000  Uiso   1.00
O183   O     0.70625   0.10655   0.25000   0.00000  Uiso   1.00
O184   O     0.96042   0.22678   0.25000   0.00000  Uiso   1.00
O185   O     0.96039   0.10654   0.25000   0.00000  Uiso   1.00
O186   O     0.70628   0.22679   0.25000   0.00000  Uiso   1.00
O187   O     0.68519   0.16668   0.31492   0.00000  Uiso   1.00
O188   O     0.98148   0.16666   0.18508   0.00000  Uiso   1.00
O189   O     0.93933   0.16667   0.31492   0.00000  Uiso   1.00
O190   O     0.72733   0.16667   0.18508   0.00000  Uiso   1.00
H191   H     0.92112   0.23791   0.03242   0.00000  Uiso   1.00
H192   H     0.72848   0.16412   0.45058   0.00000  Uiso   1.00
O193   O     0.79275   0.16303   0.11378   0.00000  Uiso   1.00
H194   H     0.82193   0.15058   0.09337   0.00000  Uiso   1.00
O195   O     0.88900   0.13194   0.39359   0.00000  Uiso   1.00
H196   H     0.86606   0.11793   0.41952   0.00000  Uiso   1.00
O197   O     0.95966   0.16100   0.10574   0.00000  Uiso   1.00
H198   H     0.94955   0.18684   0.12227   0.00000  Uiso   1.00
O199   O     0.70035   0.20854   0.38686   0.00000  Uiso   1.00
H200   H     0.71763   0.18310   0.37417   0.00000  Uiso   1.00
H201   H     0.98919   0.22872   0.46773   0.00000  Uiso   1.00
H202   H     0.99825   0.15799   0.02013   0.00000  Uiso   1.00
O203   O     0.83327   0.23456   0.07908   0.00000  Uiso   1.00
H204   H     0.79886   0.24172   0.08236   0.00000  Uiso   1.00
O205   O     0.81254   0.18093   0.40010   0.00000  Uiso   1.00
H206   H     0.83916   0.20099   0.38988   0.00000  Uiso   1.00
O207   O     0.92204   0.03779   0.31049   0.00000  Uiso   1.00
H208   H     0.93211   0.06463   0.31958   0.00000  Uiso   1.00
O209   O     0.74462   0.29552   0.18949   0.00000  Uiso   1.00
H210   H     0.73453   0.26870   0.18038   0.00000  Uiso   1.00
H211   H     0.93067   0.29327   0.29668   0.00000  Uiso   1.00
H212   H     0.73602   0.04004   0.20336   0.00000  Uiso   1.00
O213   O     0.77585   0.10611   0.29989   0.00000  Uiso   1.00
H214   H     0.74225   0.11569   0.30940   0.00000  Uiso   1.00
O215   O     0.89056   0.22755   0.20053   0.00000  Uiso   1.00
H216   H     0.92437   0.21854   0.19195   0.00000  Uiso   1.00
C217   C     0.33318   0.42079   0.25149   0.00000  Uiso   1.00
C218   C     0.00015   0.57921   0.24851   0.00000  Uiso   1.00
C219   C     0.18379   0.54744   0.03897   0.00000  Uiso   1.00
C220   C     0.13587   0.50967   0.44663   0.00000  Uiso   1.00
C221   C     0.23205   0.55361   0.01628   0.00000  Uiso   1.00
C222   C     0.08782   0.50273   0.46979   0.00000  Uiso   1.00
C223   C     0.29385   0.35339   0.27954   0.00000  Uiso   1.00
C224   C     0.03949   0.64659   0.22047   0.00000  Uiso   1.00
C225   C     0.29394   0.64415   0.27571   0.00000  Uiso   1.00
C226   C     0.03941   0.35583   0.22432   0.00000  Uiso   1.00
C227   C     0.33327   0.62390   0.24723   0.00000  Uiso   1.00
C228   C     0.00007   0.37609   0.25278   0.00000  Uiso   1.00
C229   C     0.18585   0.47048   0.27366   0.00000  Uiso   1.00
C230   C     0.14745   0.52952   0.22636   0.00000  Uiso   1.00
C231   C     0.13649   0.47038   0.27426   0.00000  Uiso   1.00
C232   C     0.19677   0.52970   0.22587   0.00000  Uiso   1.00
C233   C     0.30627   0.50095   0.33642   0.00000  Uiso   1.00
C234   C     0.02727   0.49990   0.16330   0.00000  Uiso   1.00
C235   C     0.29139   0.50796   0.38582   0.00000  Uiso   1.00
C236   C     0.04235   0.50092   0.11266   0.00000  Uiso   1.00
C237   C     0.30003   0.54488   0.45126   0.00000  Uiso   1.00
C238   C     0.02440   0.49620   0.03937   0.00000  Uiso   1.00
C239   C     0.32006   0.53102   0.40757   0.00000  Uiso   1.00
C240   C     0.00840   0.49788   0.08647   0.00000  Uiso   1.00
C241   C     0.24420   0.49691   0.41005   0.00000  Uiso   1.00
C242   C     0.09210   0.50375   0.08967   0.00000  Uiso   1.00
C243   C     0.22163   0.51685   0.45116   0.00000  Uiso   1.00
C244   C     0.10642   0.51111   0.04203   0.00000  Uiso   1.00
C245   C     0.25138   0.53812   0.47313   0.00000  Uiso   1.00
C246   C     0.07289   0.50296   0.01700   0.00000  Uiso   1.00
C247   C     0.17082   0.51594   0.47147   0.00000  Uiso   1.00
C248   C     0.15374   0.52424   0.01839   0.00000  Uiso   1.00
Cu249  Cu    0.04689   0.50001   0.25000   0.00000  Uiso   1.00
Cu250  Cu    0.28645   0.49999   0.25000   0.00000  Uiso   1.00
H251   H     0.19979   0.44707   0.29293   0.00000  Uiso   1.00
H252   H     0.13350   0.55295   0.20712   0.00000  Uiso   1.00
N253   N     0.11736   0.50001   0.24999   0.00000  Uiso   1.00
N254   N     0.21597   0.49999   0.25001   0.00000  Uiso   1.00
O255   O     0.03958   0.43989   0.25000   0.00000  Uiso   1.00
O256   O     0.29375   0.56011   0.25000   0.00000  Uiso   1.00
O257   O     0.29372   0.43988   0.25000   0.00000  Uiso   1.00
O258   O     0.03961   0.56012   0.25000   0.00000  Uiso   1.00
O259   O     0.01852   0.50001   0.31492   0.00000  Uiso   1.00
O260   O     0.31481   0.49999   0.18508   0.00000  Uiso   1.00
O261   O     0.27267   0.50000   0.31492   0.00000  Uiso   1.00
O262   O     0.06067   0.50000   0.18508   0.00000  Uiso   1.00
H263   H     0.25445   0.57124   0.03242   0.00000  Uiso   1.00
H264   H     0.06181   0.49746   0.45058   0.00000  Uiso   1.00
O265   O     0.12609   0.49636   0.11378   0.00000  Uiso   1.00
H266   H     0.15526   0.48391   0.09337   0.00000  Uiso   1.00
O267   O     0.22233   0.46528   0.39359   0.00000  Uiso   1.00
H268   H     0.19940   0.45127   0.41952   0.00000  Uiso   1.00
O269   O     0.29299   0.49433   0.10574   0.00000  Uiso   1.00
H270   H     0.28288   0.52018   0.12227   0.00000  Uiso   1.00
O271   O     0.03369   0.54187   0.38686   0.00000  Uiso   1.00
H272   H     0.05096   0.51643   0.37417   0.00000  Uiso   1.00
H273   H     0.32252   0.56205   0.46773   0.00000  Uiso   1.00
H274   H     0.33158   0.49133   0.02013   0.00000  Uiso   1.00
O275   O     0.16660   0.56790   0.07908   0.00000  Uiso   1.00
H276   H     0.13219   0.57505   0.08236   0.00000  Uiso   1.00
O277   O     0.14587   0.51426   0.40010   0.00000  Uiso   1.00
H278   H     0.17249   0.53433   0.38988   0.00000  Uiso   1.00
O279   O     0.25537   0.37112   0.31049   0.00000  Uiso   1.00
H280   H     0.26545   0.39796   0.31958   0.00000  Uiso   1.00
O281   O     0.07795   0.62886   0.18949   0.00000  Uiso   1.00
H282   H     0.06786   0.60203   0.18038   0.00000  Uiso   1.00
H283   H     0.26401   0.62661   0.29668   0.00000  Uiso   1.00
H284   H     0.06935   0.37337   0.20336   0.00000  Uiso   1.00
O285   O     0.10919   0.43944   0.29989   0.00000  Uiso   1.00
H286   H     0.07558   0.44903   0.30940   0.00000  Uiso   1.00
O287   O     0.22389   0.56088   0.20053   0.00000  Uiso   1.00
H288   H     0.25771   0.55187   0.19195   0.00000  Uiso   1.00
C289   C     0.66652   0.42079   0.25149   0.00000  Uiso   1.00
C290   C     0.33348   0.57921   0.24851   0.00000  Uiso   1.00
C291   C     0.51713   0.54744   0.03897   0.00000  Uiso   1.00
C292   C     0.46921   0.50967   0.44663   0.00000  Uiso   1.00
C293   C     0.56539   0.55361   0.01628   0.00000  Uiso   1.00
C294   C     0.42115   0.50273   0.46979   0.00000  Uiso   1.00
C295   C     0.62718   0.35339   0.27954   0.00000  Uiso   1.00
C296   C     0.37282   0.64659   0.22047   0.00000  Uiso   1.00
C297   C     0.62728   0.64415   0.27571   0.00000  Uiso   1.00
C298   C     0.37274   0.35583   0.22432   0.00000  Uiso   1.00
C299   C     0.66660   0.62390   0.24723   0.00000  Uiso   1.00
C300   C     0.33340   0.37609   0.25278   0.00000  Uiso   1.00
C301   C     0.51919   0.47048   0.27366   0.00000  Uiso   1.00
C302   C     0.48079   0.52952   0.22636   0.00000  Uiso   1.00
C303   C     0.46982   0.47038   0.27426   0.00000  Uiso   1.00
C304   C     0.53010   0.52970   0.22587   0.00000  Uiso   1.00
C305   C     0.63960   0.50095   0.33642   0.00000  Uiso   1.00
C306   C     0.36060   0.49990   0.16330   0.00000  Uiso   1.00
C307   C     0.62472   0.50796   0.38582   0.00000  Uiso   1.00
C308   C     0.37568   0.50092   0.11266   0.00000  Uiso   1.00
C309   C     0.63337   0.54488   0.45126   0.00000  Uiso   1.00
C310   C     0.35774   0.49620   0.03937   0.00000  Uiso   1.00
C311   C     0.65340   0.53102   0.40757   0.00000  Uiso   1.00
C312   C     0.34173   0.49788   0.08647   0.00000  Uiso   1.00
C313   C     0.57753   0.49691   0.41005   0.00000  Uiso   1.00
C314   C     0.42544   0.50375   0.08967   0.00000  Uiso   1.00
C315   C     0.55496   0.51685   0.45116   0.00000  Uiso   1.00
C316   C     0.43975   0.51111   0.04203   0.00000  Uiso   1.00
C317   C     0.58471   0.53812   0.47313   0.00000  Uiso   1.00
C318   C     0.40623   0.50296   0.01700   0.00000  Uiso   1.00
C319   C     0.50415   0.51594   0.47147   0.00000  Uiso   1.00
C320   C     0.48707   0.52424   0.01839   0.00000  Uiso   1.00
Cu321  Cu    0.38022   0.50001   0.25000   0.00000  Uiso   1.00
Cu322  Cu    0.61978   0.49999   0.25000   0.00000  Uiso   1.00
H323   H     0.53312   0.44707   0.29293   0.00000  Uiso   1.00
H324   H     0.46684   0.55295   0.20712   0.00000  Uiso   1.00
N325   N     0.45069   0.50001   0.24999   0.00000  Uiso   1.00
N326   N     0.54931   0.49999   0.25001   0.00000  Uiso   1.00
O327   O     0.37291   0.43989   0.25000   0.00000  Uiso   1.00
O328   O     0.62709   0.56011   0.25000   0.00000  Uiso   1.00
O329   O     0.62706   0.43988   0.25000   0.00000  Uiso   1.00
O330   O     0.37294   0.56012   0.25000   0.00000  Uiso   1.00
O331   O     0.35186   0.50001   0.31492   0.00000  Uiso   1.00
O332   O     0.64814   0.49999   0.18508   0.00000  Uiso   1.00
O333   O     0.60600   0.50000   0.31492   0.00000  Uiso   1.00
O334   O     0.39400   0.50000   0.18508   0.00000  Uiso   1.00
H335   H     0.58778   0.57124   0.03242   0.00000  Uiso   1.00
H336   H     0.39515   0.49746   0.45058   0.00000  Uiso   1.00
O337   O     0.45942   0.49636   0.11378   0.00000  Uiso   1.00
H338   H     0.48859   0.48391   0.09337   0.00000  Uiso   1.00
O339   O     0.55567   0.46528   0.39359   0.00000  Uiso   1.00
H340   H     0.53273   0.45127   0.41952   0.00000  Uiso   1.00
O341   O     0.62633   0.49433   0.10574   0.00000  Uiso   1.00
H342   H     0.61622   0.52018   0.12227   0.00000  Uiso   1.00
O343   O     0.36702   0.54187   0.38686   0.00000  Uiso   1.00
H344   H     0.38430   0.51643   0.37417   0.00000  Uiso   1.00
H345   H     0.65585   0.56205   0.46773   0.00000  Uiso   1.00
H346   H     0.66491   0.49133   0.02013   0.00000  Uiso   1.00
O347   O     0.49994   0.56790   0.07908   0.00000  Uiso   1.00
H348   H     0.46553   0.57505   0.08236   0.00000  Uiso   1.00
O349   O     0.47920   0.51426   0.40010   0.00000  Uiso   1.00
H350   H     0.50583   0.53433   0.38988   0.00000  Uiso   1.00
O351   O     0.58870   0.37112   0.31049   0.00000  Uiso   1.00
H352   H     0.59878   0.39796   0.31958   0.00000  Uiso   1.00
O353   O     0.41128   0.62886   0.18949   0.00000  Uiso   1.00
H354   H     0.40119   0.60203   0.18038   0.00000  Uiso   1.00
H355   H     0.59734   0.62661   0.29668   0.00000  Uiso   1.00
H356   H     0.40268   0.37337   0.20336   0.00000  Uiso   1.00
O357   O     0.44252   0.43944   0.29989   0.00000  Uiso   1.00
H358   H     0.40892   0.44903   0.30940   0.00000  Uiso   1.00
O359   O     0.55722   0.56088   0.20053   0.00000  Uiso   1.00
H360   H     0.59104   0.55187   0.19195   0.00000  Uiso   1.00
C361   C     0.99985   0.42079   0.25149   0.00000  Uiso   1.00
C362   C     0.66682   0.57921   0.24851   0.00000  Uiso   1.00
C363   C     0.85046   0.54744   0.03897   0.00000  Uiso   1.00
C364   C     0.80254   0.50967   0.44663   0.00000  Uiso   1.00
C365   C     0.89872   0.55361   0.01628   0.00000  Uiso   1.00
C366   C     0.75448   0.50273   0.46979   0.00000  Uiso   1.00
C367   C     0.96052   0.35339   0.27954   0.00000  Uiso   1.00
C368   C     0.70616   0.64659   0.22047   0.00000  Uiso   1.00
C369   C     0.96061   0.64415   0.27571   0.00000  Uiso   1.00
C370   C     0.70607   0.35583   0.22432   0.00000  Uiso   1.00
C371   C     0.99994   0.62390   0.24723   0.00000  Uiso   1.00
C372   C     0.66674   0.37609   0.25278   0.00000  Uiso   1.00
C373   C     0.85252   0.47048   0.27366   0.00000  Uiso   1.00
C374   C     0.81412   0.52952   0.22636   0.00000  Uiso   1.00
C375   C     0.80316   0.47038   0.27426   0.00000  Uiso   1.00
C376   C     0.86343   0.52970   0.22587   0.00000  Uiso   1.00
C377   C     0.97294   0.50095   0.33642   0.00000  Uiso   1.00
C378   C     0.69394   0.49990   0.16330   0.00000  Uiso   1.00
C379   C     0.95805   0.50796   0.38582   0.00000  Uiso   1.00
C380   C     0.70901   0.50092   0.11266   0.00000  Uiso   1.00
C381   C     0.96670   0.54488   0.45126   0.00000  Uiso   1.00
C382   C     0.69107   0.49620   0.03937   0.00000  Uiso   1.00
C383   C     0.98673   0.53102   0.40757   0.00000  Uiso   1.00
C384   C     0.67507   0.49788   0.08647   0.00000  Uiso   1.00
C385   C     0.91087   0.49691   0.41005   0.00000  Uiso   1.00
C386   C     0.75877   0.50375   0.08967   0.00000  Uiso   1.00
C387   C     0.88829   0.51685   0.45116   0.00000  Uiso   1.00
C388   C     0.77309   0.51111   0.04203   0.00000  Uiso   1.00
C389   C     0.91804   0.53812   0.47313   0.00000  Uiso   1.00
C390   C     0.73956   0.50296   0.01700   0.00000  Uiso   1.00
C391   C     0.83748   0.51594   0.47147   0.00000  Uiso   1.00
C392   C     0.82040   0.52424   0.01839   0.00000  Uiso   1.00
Cu393  Cu    0.71355   0.50001   0.25000   0.00000  Uiso   1.00
Cu394  Cu    0.95311   0.49999   0.25000   0.00000  Uiso   1.00
H395   H     0.86645   0.44707   0.29293   0.00000  Uiso   1.00
H396   H     0.80017   0.55295   0.20712   0.00000  Uiso   1.00
N397   N     0.78403   0.50001   0.24999   0.00000  Uiso   1.00
N398   N     0.88264   0.49999   0.25001   0.00000  Uiso   1.00
O399   O     0.70625   0.43989   0.25000   0.00000  Uiso   1.00
O400   O     0.96042   0.56011   0.25000   0.00000  Uiso   1.00
O401   O     0.96039   0.43988   0.25000   0.00000  Uiso   1.00
O402   O     0.70628   0.56012   0.25000   0.00000  Uiso   1.00
O403   O     0.68519   0.50001   0.31492   0.00000  Uiso   1.00
O404   O     0.98148   0.49999   0.18508   0.00000  Uiso   1.00
O405   O     0.93933   0.50000   0.31492   0.00000  Uiso   1.00
O406   O     0.72733   0.50000   0.18508   0.00000  Uiso   1.00
H407   H     0.92112   0.57124   0.03242   0.00000  Uiso   1.00
H408   H     0.72848   0.49746   0.45058   0.00000  Uiso   1.00
O409   O     0.79275   0.49636   0.11378   0.00000  Uiso   1.00
H410   H     0.82193   0.48391   0.09337   0.00000  Uiso   1.00
O411   O     0.88900   0.46528   0.39359   0.00000  Uiso   1.00
H412   H     0.86606   0.45127   0.41952   0.00000  Uiso   1.00
O413   O     0.95966   0.49433   0.10574   0.00000  Uiso   1.00
H414   H     0.94955   0.52018   0.12227   0.00000  Uiso   1.00
O415   O     0.70035   0.54187   0.38686   0.00000  Uiso   1.00
H416   H     0.71763   0.51643   0.37417   0.00000  Uiso   1.00
H417   H     0.98919   0.56205   0.46773   0.00000  Uiso   1.00
H418   H     0.99825   0.49133   0.02013   0.00000  Uiso   1.00
O419   O     0.83327   0.56790   0.07908   0.00000  Uiso   1.00
H420   H     0.79886   0.57505   0.08236   0.00000  Uiso   1.00
O421   O     0.81254   0.51426   0.40010   0.00000  Uiso   1.00
H422   H     0.83916   0.53433   0.38988   0.00000  Uiso   1.00
O423   O     0.92204   0.37112   0.31049   0.00000  Uiso   1.00
H424   H     0.93211   0.39796   0.31958   0.00000  Uiso   1.00
O425   O     0.74462   0.62886   0.18949   0.00000  Uiso   1.00
H426   H     0.73453   0.60203   0.18038   0.00000  Uiso   1.00
H427   H     0.93067   0.62661   0.29668   0.00000  Uiso   1.00
H428   H     0.73602   0.37337   0.20336   0.00000  Uiso   1.00
O429   O     0.77585   0.43944   0.29989   0.00000  Uiso   1.00
H430   H     0.74225   0.44903   0.30940   0.00000  Uiso   1.00
O431   O     0.89056   0.56088   0.20053   0.00000  Uiso   1.00
H432   H     0.92437   0.55187   0.19195   0.00000  Uiso   1.00
C433   C     0.33318   0.75412   0.25149   0.00000  Uiso   1.00
C434   C     0.00015   0.91254   0.24851   0.00000  Uiso   1.00
C435   C     0.18379   0.88077   0.03897   0.00000  Uiso   1.00
C436   C     0.13587   0.84301   0.44663   0.00000  Uiso   1.00
C437   C     0.23205   0.88694   0.01628   0.00000  Uiso   1.00
C438   C     0.08782   0.83606   0.46979   0.00000  Uiso   1.00
C439   C     0.29385   0.68672   0.27954   0.00000  Uiso   1.00
C440   C     0.03949   0.97993   0.22047   0.00000  Uiso   1.00
C441   C     0.29394   0.97749   0.27571   0.00000  Uiso   1.00
C442   C     0.03941   0.68916   0.22432   0.00000  Uiso   1.00
C443   C     0.33327   0.95723   0.24723   0.00000  Uiso   1.00
C444   C     0.00007   0.70942   0.25278   0.00000  Uiso   1.00
C445   C     0.18585   0.80382   0.27366   0.00000  Uiso   1.00
C446   C     0.14745   0.86285   0.22636   0.00000  Uiso   1.00
C447   C     0.13649   0.80372   0.27426   0.00000  Uiso   1.00
C448   C     0.19677   0.86304   0.22587   0.00000  Uiso   1.00
C449   C     0.30627   0.83428   0.33642   0.00000  Uiso   1.00
C450   C     0.02727   0.83324   0.16330   0.00000  Uiso   1.00
C451   C     0.29139   0.84130   0.38582   0.00000  Uiso   1.00
C452   C     0.04235   0.83426   0.11266   0.00000  Uiso   1.00
C453   C     0.30003   0.87822   0.45126   0.00000  Uiso   1.00
C454   C     0.02440   0.82954   0.03937   0.00000  Uiso   1.00
C455   C     0.32006   0.86436   0.40757   0.00000  Uiso   1.00
C456   C     0.00840   0.83121   0.08647   0.00000  Uiso   1.00
C457   C     0.24420   0.83025   0.41005   0.00000  Uiso   1.00
C458   C     0.09210   0.83708   0.08967   0.00000  Uiso   1.00
C459   C     0.22163   0.85018   0.45116   0.00000  Uiso   1.00
C460   C     0.10642   0.84444   0.04203   0.00000  Uiso   1.00
C461   C     0.25138   0.87146   0.47313   0.00000  Uiso   1.00
C462   C     0.07289   0.83629   0.01700   0.00000  Uiso   1.00
C463   C     0.17082   0.84927   0.47147   0.00000  Uiso   1.00
C464   C     0.15374   0.85757   0.01839   0.00000  Uiso   1.00
Cu465  Cu    0.04689   0.83334   0.25000   0.00000  Uiso   1.00
Cu466  Cu    0.28645   0.83333   0.25000   0.00000  Uiso   1.00
H467   H     0.19979   0.78041   0.29293   0.00000  Uiso   1.00
H468   H     0.13350   0.88628   0.20712   0.00000  Uiso   1.00
N469   N     0.11736   0.83334   0.24999   0.00000  Uiso   1.00
N470   N     0.21597   0.83332   0.25001   0.00000  Uiso   1.00
O471   O     0.03958   0.77322   0.25000   0.00000  Uiso   1.00
O472   O     0.29375   0.89345   0.25000   0.00000  Uiso   1.00
O473   O     0.29372   0.77321   0.25000   0.00000  Uiso   1.00
O474   O     0.03961   0.89346   0.25000   0.00000  Uiso   1.00
O475   O     0.01852   0.83334   0.31492   0.00000  Uiso   1.00
O476   O     0.31481   0.83332   0.18508   0.00000  Uiso   1.00
O477   O     0.27267   0.83333   0.31492   0.00000  Uiso   1.00
O478   O     0.06067   0.83333   0.18508   0.00000  Uiso   1.00
H479   H     0.25445   0.90457   0.03242   0.00000  Uiso   1.00
H480   H     0.06181   0.83079   0.45058   0.00000  Uiso   1.00
O481   O     0.12609   0.82969   0.11378   0.00000  Uiso   1.00
H482   H     0.15526   0.81725   0.09337   0.00000  Uiso   1.00
O483   O     0.22233   0.79861   0.39359   0.00000  Uiso   1.00
H484   H     0.19940   0.78460   0.41952   0.00000  Uiso   1.00
O485   O     0.29299   0.82766   0.10574   0.00000  Uiso   1.00
H486   H     0.28288   0.85351   0.12227   0.00000  Uiso   1.00
O487   O     0.03369   0.87521   0.38686   0.00000  Uiso   1.00
H488   H     0.05096   0.84977   0.37417   0.00000  Uiso   1.00
H489   H     0.32252   0.89538   0.46773   0.00000  Uiso   1.00
H490   H     0.33158   0.82466   0.02013   0.00000  Uiso   1.00
O491   O     0.16660   0.90123   0.07908   0.00000  Uiso   1.00
H492   H     0.13219   0.90839   0.08236   0.00000  Uiso   1.00
O493   O     0.14587   0.84759   0.40010   0.00000  Uiso   1.00
H494   H     0.17249   0.86766   0.38988   0.00000  Uiso   1.00
O495   O     0.25537   0.70446   0.31049   0.00000  Uiso   1.00
H496   H     0.26545   0.73129   0.31958   0.00000  Uiso   1.00
O497   O     0.07795   0.96219   0.18949   0.00000  Uiso   1.00
H498   H     0.06786   0.93537   0.18038   0.00000  Uiso   1.00
H499   H     0.26401   0.95994   0.29668   0.00000  Uiso   1.00
H500   H     0.06935   0.70670   0.20336   0.00000  Uiso   1.00
O501   O     0.10919   0.77277   0.29989   0.00000  Uiso   1.00
H502   H     0.07558   0.78236   0.30940   0.00000  Uiso   1.00
O503   O     0.22389   0.89421   0.20053   0.00000  Uiso   1.00
H504   H     0.25771   0.88521   0.19195   0.00000  Uiso   1.00
C505   C     0.66652   0.75412   0.25149   0.00000  Uiso   1.00
C506   C     0.33348   0.91254   0.24851   0.00000  Uiso   1.00
C507   C     0.51713   0.88077   0.03897   0.00000  Uiso   1.00
C508   C     0.46921   0.84301   0.44663   0.00000  Uiso   1.00
C509   C     0.56539   0.88694   0.01628   0.00000  Uiso   1.00
C510   C     0.42115   0.83606   0.46979   0.00000  Uiso   1.00
C511   C     0.62718   0.68672   0.27954   0.00000  Uiso   1.00
C512   C     0.37282   0.97993   0.22047   0.00000  Uiso   1.00
C513   C     0.62728   0.97749   0.27571   0.00000  Uiso   1.00
C514   C     0.37274   0.68916   0.22432   0.00000  Uiso   1.00
C515   C     0.66660   0.95723   0.24723   0.00000  Uiso   1.00
C516   C     0.33340   0.70942   0.25278   0.00000  Uiso   1.00
C517   C     0.51919   0.80382   0.27366   0.00000  Uiso   1.00
C518   C     0.48079   0.86285   0.22636   0.00000  Uiso   1.00
C519   C     0.46982   0.80372   0.27426   0.00000  Uiso   1.00
C520   C     0.53010   0.86304   0.22587   0.00000  Uiso   1.00
C521   C     0.63960   0.83428   0.33642   0.00000  Uiso   1.00
C522   C     0.36060   0.83324   0.16330   0.00000  Uiso   1.00
C523   C     0.62472   0.84130   0.38582   0.00000  Uiso   1.00
C524   C     0.37568   0.83426   0.11266   0.00000  Uiso   1.00
C525   C     0.63337   0.87822   0.45126   0.00000  Uiso   1.00
C526   C     0.35774   0.82954   0.03937   0.00000  Uiso   1.00
C527   C     0.65340   0.86436   0.40757   0.00000  Uiso   1.00
C528   C     0.34173   0.83121   0.08647   0.00000  Uiso   1.00
C529   C     0.57753   0.83025   0.41005   0.00000  Uiso   1.00
C530   C     0.42544   0.83708   0.08967   0.00000  Uiso   1.00
C531   C     0.55496   0.85018   0.45116   0.00000  Uiso   1.00
C532   C     0.43975   0.84444   0.04203   0.00000  Uiso   1.00
C533   C     0.58471   0.87146   0.47313   0.00000  Uiso   1.00
C534   C     0.40623   0.83629   0.01700   0.00000  Uiso   1.00
C535   C     0.50415   0.84927   0.47147   0.00000  Uiso   1.00
C536   C     0.48707   0.85757   0.01839   0.00000  Uiso   1.00
Cu537  Cu    0.38022   0.83334   0.25000   0.00000  Uiso   1.00
Cu538  Cu    0.61978   0.83333   0.25000   0.00000  Uiso   1.00
H539   H     0.53312   0.78041   0.29293   0.00000  Uiso   1.00
H540   H     0.46684   0.88628   0.20712   0.00000  Uiso   1.00
N541   N     0.45069   0.83334   0.24999   0.00000  Uiso   1.00
N542   N     0.54931   0.83332   0.25001   0.00000  Uiso   1.00
O543   O     0.37291   0.77322   0.25000   0.00000  Uiso   1.00
O544   O     0.62709   0.89345   0.25000   0.00000  Uiso   1.00
O545   O     0.62706   0.77321   0.25000   0.00000  Uiso   1.00
O546   O     0.37294   0.89346   0.25000   0.00000  Uiso   1.00
O547   O     0.35186   0.83334   0.31492   0.00000  Uiso   1.00
O548   O     0.64814   0.83332   0.18508   0.00000  Uiso   1.00
O549   O     0.60600   0.83333   0.31492   0.00000  Uiso   1.00
O550   O     0.39400   0.83333   0.18508   0.00000  Uiso   1.00
H551   H     0.58778   0.90457   0.03242   0.00000  Uiso   1.00
H552   H     0.39515   0.83079   0.45058   0.00000  Uiso   1.00
O553   O     0.45942   0.82969   0.11378   0.00000  Uiso   1.00
H554   H     0.48859   0.81725   0.09337   0.00000  Uiso   1.00
O555   O     0.55567   0.79861   0.39359   0.00000  Uiso   1.00
H556   H     0.53273   0.78460   0.41952   0.00000  Uiso   1.00
O557   O     0.62633   0.82766   0.10574   0.00000  Uiso   1.00
H558   H     0.61622   0.85351   0.12227   0.00000  Uiso   1.00
O559   O     0.36702   0.87521   0.38686   0.00000  Uiso   1.00
H560   H     0.38430   0.84977   0.37417   0.00000  Uiso   1.00
H561   H     0.65585   0.89538   0.46773   0.00000  Uiso   1.00
H562   H     0.66491   0.82466   0.02013   0.00000  Uiso   1.00
O563   O     0.49994   0.90123   0.07908   0.00000  Uiso   1.00
H564   H     0.46553   0.90839   0.08236   0.00000  Uiso   1.00
O565   O     0.47920   0.84759   0.40010   0.00000  Uiso   1.00
H566   H     0.50583   0.86766   0.38988   0.00000  Uiso   1.00
O567   O     0.58870   0.70446   0.31049   0.00000  Uiso   1.00
H568   H     0.59878   0.73129   0.31958   0.00000  Uiso   1.00
O569   O     0.41128   0.96219   0.18949   0.00000  Uiso   1.00
H570   H     0.40119   0.93537   0.18038   0.00000  Uiso   1.00
H571   H     0.59734   0.95994   0.29668   0.00000  Uiso   1.00
H572   H     0.40268   0.70670   0.20336   0.00000  Uiso   1.00
O573   O     0.44252   0.77277   0.29989   0.00000  Uiso   1.00
H574   H     0.40892   0.78236   0.30940   0.00000  Uiso   1.00
O575   O     0.55722   0.89421   0.20053   0.00000  Uiso   1.00
H576   H     0.59104   0.88521   0.19195   0.00000  Uiso   1.00
C577   C     0.99985   0.75412   0.25149   0.00000  Uiso   1.00
C578   C     0.66682   0.91254   0.24851   0.00000  Uiso   1.00
C579   C     0.85046   0.88077   0.03897   0.00000  Uiso   1.00
C580   C     0.80254   0.84301   0.44663   0.00000  Uiso   1.00
C581   C     0.89872   0.88694   0.01628   0.00000  Uiso   1.00
C582   C     0.75448   0.83606   0.46979   0.00000  Uiso   1.00
C583   C     0.96052   0.68672   0.27954   0.00000  Uiso   1.00
C584   C     0.70616   0.97993   0.22047   0.00000  Uiso   1.00
C585   C     0.96061   0.97749   0.27571   0.00000  Uiso   1.00
C586   C     0.70607   0.68916   0.22432   0.00000  Uiso   1.00
C587   C     0.99994   0.95723   0.24723   0.00000  Uiso   1.00
C588   C     0.66674   0.70942   0.25278   0.00000  Uiso   1.00
C589   C     0.85252   0.80382   0.27366   0.00000  Uiso   1.00
C590   C     0.81412   0.86285   0.22636   0.00000  Uiso   1.00
C591   C     0.80316   0.80372   0.27426   0.00000  Uiso   1.00
C592   C     0.86343   0.86304   0.22587   0.00000  Uiso   1.00
C593   C     0.97294   0.83428   0.33642   0.00000  Uiso   1.00
C594   C     0.69394   0.83324   0.16330   0.00000  Uiso   1.00
C595   C     0.95805   0.84130   0.38582   0.00000  Uiso   1.00
C596   C     0.70901   0.83426   0.11266   0.00000  Uiso   1.00
C597   C     0.96670   0.87822   0.45126   0.00000  Uiso   1.00
C598   C     0.69107   0.82954   0.03937   0.00000  Uiso   1.00
C599   C     0.98673   0.86436   0.40757   0.00000  Uiso   1.00
C600   C     0.67507   0.83121   0.08647   0.00000  Uiso   1.00
C601   C     0.91087   0.83025   0.41005   0.00000  Uiso   1.00
C602   C     0.75877   0.83708   0.08967   0.00000  Uiso   1.00
C603   C     0.88829   0.85018   0.45116   0.00000  Uiso   1.00
C604   C     0.77309   0.84444   0.04203   0.00000  Uiso   1.00
C605   C     0.91804   0.87146   0.47313   0.00000  Uiso   1.00
C606   C     0.73956   0.83629   0.01700   0.00000  Uiso   1.00
C607   C     0.83748   0.84927   0.47147   0.00000  Uiso   1.00
C608   C     0.82040   0.85757   0.01839   0.00000  Uiso   1.00
Cu609  Cu    0.71355   0.83334   0.25000   0.00000  Uiso   1.00
Cu610  Cu    0.95311   0.83333   0.25000   0.00000  Uiso   1.00
H611   H     0.86645   0.78041   0.29293   0.00000  Uiso   1.00
H612   H     0.80017   0.88628   0.20712   0.00000  Uiso   1.00
N613   N     0.78403   0.83334   0.24999   0.00000  Uiso   1.00
N614   N     0.88264   0.83332   0.25001   0.00000  Uiso   1.00
O615   O     0.70625   0.77322   0.25000   0.00000  Uiso   1.00
O616   O     0.96042   0.89345   0.25000   0.00000  Uiso   1.00
O617   O     0.96039   0.77321   0.25000   0.00000  Uiso   1.00
O618   O     0.70628   0.89346   0.25000   0.00000  Uiso   1.00
O619   O     0.68519   0.83334   0.31492   0.00000  Uiso   1.00
O620   O     0.98148   0.83332   0.18508   0.00000  Uiso   1.00
O621   O     0.93933   0.83333   0.31492   0.00000  Uiso   1.00
O622   O     0.72733   0.83333   0.18508   0.00000  Uiso   1.00
H623   H     0.92112   0.90457   0.03242   0.00000  Uiso   1.00
H624   H     0.72848   0.83079   0.45058   0.00000  Uiso   1.00
O625   O     0.79275   0.82969   0.11378   0.00000  Uiso   1.00
H626   H     0.82193   0.81725   0.09337   0.00000  Uiso   1.00
O627   O     0.88900   0.79861   0.39359   0.00000  Uiso   1.00
H628   H     0.86606   0.78460   0.41952   0.00000  Uiso   1.00
O629   O     0.95966   0.82766   0.10574   0.00000  Uiso   1.00
H630   H     0.94955   0.85351   0.12227   0.00000  Uiso   1.00
O631   O     0.70035   0.87521   0.38686   0.00000  Uiso   1.00
H632   H     0.71763   0.84977   0.37417   0.00000  Uiso   1.00
H633   H     0.98919   0.89538   0.46773   0.00000  Uiso   1.00
H634   H     0.99825   0.82466   0.02013   0.00000  Uiso   1.00
O635   O     0.83327   0.90123   0.07908   0.00000  Uiso   1.00
H636   H     0.79886   0.90839   0.08236   0.00000  Uiso   1.00
O637   O     0.81254   0.84759   0.40010   0.00000  Uiso   1.00
H638   H     0.83916   0.86766   0.38988   0.00000  Uiso   1.00
O639   O     0.92204   0.70446   0.31049   0.00000  Uiso   1.00
H640   H     0.93211   0.73129   0.31958   0.00000  Uiso   1.00
O641   O     0.74462   0.96219   0.18949   0.00000  Uiso   1.00
H642   H     0.73453   0.93537   0.18038   0.00000  Uiso   1.00
H643   H     0.93067   0.95994   0.29668   0.00000  Uiso   1.00
H644   H     0.73602   0.70670   0.20336   0.00000  Uiso   1.00
O645   O     0.77585   0.77277   0.29989   0.00000  Uiso   1.00
H646   H     0.74225   0.78236   0.30940   0.00000  Uiso   1.00
O647   O     0.89056   0.89421   0.20053   0.00000  Uiso   1.00
H648   H     0.92437   0.88521   0.19195   0.00000  Uiso   1.00
C649   C     0.33318   0.08745   0.75149   0.00000  Uiso   1.00
C650   C     0.00015   0.24588   0.74851   0.00000  Uiso   1.00
C651   C     0.18379   0.21411   0.53897   0.00000  Uiso   1.00
C652   C     0.13587   0.17634   0.94663   0.00000  Uiso   1.00
C653   C     0.23205   0.22027   0.51628   0.00000  Uiso   1.00
C654   C     0.08782   0.16940   0.96979   0.00000  Uiso   1.00
C655   C     0.29385   0.02005   0.77954   0.00000  Uiso   1.00
C656   C     0.03949   0.31326   0.72047   0.00000  Uiso   1.00
C657   C     0.29394   0.31082   0.77571   0.00000  Uiso   1.00
C658   C     0.03941   0.02249   0.72432   0.00000  Uiso   1.00
C659   C     0.33327   0.29057   0.74723   0.00000  Uiso   1.00
C660   C     0.00007   0.04275   0.75278   0.00000  Uiso   1.00
C661   C     0.18585   0.13715   0.77366   0.00000  Uiso   1.00
C662   C     0.14745   0.19619   0.72636   0.00000  Uiso   1.00
C663   C     0.13649   0.13705   0.77426   0.00000  Uiso   1.00
C664   C     0.19677   0.19637   0.72587   0.00000  Uiso   1.00
C665   C     0.30627   0.16761   0.83642   0.00000  Uiso   1.00
C666   C     0.02727   0.16657   0.66330   0.00000  Uiso   1.00
C667   C     0.29139   0.17463   0.88582   0.00000  Uiso   1.00
C668   C     0.04235   0.16759   0.61266   0.00000  Uiso   1.00
C669   C     0.30003   0.21155   0.95126   0.00000  Uiso   1.00
C670   C     0.02440   0.16287   0.53937   0.00000  Uiso   1.00
C671   C     0.32006   0.19769   0.90757   0.00000  Uiso   1.00
C672   C     0.00840   0.16454   0.58647   0.00000  Uiso   1.00
C673   C     0.24420   0.16358   0.91005   0.00000  Uiso   1.00
C674   C     0.09210   0.17041   0.58967   0.00000  Uiso   1.00
C675   C     0.22163   0.18352   0.95116   0.00000  Uiso   1.00
C676   C     0.10642   0.17778   0.54203   0.00000  Uiso   1.00
C677   C     0.25138   0.20479   0.97313   0.00000  Uiso   1.00
C678   C     0.07289   0.16962   0.51700   0.00000  Uiso   1.00
C679   C     0.17082   0.18261   0.97147   0.00000  Uiso   1.00
C680   C     0.15374   0.19090   0.51839   0.00000  Uiso   1.00
Cu681  Cu    0.04689   0.16667   0.75000   0.00000  Uiso   1.00
Cu682  Cu    0.28645   0.16666   0.75000   0.00000  Uiso   1.00
H683   H     0.19979   0.11374   0.79293   0.00000  Uiso   1.00
H684   H     0.13350   0.21961   0.70712   0.00000  Uiso   1.00
N685   N     0.11736   0.16668   0.74999   0.00000  Uiso   1.00
N686   N     0.21597   0.16666   0.75001   0.00000  Uiso   1.00
O687   O     0.03958   0.10655   0.75000   0.00000  Uiso   1.00
O688   O     0.29375   0.22678   0.75000   0.00000  Uiso   1.00
O689   O     0.29372   0.10654   0.75000   0.00000  Uiso   1.00
O690   O     0.03961   0.22679   0.75000   0.00000  Uiso   1.00
O691   O     0.01852   0.16668   0.81492   0.00000  Uiso   1.00
O692   O     0.31481   0.16666   0.68508   0.00000  Uiso   1.00
O693   O     0.27267   0.16667   0.81492   0.00000  Uiso   1.00
O694   O     0.06067   0.16667   0.68508   0.00000  Uiso   1.00
H695   H     0.25445   0.23791   0.53242   0.00000  Uiso   1.00
H696   H     0.06181   0.16412   0.95058   0.00000  Uiso   1.00
O697   O     0.12609   0.16303   0.61378   0.00000  Uiso   1.00
H698   H     0.15526   0.15058   0.59337   0.00000  Uiso   1.00
O699   O     0.22233   0.13194   0.89359   0.00000  Uiso   1.00
H700   H     0.19940   0.11793   0.91952   0.00000  Uiso   1.00
O701   O     0.29299   0.16100   0.60574   0.00000  Uiso   1.00
H702   H     0.28288   0.18684   0.62227   0.00000  Uiso   1.00
O703   O     0.03369   0.20854   0.88686   0.00000  Uiso   1.00
H704   H     0.05096   0.18310   0.87417   0.00000  Uiso   1.00
H705   H     0.32252   0.22872   0.96773   0.00000  Uiso   1.00
H706   H     0.33158   0.15799   0.52013   0.00000  Uiso   1.00
O707   O     0.16660   0.23456   0.57908   0.00000  Uiso   1.00
H708   H     0.13219   0.24172   0.58236   0.00000  Uiso   1.00
O709   O     0.14587   0.18093   0.90010   0.00000  Uiso   1.00
H710   H     0.17249   0.20099   0.88988   0.00000  Uiso   1.00
O711   O     0.25537   0.03779   0.81049   0.00000  Uiso   1.00
H712   H     0.26545   0.06463   0.81958   0.00000  Uiso   1.00
O713   O     0.07795   0.29552   0.68949   0.00000  Uiso   1.00
H714   H     0.06786   0.26870   0.68038   0.00000  Uiso   1.00
H715   H     0.26401   0.29327   0.79668   0.00000  Uiso   1.00
H716   H     0.06935   0.04004   0.70336   0.00000  Uiso   1.00
O717   O     0.10919   0.10611   0.79989   0.00000  Uiso   1.00
H718   H     0.07558   0.11569   0.80940   0.00000  Uiso   1.00
O719   O     0.22389   0.22755   0.70053   0.00000  Uiso   1.00
H720   H     0.25771   0.21854   0.69195   0.00000  Uiso   1.00
C721   C     0.66652   0.08745   0.75149   0.00000  Uiso   1.00
C722   C     0.33348   0.24588   0.74851   0.00000  Uiso   1.00
C723   C     0.51713   0.21411   0.53897   0.00000  Uiso   1.00
C724   C     0.46921   0.17634   0.94663   0.00000  Uiso   1.00
C725   C     0.56539   0.22027   0.51628   0.00000  Uiso   1.00
C726   C     0.42115   0.16940   0.96979   0.00000  Uiso   1.00
C727   C     0.62718   0.02005   0.77954   0.00000  Uiso   1.00
C728   C     0.37282   0.31326   0.72047   0.00000  Uiso   1.00
C729   C     0.62728   0.31082   0.77571   0.00000  Uiso   1.00
C730   C     0.37274   0.02249   0.72432   0.00000  Uiso   1.00
C731   C     0.66660   0.29057   0.74723   0.00000  Uiso   1.00
C732   C     0.33340   0.04275   0.75278   0.00000  Uiso   1.00
C733   C     0.51919   0.13715   0.77366   0.00000  Uiso   1.00
C734   C     0.48079   0.19619   0.72636   0.00000  Uiso   1.00
C735   C     0.46982   0.13705   0.77426   0.00000  Uiso   1.00
C736   C     0.53010   0.19637   0.72587   0.00000  Uiso   1.00
C737   C     0.63960   0.16761   0.83642   0.00000  Uiso   1.00
C738   C     0.36060   0.16657   0.66330   0.00000  Uiso   1.00
C739   C     0.62472   0.17463   0.88582   0.00000  Uiso   1.00
C740   C     0.37568   0.16759   0.61266   0.00000  Uiso   1.00
C741   C     0.63337   0.21155   0.95126   0.00000  Uiso   1.00
C742   C     0.35774   0.16287   0.53937   0.00000  Uiso   1.00
C743   C     0.65340   0.19769   0.90757   0.00000  Uiso   1.00
C744   C     0.34173   0.16454   0.58647   0.00000  Uiso   1.00
C745   C     0.57753   0.16358   0.91005   0.00000  Uiso   1.00
C746   C     0.42544   0.17041   0.58967   0.00000  Uiso   1.00
C747   C     0.55496   0.18352   0.95116   0.00000  Uiso   1.00
C748   C     0.43975   0.17778   0.54203   0.00000  Uiso   1.00
C749   C     0.58471   0.20479   0.97313   0.00000  Uiso   1.00
C750   C     0.40623   0.16962   0.51700   0.00000  Uiso   1.00
C751   C     0.50415   0.18261   0.97147   0.00000  Uiso   1.00
C752   C     0.48707   0.19090   0.51839   0.00000  Uiso   1.00
Cu753  Cu    0.38022   0.16667   0.75000   0.00000  Uiso   1.00
Cu754  Cu    0.61978   0.16666   0.75000   0.00000  Uiso   1.00
H755   H     0.53312   0.11374   0.79293   0.00000  Uiso   1.00
H756   H     0.46684   0.21961   0.70712   0.00000  Uiso   1.00
N757   N     0.45069   0.16668   0.74999   0.00000  Uiso   1.00
N758   N     0.54931   0.16666   0.75001   0.00000  Uiso   1.00
O759   O     0.37291   0.10655   0.75000   0.00000  Uiso   1.00
O760   O     0.62709   0.22678   0.75000   0.00000  Uiso   1.00
O761   O     0.62706   0.10654   0.75000   0.00000  Uiso   1.00
O762   O     0.37294   0.22679   0.75000   0.00000  Uiso   1.00
O763   O     0.35186   0.16668   0.81492   0.00000  Uiso   1.00
O764   O     0.64814   0.16666   0.68508   0.00000  Uiso   1.00
O765   O     0.60600   0.16667   0.81492   0.00000  Uiso   1.00
O766   O     0.39400   0.16667   0.68508   0.00000  Uiso   1.00
H767   H     0.58778   0.23791   0.53242   0.00000  Uiso   1.00
H768   H     0.39515   0.16412   0.95058   0.00000  Uiso   1.00
O769   O     0.45942   0.16303   0.61378   0.00000  Uiso   1.00
H770   H     0.48859   0.15058   0.59337   0.00000  Uiso   1.00
O771   O     0.55567   0.13194   0.89359   0.00000  Uiso   1.00
H772   H     0.53273   0.11793   0.91952   0.00000  Uiso   1.00
O773   O     0.62633   0.16100   0.60574   0.00000  Uiso   1.00
H774   H     0.61622   0.18684   0.62227   0.00000  Uiso   1.00
O775   O     0.36702   0.20854   0.88686   0.00000  Uiso   1.00
H776   H     0.38430   0.18310   0.87417   0.00000  Uiso   1.00
H777   H     0.65585   0.22872   0.96773   0.00000  Uiso   1.00
H778   H     0.66491   0.15799   0.52013   0.00000  Uiso   1.00
O779   O     0.49994   0.23456   0.57908   0.00000  Uiso   1.00
H780   H     0.46553   0.24172   0.58236   0.00000  Uiso   1.00
O781   O     0.47920   0.18093   0.90010   0.00000  Uiso   1.00
H782   H     0.50583   0.20099   0.88988   0.00000  Uiso   1.00
O783   O     0.58870   0.03779   0.81049   0.00000  Uiso   1.00
H784   H     0.59878   0.06463   0.81958   0.00000  Uiso   1.00
O785   O     0.41128   0.29552   0.68949   0.00000  Uiso   1.00
H786   H     0.40119   0.26870   0.68038   0.00000  Uiso   1.00
H787   H     0.59734   0.29327   0.79668   0.00000  Uiso   1.00
H788   H     0.40268   0.04004   0.70336   0.00000  Uiso   1.00
O789   O     0.44252   0.10611   0.79989   0.00000  Uiso   1.00
H790   H     0.40892   0.11569   0.80940   0.00000  Uiso   1.00
O791   O     0.55722   0.22755   0.70053   0.00000  Uiso   1.00
H792   H     0.59104   0.21854   0.69195   0.00000  Uiso   1.00
C793   C     0.99985   0.08745   0.75149   0.00000  Uiso   1.00
C794   C     0.66682   0.24588   0.74851   0.00000  Uiso   1.00
C795   C     0.85046   0.21411   0.53897   0.00000  Uiso   1.00
C796   C     0.80254   0.17634   0.94663   0.00000  Uiso   1.00
C797   C     0.89872   0.22027   0.51628   0.00000  Uiso   1.00
C798   C     0.75448   0.16940   0.96979   0.00000  Uiso   1.00
C799   C     0.96052   0.02005   0.77954   0.00000  Uiso   1.00
C800   C     0.70616   0.31326   0.72047   0.00000  Uiso   1.00
C801   C     0.96061   0.31082   0.77571   0.00000  Uiso   1.00
C802   C     0.70607   0.02249   0.72432   0.00000  Uiso   1.00
C803   C     0.99994   0.29057   0.74723   0.00000  Uiso   1.00
C804   C     0.66674   0.04275   0.75278   0.00000  Uiso   1.00
C805   C     0.85252   0.13715   0.77366   0.00000  Uiso   1.00
C806   C     0.81412   0.19619   0.72636   0.00000  Uiso   1.00
C807   C     0.80316   0.13705   0.77426   0.00000  Uiso   1.00
C808   C     0.86343   0.19637   0.72587   0.00000  Uiso   1.00
C809   C     0.97294   0.16761   0.83642   0.00000  Uiso   1.00
C810   C     0.69394   0.16657   0.66330   0.00000  Uiso   1.00
C811   C     0.95805   0.17463   0.88582   0.00000  Uiso   1.00
C812   C     0.70901   0.16759   0.61266   0.00000  Uiso   1.00
C813   C     0.96670   0.21155   0.95126   0.00000  Uiso   1.00
C814   C     0.69107   0.16287   0.53937   0.00000  Uiso   1.00
C815   C     0.98673   0.19769   0.90757   0.00000  Uiso   1.00
C816   C     0.67507   0.16454   0.58647   0.00000  Uiso   1.00
C817   C     0.91087   0.16358   0.91005   0.00000  Uiso   1.00
C818   C     0.75877   0.17041   0.58967   0.00000  Uiso   1.00
C819   C     0.88829   0.18352   0.95116   0.00000  Uiso   1.00
C820   C     0.77309   0.17778   0.54203   0.00000  Uiso   1.00
C821   C     0.91804   0.20479   0.97313   0.00000  Uiso   1.00
C822   C     0.73956   0.16962   0.51700   0.00000  Uiso   1.00
C823   C     0.83748   0.18261   0.97147   0.00000  Uiso   1.00
C824   C     0.82040   0.19090   0.51839   0.00000  Uiso   1.00
Cu825  Cu    0.71355   0.16667   0.75000   0.00000  Uiso   1.00
Cu826  Cu    0.95311   0.16666   0.75000   0.00000  Uiso   1.00
H827   H     0.86645   0.11374   0.79293   0.00000  Uiso   1.00
H828   H     0.80017   0.21961   0.70712   0.00000  Uiso   1.00
N829   N     0.78403   0.16668   0.74999   0.00000  Uiso   1.00
N830   N     0.88264   0.16666   0.75001   0.00000  Uiso   1.00
O831   O     0.70625   0.10655   0.75000   0.00000  Uiso   1.00
O832   O     0.96042   0.22678   0.75000   0.00000  Uiso   1.00
O833   O     0.96039   0.10654   0.75000   0.00000  Uiso   1.00
O834   O     0.70628   0.22679   0.75000   0.00000  Uiso   1.00
O835   O     0.68519   0.16668   0.81492   0.00000  Uiso   1.00
O836   O     0.98148   0.16666   0.68508   0.00000  Uiso   1.00
O837   O     0.93933   0.16667   0.81492   0.00000  Uiso   1.00
O838   O     0.72733   0.16667   0.68508   0.00000  Uiso   1.00
H839   H     0.92112   0.23791   0.53242   0.00000  Uiso   1.00
H840   H     0.72848   0.16412   0.95058   0.00000  Uiso   1.00
O841   O     0.79275   0.16303   0.61378   0.00000  Uiso   1.00
H842   H     0.82193   0.15058   0.59337   0.00000  Uiso   1.00
O843   O     0.88900   0.13194   0.89359   0.00000  Uiso   1.00
H844   H     0.86606   0.11793   0.91952   0.00000  Uiso   1.00
O845   O     0.95966   0.16100   0.60574   0.00000  Uiso   1.00
H846   H     0.94955   0.18684   0.62227   0.00000  Uiso   1.00
O847   O     0.70035   0.20854   0.88686   0.00000  Uiso   1.00
H848   H     0.71763   0.18310   0.87417   0.00000  Uiso   1.00
H849   H     0.98919   0.22872   0.96773   0.00000  Uiso   1.00
H850   H     0.99825   0.15799   0.52013   0.00000  Uiso   1.00
O851   O     0.83327   0.23456   0.57908   0.00000  Uiso   1.00
H852   H     0.79886   0.24172   0.58236   0.00000  Uiso   1.00
O853   O     0.81254   0.18093   0.90010   0.00000  Uiso   1.00
H854   H     0.83916   0.20099   0.88988   0.00000  Uiso   1.00
O855   O     0.92204   0.03779   0.81049   0.00000  Uiso   1.00
H856   H     0.93211   0.06463   0.81958   0.00000  Uiso   1.00
O857   O     0.74462   0.29552   0.68949   0.00000  Uiso   1.00
H858   H     0.73453   0.26870   0.68038   0.00000  Uiso   1.00
H859   H     0.93067   0.29327   0.79668   0.00000  Uiso   1.00
H860   H     0.73602   0.04004   0.70336   0.00000  Uiso   1.00
O861   O     0.77585   0.10611   0.79989   0.00000  Uiso   1.00
H862   H     0.74225   0.11569   0.80940   0.00000  Uiso   1.00
O863   O     0.89056   0.22755   0.70053   0.00000  Uiso   1.00
H864   H     0.92437   0.21854   0.69195   0.00000  Uiso   1.00
C865   C     0.33318   0.42079   0.75149   0.00000  Uiso   1.00
C866   C     0.00015   0.57921   0.74851   0.00000  Uiso   1.00
C867   C     0.18379   0.54744   0.53897   0.00000  Uiso   1.00
C868   C     0.13587   0.50967   0.94663   0.00000  Uiso   1.00
C869   C     0.23205   0.55361   0.51628   0.00000  Uiso   1.00
C870   C     0.08782   0.50273   0.96979   0.00000  Uiso   1.00
C871   C     0.29385   0.35339   0.77954   0.00000  Uiso   1.00
C872   C     0.03949   0.64659   0.72047   0.00000  Uiso   1.00
C873   C     0.29394   0.64415   0.77571   0.00000  Uiso   1.00
C874   C     0.03941   0.35583   0.72432   0.00000  Uiso   1.00
C875   C     0.33327   0.62390   0.74723   0.00000  Uiso   1.00
C876   C     0.00007   0.37609   0.75278   0.00000  Uiso   1.00
C877   C     0.18585   0.47048   0.77366   0.00000  Uiso   1.00
C878   C     0.14745   0.52952   0.72636   0.00000  Uiso   1.00
C879   C     0.13649   0.47038   0.77426   0.00000  Uiso   1.00
C880   C     0.19677   0.52970   0.72587   0.00000  Uiso   1.00
C881   C     0.30627   0.50095   0.83642   0.00000  Uiso   1.00
C882   C     0.02727   0.49990   0.66330   0.00000  Uiso   1.00
C883   C     0.29139   0.50796   0.88582   0.00000  Uiso   1.00
C884   C     0.04235   0.50092   0.61266   0.00000  Uiso   1.00
C885   C     0.30003   0.54488   0.95126   0.00000  Uiso   1.00
C886   C     0.02440   0.49620   0.53937   0.00000  Uiso   1.00
C887   C     0.32006   0.53102   0.90757   0.00000  Uiso   1.00
C888   C     0.00840   0.49788   0.58647   0.00000  Uiso   1.00
C889   C     0.24420   0.49691   0.91005   0.00000  Uiso   1.00
C890   C     0.09210   0.50375   0.58967   0.00000  Uiso   1.00
C891   C     0.22163   0.51685   0.95116   0.00000  Uiso   1.00
C892   C     0.10642   0.51111   0.54203   0.00000  Uiso   1.00
C893   C     0.25138   0.53812   0.97313   0.00000  Uiso   1.00
C894   C     0.07289   0.50296   0.51700   0.00000  Uiso   1.00
C895   C     0.17082   0.51594   0.97147   0.00000  Uiso   1.00
C896   C     0.15374   0.52424   0.51839   0.00000  Uiso   1.00
Cu897  Cu    0.04689   0.50001   0.75000   0.00000  Uiso   1.00
Cu898  Cu    0.28645   0.49999   0.75000   0.00000  Uiso   1.00
H899   H     0.19979   0.44707   0.79293   0.00000  Uiso   1.00
H900   H     0.13350   0.55295   0.70712   0.00000  Uiso   1.00
N901   N     0.11736   0.50001   0.74999   0.00000  Uiso   1.00
N902   N     0.21597   0.49999   0.75001   0.00000  Uiso   1.00
O903   O     0.03958   0.43989   0.75000   0.00000  Uiso   1.00
O904   O     0.29375   0.56011   0.75000   0.00000  Uiso   1.00
O905   O     0.29372   0.43988   0.75000   0.00000  Uiso   1.00
O906   O     0.03961   0.56012   0.75000   0.00000  Uiso   1.00
O907   O     0.01852   0.50001   0.81492   0.00000  Uiso   1.00
O908   O     0.31481   0.49999   0.68508   0.00000  Uiso   1.00
O909   O     0.27267   0.50000   0.81492   0.00000  Uiso   1.00
O910   O     0.06067   0.50000   0.68508   0.00000  Uiso   1.00
H911   H     0.25445   0.57124   0.53242   0.00000  Uiso   1.00
H912   H     0.06181   0.49746   0.95058   0.00000  Uiso   1.00
O913   O     0.12609   0.49636   0.61378   0.00000  Uiso   1.00
H914   H     0.15526   0.48391   0.59337   0.00000  Uiso   1.00
O915   O     0.22233   0.46528   0.89359   0.00000  Uiso   1.00
H916   H     0.19940   0.45127   0.91952   0.00000  Uiso   1.00
O917   O     0.29299   0.49433   0.60574   0.00000  Uiso   1.00
H918   H     0.28288   0.52018   0.62227   0.00000  Uiso   1.00
O919   O     0.03369   0.54187   0.88686   0.00000  Uiso   1.00
H920   H     0.05096   0.51643   0.87417   0.00000  Uiso   1.00
H921   H     0.32252   0.56205   0.96773   0.00000  Uiso   1.00
H922   H     0.33158   0.49133   0.52013   0.00000  Uiso   1.00
O923   O     0.16660   0.56790   0.57908   0.00000  Uiso   1.00
H924   H     0.13219   0.57505   0.58236   0.00000  Uiso   1.00
O925   O     0.14587   0.51426   0.90010   0.00000  Uiso   1.00
H926   H     0.17249   0.53433   0.88988   0.00000  Uiso   1.00
O927   O     0.25537   0.37112   0.81049   0.00000  Uiso   1.00
H928   H     0.26545   0.39796   0.81958   0.00000  Uiso   1.00
O929   O     0.07795   0.62886   0.68949   0.00000  Uiso   1.00
H930   H     0.06786   0.60203   0.68038   0.00000  Uiso   1.00
H931   H     0.26401   0.62661   0.79668   0.00000  Uiso   1.00
H932   H     0.06935   0.37337   0.70336   0.00000  Uiso   1.00
O933   O     0.10919   0.43944   0.79989   0.00000  Uiso   1.00
H934   H     0.07558   0.44903   0.80940   0.00000  Uiso   1.00
O935   O     0.22389   0.56088   0.70053   0.00000  Uiso   1.00
H936   H     0.25771   0.55187   0.69195   0.00000  Uiso   1.00
C937   C     0.66652   0.42079   0.75149   0.00000  Uiso   1.00
C938   C     0.33348   0.57921   0.74851   0.00000  Uiso   1.00
C939   C     0.51713   0.54744   0.53897   0.00000  Uiso   1.00
C940   C     0.46921   0.50967   0.94663   0.00000  Uiso   1.00
C941   C     0.56539   0.55361   0.51628   0.00000  Uiso   1.00
C942   C     0.42115   0.50273   0.96979   0.00000  Uiso   1.00
C943   C     0.62718   0.35339   0.77954   0.00000  Uiso   1.00
C944   C     0.37282   0.64659   0.72047   0.00000  Uiso   1.00
C945   C     0.62728   0.64415   0.77571   0.00000  Uiso   1.00
C946   C     0.37274   0.35583   0.72432   0.00000  Uiso   1.00
C947   C     0.66660   0.62390   0.74723   0.00000  Uiso   1.00
C948   C     0.33340   0.37609   0.75278   0.00000  Uiso   1.00
C949   C     0.51919   0.47048   0.77366   0.00000  Uiso   1.00
C950   C     0.48079   0.52952   0.72636   0.00000  Uiso   1.00
C951   C     0.46982   0.47038   0.77426   0.00000  Uiso   1.00
C952   C     0.53010   0.52970   0.72587   0.00000  Uiso   1.00
C953   C     0.63960   0.50095   0.83642   0.00000  Uiso   1.00
C954   C     0.36060   0.49990   0.66330   0.00000  Uiso   1.00
C955   C     0.62472   0.50796   0.88582   0.00000  Uiso   1.00
C956   C     0.37568   0.50092   0.61266   0.00000  Uiso   1.00
C957   C     0.63337   0.54488   0.95126   0.00000  Uiso   1.00
C958   C     0.35774   0.49620   0.53937   0.00000  Uiso   1.00
C959   C     0.65340   0.53102   0.90757   0.00000  Uiso   1.00
C960   C     0.34173   0.49788   0.58647   0.00000  Uiso   1.00
C961   C     0.57753   0.49691   0.91005   0.00000  Uiso   1.00
C962   C     0.42544   0.50375   0.58967   0.00000  Uiso   1.00
C963   C     0.55496   0.51685   0.95116   0.00000  Uiso   1.00
C964   C     0.43975   0.51111   0.54203   0.00000  Uiso   1.00
C965   C     0.58471   0.53812   0.97313   0.00000  Uiso   1.00
C966   C     0.40623   0.50296   0.51700   0.00000  Uiso   1.00
C967   C     0.50415   0.51594   0.97147   0.00000  Uiso   1.00
C968   C     0.48707   0.52424   0.51839   0.00000  Uiso   1.00
Cu969  Cu    0.38022   0.50001   0.75000   0.00000  Uiso   1.00
Cu970  Cu    0.61978   0.49999   0.75000   0.00000  Uiso   1.00
H971   H     0.53312   0.44707   0.79293   0.00000  Uiso   1.00
H972   H     0.46684   0.55295   0.70712   0.00000  Uiso   1.00
N973   N     0.45069   0.50001   0.74999   0.00000  Uiso   1.00
N974   N     0.54931   0.49999   0.75001   0.00000  Uiso   1.00
O975   O     0.37291   0.43989   0.75000   0.00000  Uiso   1.00
O976   O     0.62709   0.56011   0.75000   0.00000  Uiso   1.00
O977   O     0.62706   0.43988   0.75000   0.00000  Uiso   1.00
O978   O     0.37294   0.56012   0.75000   0.00000  Uiso   1.00
O979   O     0.35186   0.50001   0.81492   0.00000  Uiso   1.00
O980   O     0.64814   0.49999   0.68508   0.00000  Uiso   1.00
O981   O     0.60600   0.50000   0.81492   0.00000  Uiso   1.00
O982   O     0.39400   0.50000   0.68508   0.00000  Uiso   1.00
H983   H     0.58778   0.57124   0.53242   0.00000  Uiso   1.00
H984   H     0.39515   0.49746   0.95058   0.00000  Uiso   1.00
O985   O     0.45942   0.49636   0.61378   0.00000  Uiso   1.00
H986   H     0.48859   0.48391   0.59337   0.00000  Uiso   1.00
O987   O     0.55567   0.46528   0.89359   0.00000  Uiso   1.00
H988   H     0.53273   0.45127   0.91952   0.00000  Uiso   1.00
O989   O     0.62633   0.49433   0.60574   0.00000  Uiso   1.00
H990   H     0.61622   0.52018   0.62227   0.00000  Uiso   1.00
O991   O     0.36702   0.54187   0.88686   0.00000  Uiso   1.00
H992   H     0.38430   0.51643   0.87417   0.00000  Uiso   1.00
H993   H     0.65585   0.56205   0.96773   0.00000  Uiso   1.00
H994   H     0.66491   0.49133   0.52013   0.00000  Uiso   1.00
O995   O     0.49994   0.56790   0.57908   0.00000  Uiso   1.00
H996   H     0.46553   0.57505   0.58236   0.00000  Uiso   1.00
O997   O     0.47920   0.51426   0.90010   0.00000  Uiso   1.00
H998   H     0.50583   0.53433   0.88988   0.00000  Uiso   1.00
O999   O     0.58870   0.37112   0.81049   0.00000  Uiso   1.00
H1000  H     0.59878   0.39796   0.81958   0.00000  Uiso   1.00
O1001  O     0.41128   0.62886   0.68949   0.00000  Uiso   1.00
H1002  H     0.40119   0.60203   0.68038   0.00000  Uiso   1.00
H1003  H     0.59734   0.62661   0.79668   0.00000  Uiso   1.00
H1004  H     0.40268   0.37337   0.70336   0.00000  Uiso   1.00
O1005  O     0.44252   0.43944   0.79989   0.00000  Uiso   1.00
H1006  H     0.40892   0.44903   0.80940   0.00000  Uiso   1.00
O1007  O     0.55722   0.56088   0.70053   0.00000  Uiso   1.00
H1008  H     0.59104   0.55187   0.69195   0.00000  Uiso   1.00
C1009  C     0.99985   0.42079   0.75149   0.00000  Uiso   1.00
C1010  C     0.66682   0.57921   0.74851   0.00000  Uiso   1.00
C1011  C     0.85046   0.54744   0.53897   0.00000  Uiso   1.00
C1012  C     0.80254   0.50967   0.94663   0.00000  Uiso   1.00
C1013  C     0.89872   0.55361   0.51628   0.00000  Uiso   1.00
C1014  C     0.75448   0.50273   0.96979   0.00000  Uiso   1.00
C1015  C     0.96052   0.35339   0.77954   0.00000  Uiso   1.00
C1016  C     0.70616   0.64659   0.72047   0.00000  Uiso   1.00
C1017  C     0.96061   0.64415   0.77571   0.00000  Uiso   1.00
C1018  C     0.70607   0.35583   0.72432   0.00000  Uiso   1.00
C1019  C     0.99994   0.62390   0.74723   0.00000  Uiso   1.00
C1020  C     0.66674   0.37609   0.75278   0.00000  Uiso   1.00
C1021  C     0.85252   0.47048   0.77366   0.00000  Uiso   1.00
C1022  C     0.81412   0.52952   0.72636   0.00000  Uiso   1.00
C1023  C     0.80316   0.47038   0.77426   0.00000  Uiso   1.00
C1024  C     0.86343   0.52970   0.72587   0.00000  Uiso   1.00
C1025  C     0.97294   0.50095   0.83642   0.00000  Uiso   1.00
C1026  C     0.69394   0.49990   0.66330   0.00000  Uiso   1.00
C1027  C     0.95805   0.50796   0.88582   0.00000  Uiso   1.00
C1028  C     0.70901   0.50092   0.61266   0.00000  Uiso   1.00
C1029  C     0.96670   0.54488   0.95126   0.00000  Uiso   1.00
C1030  C     0.69107   0.49620   0.53937   0.00000  Uiso   1.00
C1031  C     0.98673   0.53102   0.90757   0.00000  Uiso   1.00
C1032  C     0.67507   0.49788   0.58647   0.00000  Uiso   1.00
C1033  C     0.91087   0.49691   0.91005   0.00000  Uiso   1.00
C1034  C     0.75877   0.50375   0.58967   0.00000  Uiso   1.00
C1035  C     0.88829   0.51685   0.95116   0.00000  Uiso   1.00
C1036  C     0.77309   0.51111   0.54203   0.00000  Uiso   1.00
C1037  C     0.91804   0.53812   0.97313   0.00000  Uiso   1.00
C1038  C     0.73956   0.50296   0.51700   0.00000  Uiso   1.00
C1039  C     0.83748   0.51594   0.97147   0.00000  Uiso   1.00
C1040  C     0.82040   0.52424   0.51839   0.00000  Uiso   1.00
Cu1041 Cu    0.71355   0.50001   0.75000   0.00000  Uiso   1.00
Cu1042 Cu    0.95311   0.49999   0.75000   0.00000  Uiso   1.00
H1043  H     0.86645   0.44707   0.79293   0.00000  Uiso   1.00
H1044  H     0.80017   0.55295   0.70712   0.00000  Uiso   1.00
N1045  N     0.78403   0.50001   0.74999   0.00000  Uiso   1.00
N1046  N     0.88264   0.49999   0.75001   0.00000  Uiso   1.00
O1047  O     0.70625   0.43989   0.75000   0.00000  Uiso   1.00
O1048  O     0.96042   0.56011   0.75000   0.00000  Uiso   1.00
O1049  O     0.96039   0.43988   0.75000   0.00000  Uiso   1.00
O1050  O     0.70628   0.56012   0.75000   0.00000  Uiso   1.00
O1051  O     0.68519   0.50001   0.81492   0.00000  Uiso   1.00
O1052  O     0.98148   0.49999   0.68508   0.00000  Uiso   1.00
O1053  O     0.93933   0.50000   0.81492   0.00000  Uiso   1.00
O1054  O     0.72733   0.50000   0.68508   0.00000  Uiso   1.00
H1055  H     0.92112   0.57124   0.53242   0.00000  Uiso   1.00
H1056  H     0.72848   0.49746   0.95058   0.00000  Uiso   1.00
O1057  O     0.79275   0.49636   0.61378   0.00000  Uiso   1.00
H1058  H     0.82193   0.48391   0.59337   0.00000  Uiso   1.00
O1059  O     0.88900   0.46528   0.89359   0.00000  Uiso   1.00
H1060  H     0.86606   0.45127   0.91952   0.00000  Uiso   1.00
O1061  O     0.95966   0.49433   0.60574   0.00000  Uiso   1.00
H1062  H     0.94955   0.52018   0.62227   0.00000  Uiso   1.00
O1063  O     0.70035   0.54187   0.88686   0.00000  Uiso   1.00
H1064  H     0.71763   0.51643   0.87417   0.00000  Uiso   1.00
H1065  H     0.98919   0.56205   0.96773   0.00000  Uiso   1.00
H1066  H     0.99825   0.49133   0.52013   0.00000  Uiso   1.00
O1067  O     0.83327   0.56790   0.57908   0.00000  Uiso   1.00
H1068  H     0.79886   0.57505   0.58236   0.00000  Uiso   1.00
O1069  O     0.81254   0.51426   0.90010   0.00000  Uiso   1.00
H1070  H     0.83916   0.53433   0.88988   0.00000  Uiso   1.00
O1071  O     0.92204   0.37112   0.81049   0.00000  Uiso   1.00
H1072  H     0.93211   0.39796   0.81958   0.00000  Uiso   1.00
O1073  O     0.74462   0.62886   0.68949   0.00000  Uiso   1.00
H1074  H     0.73453   0.60203   0.68038   0.00000  Uiso   1.00
H1075  H     0.93067   0.62661   0.79668   0.00000  Uiso   1.00
H1076  H     0.73602   0.37337   0.70336   0.00000  Uiso   1.00
O1077  O     0.77585   0.43944   0.79989   0.00000  Uiso   1.00
H1078  H     0.74225   0.44903   0.80940   0.00000  Uiso   1.00
O1079  O     0.89056   0.56088   0.70053   0.00000  Uiso   1.00
H1080  H     0.92437   0.55187   0.69195   0.00000  Uiso   1.00
C1081  C     0.33318   0.75412   0.75149   0.00000  Uiso   1.00
C1082  C     0.00015   0.91254   0.74851   0.00000  Uiso   1.00
C1083  C     0.18379   0.88077   0.53897   0.00000  Uiso   1.00
C1084  C     0.13587   0.84301   0.94663   0.00000  Uiso   1.00
C1085  C     0.23205   0.88694   0.51628   0.00000  Uiso   1.00
C1086  C     0.08782   0.83606   0.96979   0.00000  Uiso   1.00
C1087  C     0.29385   0.68672   0.77954   0.00000  Uiso   1.00
C1088  C     0.03949   0.97993   0.72047   0.00000  Uiso   1.00
C1089  C     0.29394   0.97749   0.77571   0.00000  Uiso   1.00
C1090  C     0.03941   0.68916   0.72432   0.00000  Uiso   1.00
C1091  C     0.33327   0.95723   0.74723   0.00000  Uiso   1.00
C1092  C     0.00007   0.70942   0.75278   0.00000  Uiso   1.00
C1093  C     0.18585   0.80382   0.77366   0.00000  Uiso   1.00
C1094  C     0.14745   0.86285   0.72636   0.00000  Uiso   1.00
C1095  C     0.13649   0.80372   0.77426   0.00000  Uiso   1.00
C1096  C     0.19677   0.86304   0.72587   0.00000  Uiso   1.00
C1097  C     0.30627   0.83428   0.83642   0.00000  Uiso   1.00
C1098  C     0.02727   0.83324   0.66330   0.00000  Uiso   1.00
C1099  C     0.29139   0.84130   0.88582   0.00000  Uiso   1.00
C1100  C     0.04235   0.83426   0.61266   0.00000  Uiso   1.00
C1101  C     0.30003   0.87822   0.95126   0.00000  Uiso   1.00
C1102  C     0.02440   0.82954   0.53937   0.00000  Uiso   1.00
C1103  C     0.32006   0.86436   0.90757   0.00000  Uiso   1.00
C1104  C     0.00840   0.83121   0.58647   0.00000  Uiso   1.00
C1105  C     0.24420   0.83025   0.91005   0.00000  Uiso   1.00
C1106  C     0.09210   0.83708   0.58967   0.00000  Uiso   1.00
C1107  C     0.22163   0.85018   0.95116   0.00000  Uiso   1.00
C1108  C     0.10642   0.84444   0.54203   0.00000  Uiso   1.00
C1109  C     0.25138   0.87146   0.97313   0.00000  Uiso   1.00
C1110  C     0.07289   0.83629   0.51700   0.00000  Uiso   1.00
C1111  C     0.17082   0.84927   0.97147   0.00000  Uiso   1.00
C1112  C     0.15374   0.85757   0.51839   0.00000  Uiso   1.00
Cu1113 Cu    0.04689   0.83334   0.75000   0.00000  Uiso   1.00
Cu1114 Cu    0.28645   0.83333   0.75000   0.00000  Uiso   1.00
H1115  H     0.19979   0.78041   0.79293   0.00000  Uiso   1.00
H1116  H     0.13350   0.88628   0.70712   0.00000  Uiso   1.00
N1117  N     0.11736   0.83334   0.74999   0.00000  Uiso   1.00
N1118  N     0.21597   0.83332   0.75001   0.00000  Uiso   1.00
O1119  O     0.03958   0.77322   0.75000   0.00000  Uiso   1.00
O1120  O     0.29375   0.89345   0.75000   0.00000  Uiso   1.00
O1121  O     0.29372   0.77321   0.75000   0.00000  Uiso   1.00
O1122  O     0.03961   0.89346   0.75000   0.00000  Uiso   1.00
O1123  O     0.01852   0.83334   0.81492   0.00000  Uiso   1.00
O1124  O     0.31481   0.83332   0.68508   0.00000  Uiso   1.00
O1125  O     0.27267   0.83333   0.81492   0.00000  Uiso   1.00
O1126  O     0.06067   0.83333   0.68508   0.00000  Uiso   1.00
H1127  H     0.25445   0.90457   0.53242   0.00000  Uiso   1.00
H1128  H     0.06181   0.83079   0.95058   0.00000  Uiso   1.00
O1129  O     0.12609   0.82969   0.61378   0.00000  Uiso   1.00
H1130  H     0.15526   0.81725   0.59337   0.00000  Uiso   1.00
O1131  O     0.22233   0.79861   0.89359   0.00000  Uiso   1.00
H1132  H     0.19940   0.78460   0.91952   0.00000  Uiso   1.00
O1133  O     0.29299   0.82766   0.60574   0.00000  Uiso   1.00
H1134  H     0.28288   0.85351   0.62227   0.00000  Uiso   1.00
O1135  O     0.03369   0.87521   0.88686   0.00000  Uiso   1.00
H1136  H     0.05096   0.84977   0.87417   0.00000  Uiso   1.00
H1137  H     0.32252   0.89538   0.96773   0.00000  Uiso   1.00
H1138  H     0.33158   0.82466   0.52013   0.00000  Uiso   1.00
O1139  O     0.16660   0.90123   0.57908   0.00000  Uiso   1.00
H1140  H     0.13219   0.90839   0.58236   0.00000  Uiso   1.00
O1141  O     0.14587   0.84759   0.90010   0.00000  Uiso   1.00
H1142  H     0.17249   0.86766   0.88988   0.00000  Uiso   1.00
O1143  O     0.25537   0.70446   0.81049   0.00000  Uiso   1.00
H1144  H     0.26545   0.73129   0.81958   0.00000  Uiso   1.00
O1145  O     0.07795   0.96219   0.68949   0.00000  Uiso   1.00
H1146  H     0.06786   0.93537   0.68038   0.00000  Uiso   1.00
H1147  H     0.26401   0.95994   0.79668   0.00000  Uiso   1.00
H1148  H     0.06935   0.70670   0.70336   0.00000  Uiso   1.00
O1149  O     0.10919   0.77277   0.79989   0.00000  Uiso   1.00
H1150  H     0.07558   0.78236   0.80940   0.00000  Uiso   1.00
O1151  O     0.22389   0.89421   0.70053   0.00000  Uiso   1.00
H1152  H     0.25771   0.88521   0.69195   0.00000  Uiso   1.00
C1153  C     0.66652   0.75412   0.75149   0.00000  Uiso   1.00
C1154  C     0.33348   0.91254   0.74851   0.00000  Uiso   1.00
C1155  C     0.51713   0.88077   0.53897   0.00000  Uiso   1.00
C1156  C     0.46921   0.84301   0.94663   0.00000  Uiso   1.00
C1157  C     0.56539   0.88694   0.51628   0.00000  Uiso   1.00
C1158  C     0.42115   0.83606   0.96979   0.00000  Uiso   1.00
C1159  C     0.62718   0.68672   0.77954   0.00000  Uiso   1.00
C1160  C     0.37282   0.97993   0.72047   0.00000  Uiso   1.00
C1161  C     0.62728   0.97749   0.77571   0.00000  Uiso   1.00
C1162  C     0.37274   0.68916   0.72432   0.00000  Uiso   1.00
C1163  C     0.66660   0.95723   0.74723   0.00000  Uiso   1.00
C1164  C     0.33340   0.70942   0.75278   0.00000  Uiso   1.00
C1165  C     0.51919   0.80382   0.77366   0.00000  Uiso   1.00
C1166  C     0.48079   0.86285   0.72636   0.00000  Uiso   1.00
C1167  C     0.46982   0.80372   0.77426   0.00000  Uiso   1.00
C1168  C     0.53010   0.86304   0.72587   0.00000  Uiso   1.00
C1169  C     0.63960   0.83428   0.83642   0.00000  Uiso   1.00
C1170  C     0.36060   0.83324   0.66330   0.00000  Uiso   1.00
C1171  C     0.62472   0.84130   0.88582   0.00000  Uiso   1.00
C1172  C     0.37568   0.83426   0.61266   0.00000  Uiso   1.00
C1173  C     0.63337   0.87822   0.95126   0.00000  Uiso   1.00
C1174  C     0.35774   0.82954   0.53937   0.00000  Uiso   1.00
C1175  C     0.65340   0.86436   0.90757   0.00000  Uiso   1.00
C1176  C     0.34173   0.83121   0.58647   0.00000  Uiso   1.00
C1177  C     0.57753   0.83025   0.91005   0.00000  Uiso   1.00
C1178  C     0.42544   0.83708   0.58967   0.00000  Uiso   1.00
C1179  C     0.55496   0.85018   0.95116   0.00000  Uiso   1.00
C1180  C     0.43975   0.84444   0.54203   0.00000  Uiso   1.00
C1181  C     0.58471   0.87146   0.97313   0.00000  Uiso   1.00
C1182  C     0.40623   0.83629   0.51700   0.00000  Uiso   1.00
C1183  C     0.50415   0.84927   0.97147   0.00000  Uiso   1.00
C1184  C     0.48707   0.85757   0.51839   0.00000  Uiso   1.00
Cu1185 Cu    0.38022   0.83334   0.75000   0.00000  Uiso   1.00
Cu1186 Cu    0.61978   0.83333   0.75000   0.00000  Uiso   1.00
H1187  H     0.53312   0.78041   0.79293   0.00000  Uiso   1.00
H1188  H     0.46684   0.88628   0.70712   0.00000  Uiso   1.00
N1189  N     0.45069   0.83334   0.74999   0.00000  Uiso   1.00
N1190  N     0.54931   0.83332   0.75001   0.00000  Uiso   1.00
O1191  O     0.37291   0.77322   0.75000   0.00000  Uiso   1.00
O1192  O     0.62709   0.89345   0.75000   0.00000  Uiso   1.00
O1193  O     0.62706   0.77321   0.75000   0.00000  Uiso   1.00
O1194  O     0.37294   0.89346   0.75000   0.00000  Uiso   1.00
O1195  O     0.35186   0.83334   0.81492   0.00000  Uiso   1.00
O1196  O     0.64814   0.83332   0.68508   0.00000  Uiso   1.00
O1197  O     0.60600   0.83333   0.81492   0.00000  Uiso   1.00
O1198  O     0.39400   0.83333   0.68508   0.00000  Uiso   1.00
H1199  H     0.58778   0.90457   0.53242   0.00000  Uiso   1.00
H1200  H     0.39515   0.83079   0.95058   0.00000  Uiso   1.00
O1201  O     0.45942   0.82969   0.61378   0.00000  Uiso   1.00
H1202  H     0.48859   0.81725   0.59337   0.00000  Uiso   1.00
O1203  O     0.55567   0.79861   0.89359   0.00000  Uiso   1.00
H1204  H     0.53273   0.78460   0.91952   0.00000  Uiso   1.00
O1205  O     0.62633   0.82766   0.60574   0.00000  Uiso   1.00
H1206  H     0.61622   0.85351   0.62227   0.00000  Uiso   1.00
O1207  O     0.36702   0.87521   0.88686   0.00000  Uiso   1.00
H1208  H     0.38430   0.84977   0.87417   0.00000  Uiso   1.00
H1209  H     0.65585   0.89538   0.96773   0.00000  Uiso   1.00
H1210  H     0.66491   0.82466   0.52013   0.00000  Uiso   1.00
O1211  O     0.49994   0.90123   0.57908   0.00000  Uiso   1.00
H1212  H     0.46553   0.90839   0.58236   0.00000  Uiso   1.00
O1213  O     0.47920   0.84759   0.90010   0.00000  Uiso   1.00
H1214  H     0.50583   0.86766   0.88988   0.00000  Uiso   1.00
O1215  O     0.58870   0.70446   0.81049   0.00000  Uiso   1.00
H1216  H     0.59878   0.73129   0.81958   0.00000  Uiso   1.00
O1217  O     0.41128   0.96219   0.68949   0.00000  Uiso   1.00
H1218  H     0.40119   0.93537   0.68038   0.00000  Uiso   1.00
H1219  H     0.59734   0.95994   0.79668   0.00000  Uiso   1.00
H1220  H     0.40268   0.70670   0.70336   0.00000  Uiso   1.00
O1221  O     0.44252   0.77277   0.79989   0.00000  Uiso   1.00
H1222  H     0.40892   0.78236   0.80940   0.00000  Uiso   1.00
O1223  O     0.55722   0.89421   0.70053   0.00000  Uiso   1.00
H1224  H     0.59104   0.88521   0.69195   0.00000  Uiso   1.00
C1225  C     0.99985   0.75412   0.75149   0.00000  Uiso   1.00
C1226  C     0.66682   0.91254   0.74851   0.00000  Uiso   1.00
C1227  C     0.85046   0.88077   0.53897   0.00000  Uiso   1.00
C1228  C     0.80254   0.84301   0.94663   0.00000  Uiso   1.00
C1229  C     0.89872   0.88694   0.51628   0.00000  Uiso   1.00
C1230  C     0.75448   0.83606   0.96979   0.00000  Uiso   1.00
C1231  C     0.96052   0.68672   0.77954   0.00000  Uiso   1.00
C1232  C     0.70616   0.97993   0.72047   0.00000  Uiso   1.00
C1233  C     0.96061   0.97749   0.77571   0.00000  Uiso   1.00
C1234  C     0.70607   0.68916   0.72432   0.00000  Uiso   1.00
C1235  C     0.99994   0.95723   0.74723   0.00000  Uiso   1.00
C1236  C     0.66674   0.70942   0.75278   0.00000  Uiso   1.00
C1237  C     0.85252   0.80382   0.77366   0.00000  Uiso   1.00
C1238  C     0.81412   0.86285   0.72636   0.00000  Uiso   1.00
C1239  C     0.80316   0.80372   0.77426   0.00000  Uiso   1.00
C1240  C     0.86343   0.86304   0.72587   0.00000  Uiso   1.00
C1241  C     0.97294   0.83428   0.83642   0.00000  Uiso   1.00
C1242  C     0.69394   0.83324   0.66330   0.00000  Uiso   1.00
C1243  C     0.95805   0.84130   0.88582   0.00000  Uiso   1.00
C1244  C     0.70901   0.83426   0.61266   0.00000  Uiso   1.00
C1245  C     0.96670   0.87822   0.95126   0.00000  Uiso   1.00
C1246  C     0.69107   0.82954   0.53937   0.00000  Uiso   1.00
C1247  C     0.98673   0.86436   0.90757   0.00000  Uiso   1.00
C1248  C     0.67507   0.83121   0.58647   0.00000  Uiso   1.00
C1249  C     0.91087   0.83025   0.91005   0.00000  Uiso   1.00
C1250  C     0.75877   0.83708   0.58967   0.00000  Uiso   1.00
C1251  C     0.88829   0.85018   0.95116   0.00000  Uiso   1.00
C1252  C     0.77309   0.84444   0.54203   0.00000  Uiso   1.00
C1253  C     0.91804   0.87146   0.97313   0.00000  Uiso   1.00
C1254  C     0.73956   0.83629   0.51700   0.00000  Uiso   1.00
C1255  C     0.83748   0.84927   0.97147   0.00000  Uiso   1.00
C1256  C     0.82040   0.85757   0.51839   0.00000  Uiso   1.00
Cu1257 Cu    0.71355   0.83334   0.75000   0.00000  Uiso   1.00
Cu1258 Cu    0.95311   0.83333   0.75000   0.00000  Uiso   1.00
H1259  H     0.86645   0.78041   0.79293   0.00000  Uiso   1.00
H1260  H     0.80017   0.88628   0.70712   0.00000  Uiso   1.00
N1261  N     0.78403   0.83334   0.74999   0.00000  Uiso   1.00
N1262  N     0.88264   0.83332   0.75001   0.00000  Uiso   1.00
O1263  O     0.70625   0.77322   0.75000   0.00000  Uiso   1.00
O1264  O     0.96042   0.89345   0.75000   0.00000  Uiso   1.00
O1265  O     0.96039   0.77321   0.75000   0.00000  Uiso   1.00
O1266  O     0.70628   0.89346   0.75000   0.00000  Uiso   1.00
O1267  O     0.68519   0.83334   0.81492   0.00000  Uiso   1.00
O1268  O     0.98148   0.83332   0.68508   0.00000  Uiso   1.00
O1269  O     0.93933   0.83333   0.81492   0.00000  Uiso   1.00
O1270  O     0.72733   0.83333   0.68508   0.00000  Uiso   1.00
H1271  H     0.92112   0.90457   0.53242   0.00000  Uiso   1.00
H1272  H     0.72848   0.83079   0.95058   0.00000  Uiso   1.00
O1273  O     0.79275   0.82969   0.61378   0.00000  Uiso   1.00
H1274  H     0.82193   0.81725   0.59337   0.00000  Uiso   1.00
O1275  O     0.88900   0.79861   0.89359   0.00000  Uiso   1.00
H1276  H     0.86606   0.78460   0.91952   0.00000  Uiso   1.00
O1277  O     0.95966   0.82766   0.60574   0.00000  Uiso   1.00
H1278  H     0.94955   0.85351   0.62227   0.00000  Uiso   1.00
O1279  O     0.70035   0.87521   0.88686   0.00000  Uiso   1.00
H1280  H     0.71763   0.84977   0.87417   0.00000  Uiso   1.00
H1281  H     0.98919   0.89538   0.96773   0.00000  Uiso   1.00
H1282  H     0.99825   0.82466   0.52013   0.00000  Uiso   1.00
O1283  O     0.83327   0.90123   0.57908   0.00000  Uiso   1.00
H1284  H     0.79886   0.90839   0.58236   0.00000  Uiso   1.00
O1285  O     0.81254   0.84759   0.90010   0.00000  Uiso   1.00
H1286  H     0.83916   0.86766   0.88988   0.00000  Uiso   1.00
O1287  O     0.92204   0.70446   0.81049   0.00000  Uiso   1.00
H1288  H     0.93211   0.73129   0.81958   0.00000  Uiso   1.00
O1289  O     0.74462   0.96219   0.68949   0.00000  Uiso   1.00
H1290  H     0.73453   0.93537   0.68038   0.00000  Uiso   1.00
H1291  H     0.93067   0.95994   0.79668   0.00000  Uiso   1.00
H1292  H     0.73602   0.70670   0.70336   0.00000  Uiso   1.00
O1293  O     0.77585   0.77277   0.79989   0.00000  Uiso   1.00
H1294  H     0.74225   0.78236   0.80940   0.00000  Uiso   1.00
O1295  O     0.89056   0.89421   0.70053   0.00000  Uiso   1.00
H1296  H     0.92437   0.88521   0.69195   0.00000  Uiso   1.00
loop_
_geom_bond_atom_site_label_1
_geom_bond_atom_site_label_2
_geom_bond_distance
_geom_bond_site_symmetry_2
_ccdc_geom_bond_type
C1     O41     1.293   .     A
C1     C84     1.446   .     S
C1     O111    1.295   .     S
C2     O42     1.292   .     A
C2     C155    1.446   1_455 S
C2     O184    1.295   1_455 S
C3     C32     1.427   .     A
C3     C5      1.391   .     A
C3     O59     1.380   .     S
C4     C31     1.428   .     A
C4     C6      1.393   .     A
C4     O61     1.379   .     S
C5     H47     1.085   .     S
C5     C677    1.394   1_554 S
C6     H48     1.082   .     S
C6     C678    1.394   .     S
C7     O63     1.381   .     S
C7     C441    1.386   1_545 S
C7     C84     1.414   .     S
C8     O65     1.381   .     S
C8     C226    1.386   .     S
C8     C155    1.414   1_455 S
C9     H67     1.085   .     S
C9     C11     1.398   .     A
C9     C223    1.386   .     S
C10    H68     1.085   .     S
C10    C12     1.398   .     A
C10    C440    1.386   1_545 S
C11    C80     1.414   .     S
C11    C74     1.446   .     S
C12    C151    1.414   1_455 S
C12    C145    1.446   1_455 S
C13    N38     1.356   .     A
C13    H35     1.082   .     S
C13    C15     1.412   .     A
C14    N37     1.356   .     A
C14    H36     1.082   .     S
C14    C16     1.411   .     A
C15    O69     1.374   .     S
C15    N37     1.389   .     A
C16    O71     1.374   .     S
C16    N38     1.390   .     A
C17    C19     1.481   .     S
C17    O45     1.303   .     A
C17    O115    1.301   .     S
C18    O46     1.303   .     A
C18    C20     1.494   .     S
C18    O188    1.308   1_455 S
C19    C23     1.418   .     A
C19    C25     1.408   .     A
C20    C26     1.419   .     A
C20    C24     1.420   .     A
C21    H57     1.085   .     S
C21    C23     1.393   .     A
C21    C29     1.398   .     A
C22    C24     1.394   .     A
C22    C30     1.397   .     A
C22    H202    1.084   1_455 S
C23    O127    1.376   .     S
C24    O197    1.373   1_455 S
C25    C27     1.422   .     A
C25    O51     1.382   .     S
C26    C28     1.420   .     A
C26    O49     1.383   .     S
C27    C29     1.414   .     A
C27    C31     1.427   .     A
C28    C32     1.425   .     A
C28    C30     1.410   .     A
C29    C653    1.394   .     S
C30    C654    1.394   1_554 S
C31    C680    1.421   .     S
C32    C679    1.421   1_554 S
Cu33   O46     1.919   .     S
Cu33   O39     1.961   .     S
Cu33   O42     1.954   .     S
Cu33   N37     2.022   .     S
Cu33   O43     1.937   .     S
Cu33   Cu178   2.691   1_455 S
Cu34   O41     1.954   .     S
Cu34   O45     1.919   .     S
Cu34   O44     1.937   .     S
Cu34   N38     2.022   .     S
Cu34   O40     1.961   .     S
Cu34   Cu105   2.691   .     S
O39    C145    1.295   1_455 S
O40    C74     1.295   .     S
O43    C161    1.301   1_455 S
O44    C90     1.308   .     S
O49    H50     0.991   .     S
O51    H52     0.991   .     S
O53    H54     0.990   .     S
O53    C96     1.373   .     S
O55    H56     0.990   .     S
O55    C167    1.376   1_455 S
H58    C94     1.084   .     S
O59    H60     0.991   .     S
O61    H62     0.991   .     S
O63    H64     0.990   .     S
O65    H66     0.990   .     S
O69    H70     0.980   .     S
O71    H72     0.979   .     S
C73    O113    1.293   .     A
C73    C156    1.446   .     S
C73    O183    1.295   .     S
C74    O114    1.292   .     A
C75    C104    1.427   .     A
C75    C77     1.391   .     A
C75    O131    1.380   .     S
C76    C103    1.428   .     A
C76    C78     1.393   .     A
C76    O133    1.379   .     S
C77    H119    1.085   .     S
C77    C749    1.394   1_554 S
C78    H120    1.082   .     S
C78    C750    1.394   .     S
C79    O135    1.381   .     S
C79    C513    1.386   1_545 S
C79    C156    1.414   .     S
C80    O137    1.381   .     S
C80    C298    1.386   .     S
C81    H139    1.085   .     S
C81    C83     1.398   .     A
C81    C295    1.386   .     S
C82    H140    1.085   .     S
C82    C84     1.398   .     A
C82    C512    1.386   1_545 S
C83    C152    1.414   .     S
C83    C146    1.446   .     S
C85    N110    1.356   .     A
C85    H107    1.082   .     S
C85    C87     1.412   .     A
C86    N109    1.356   .     A
C86    H108    1.082   .     S
C86    C88     1.411   .     A
C87    O141    1.374   .     S
C87    N109    1.389   .     A
C88    O143    1.374   .     S
C88    N110    1.390   .     A
C89    C91     1.481   .     S
C89    O117    1.303   .     A
C89    O187    1.301   .     S
C90    O118    1.303   .     A
C90    C92     1.494   .     S
C91    C95     1.418   .     A
C91    C97     1.408   .     A
C92    C98     1.419   .     A
C92    C96     1.420   .     A
C93    H129    1.085   .     S
C93    C95     1.393   .     A
C93    C101    1.398   .     A
C94    C96     1.394   .     A
C94    C102    1.397   .     A
C95    O199    1.376   .     S
C97    C99     1.422   .     A
C97    O123    1.382   .     S
C98    C100    1.420   .     A
C98    O121    1.383   .     S
C99    C101    1.414   .     A
C99    C103    1.427   .     A
C100   C104    1.425   .     A
C100   C102    1.410   .     A
C101   C725    1.394   .     S
C102   C726    1.394   1_554 S
C103   C752    1.421   .     S
C104   C751    1.421   1_554 S
Cu105  O118    1.919   .     S
Cu105  O111    1.961   .     S
Cu105  O114    1.954   .     S
Cu105  N109    2.022   .     S
Cu105  O115    1.937   .     S
Cu106  O113    1.954   .     S
Cu106  O117    1.919   .     S
Cu106  O116    1.937   .     S
Cu106  N110    2.022   .     S
Cu106  O112    1.961   .     S
Cu106  Cu177   2.691   .     S
O112   C146    1.295   .     S
O116   C162    1.308   .     S
O121   H122    0.991   .     S
O123   H124    0.991   .     S
O125   H126    0.990   .     S
O125   C168    1.373   .     S
O127   H128    0.990   .     S
H130   C166    1.084   .     S
O131   H132    0.991   .     S
O133   H134    0.991   .     S
O135   H136    0.990   .     S
O137   H138    0.990   .     S
O141   H142    0.980   .     S
O143   H144    0.979   .     S
C145   O185    1.293   .     A
C145   C12     1.446   1_655 S
C145   O39     1.295   1_655 S
C146   O186    1.292   .     A
C147   C176    1.427   .     A
C147   C149    1.391   .     A
C147   O203    1.380   .     S
C148   C175    1.428   .     A
C148   C150    1.393   .     A
C148   O205    1.379   .     S
C149   H191    1.085   .     S
C149   C821    1.394   1_554 S
C150   H192    1.082   .     S
C150   C822    1.394   .     S
C151   O207    1.381   .     S
C151   C585    1.386   1_545 S
C151   C12     1.414   1_655 S
C152   O209    1.381   .     S
C152   C370    1.386   .     S
C153   H211    1.085   .     S
C153   C155    1.398   .     A
C153   C367    1.386   .     S
C154   H212    1.085   .     S
C154   C156    1.398   .     A
C154   C584    1.386   1_545 S
C155   C8      1.414   1_655 S
C155   C2      1.446   1_655 S
C157   N182    1.356   .     A
C157   H179    1.082   .     S
C157   C159    1.412   .     A
C158   N181    1.356   .     A
C158   H180    1.082   .     S
C158   C160    1.411   .     A
C159   O213    1.374   .     S
C159   N181    1.389   .     A
C160   O215    1.374   .     S
C160   N182    1.390   .     A
C161   C163    1.481   .     S
C161   O189    1.303   .     A
C161   O43     1.301   1_655 S
C162   O190    1.303   .     A
C162   C164    1.494   .     S
C163   C167    1.418   .     A
C163   C169    1.408   .     A
C164   C170    1.419   .     A
C164   C168    1.420   .     A
C165   H201    1.085   .     S
C165   C167    1.393   .     A
C165   C173    1.398   .     A
C166   C168    1.394   .     A
C166   C174    1.397   .     A
C167   O55     1.376   1_655 S
C169   C171    1.422   .     A
C169   O195    1.382   .     S
C170   C172    1.420   .     A
C170   O193    1.383   .     S
C171   C173    1.414   .     A
C171   C175    1.427   .     A
C172   C176    1.425   .     A
C172   C174    1.410   .     A
C173   C797    1.394   .     S
C174   C798    1.394   1_554 S
C175   C824    1.421   .     S
C176   C823    1.421   1_554 S
Cu177  O190    1.919   .     S
Cu177  O183    1.961   .     S
Cu177  O186    1.954   .     S
Cu177  N181    2.022   .     S
Cu177  O187    1.937   .     S
Cu178  O185    1.954   .     S
Cu178  O189    1.919   .     S
Cu178  O188    1.937   .     S
Cu178  N182    2.022   .     S
Cu178  O184    1.961   .     S
Cu178  Cu33    2.691   1_655 S
O184   C2      1.295   1_655 S
O188   C18     1.308   1_655 S
O193   H194    0.991   .     S
O195   H196    0.991   .     S
O197   H198    0.990   .     S
O197   C24     1.373   1_655 S
O199   H200    0.990   .     S
H202   C22     1.084   1_655 S
O203   H204    0.991   .     S
O205   H206    0.991   .     S
O207   H208    0.990   .     S
O209   H210    0.990   .     S
O213   H214    0.980   .     S
O215   H216    0.979   .     S
C217   O257    1.293   .     A
C217   C300    1.446   .     S
C217   O327    1.295   .     S
C218   O258    1.292   .     A
C218   C371    1.446   1_455 S
C218   O400    1.295   1_455 S
C219   C248    1.427   .     A
C219   C221    1.391   .     A
C219   O275    1.380   .     S
C220   C247    1.428   .     A
C220   C222    1.393   .     A
C220   O277    1.379   .     S
C221   H263    1.085   .     S
C221   C893    1.394   1_554 S
C222   H264    1.082   .     S
C222   C894    1.394   .     S
C223   O279    1.381   .     S
C223   C300    1.414   .     S
C224   O281    1.381   .     S
C224   C442    1.386   .     S
C224   C371    1.414   1_455 S
C225   H283    1.085   .     S
C225   C227    1.398   .     A
C225   C439    1.386   .     S
C226   H284    1.085   .     S
C226   C228    1.398   .     A
C227   C296    1.414   .     S
C227   C290    1.446   .     S
C228   C367    1.414   1_455 S
C228   C361    1.446   1_455 S
C229   N254    1.356   .     A
C229   H251    1.082   .     S
C229   C231    1.412   .     A
C230   N253    1.356   .     A
C230   H252    1.082   .     S
C230   C232    1.411   .     A
C231   O285    1.374   .     S
C231   N253    1.389   .     A
C232   O287    1.374   .     S
C232   N254    1.390   .     A
C233   C235    1.481   .     S
C233   O261    1.303   .     A
C233   O331    1.301   .     S
C234   O262    1.303   .     A
C234   C236    1.494   .     S
C234   O404    1.308   1_455 S
C235   C239    1.418   .     A
C235   C241    1.408   .     A
C236   C242    1.419   .     A
C236   C240    1.420   .     A
C237   H273    1.085   .     S
C237   C239    1.393   .     A
C237   C245    1.398   .     A
C238   C240    1.394   .     A
C238   C246    1.397   .     A
C238   H418    1.084   1_455 S
C239   O343    1.376   .     S
C240   O413    1.373   1_455 S
C241   C243    1.422   .     A
C241   O267    1.382   .     S
C242   C244    1.420   .     A
C242   O265    1.383   .     S
C243   C245    1.414   .     A
C243   C247    1.427   .     A
C244   C248    1.425   .     A
C244   C246    1.410   .     A
C245   C869    1.394   .     S
C246   C870    1.394   1_554 S
C247   C896    1.421   .     S
C248   C895    1.421   1_554 S
Cu249  O262    1.919   .     S
Cu249  O255    1.961   .     S
Cu249  O258    1.954   .     S
Cu249  N253    2.022   .     S
Cu249  O259    1.937   .     S
Cu249  Cu394   2.691   1_455 S
Cu250  O257    1.954   .     S
Cu250  O261    1.919   .     S
Cu250  O260    1.937   .     S
Cu250  N254    2.022   .     S
Cu250  O256    1.961   .     S
Cu250  Cu321   2.691   .     S
O255   C361    1.295   1_455 S
O256   C290    1.295   .     S
O259   C377    1.301   1_455 S
O260   C306    1.308   .     S
O265   H266    0.991   .     S
O267   H268    0.991   .     S
O269   H270    0.990   .     S
O269   C312    1.373   .     S
O271   H272    0.990   .     S
O271   C383    1.376   1_455 S
H274   C310    1.084   .     S
O275   H276    0.991   .     S
O277   H278    0.991   .     S
O279   H280    0.990   .     S
O281   H282    0.990   .     S
O285   H286    0.980   .     S
O287   H288    0.979   .     S
C289   O329    1.293   .     A
C289   C372    1.446   .     S
C289   O399    1.295   .     S
C290   O330    1.292   .     A
C291   C320    1.427   .     A
C291   C293    1.391   .     A
C291   O347    1.380   .     S
C292   C319    1.428   .     A
C292   C294    1.393   .     A
C292   O349    1.379   .     S
C293   H335    1.085   .     S
C293   C965    1.394   1_554 S
C294   H336    1.082   .     S
C294   C966    1.394   .     S
C295   O351    1.381   .     S
C295   C372    1.414   .     S
C296   O353    1.381   .     S
C296   C514    1.386   .     S
C297   H355    1.085   .     S
C297   C299    1.398   .     A
C297   C511    1.386   .     S
C298   H356    1.085   .     S
C298   C300    1.398   .     A
C299   C368    1.414   .     S
C299   C362    1.446   .     S
C301   N326    1.356   .     A
C301   H323    1.082   .     S
C301   C303    1.412   .     A
C302   N325    1.356   .     A
C302   H324    1.082   .     S
C302   C304    1.411   .     A
C303   O357    1.374   .     S
C303   N325    1.389   .     A
C304   O359    1.374   .     S
C304   N326    1.390   .     A
C305   C307    1.481   .     S
C305   O333    1.303   .     A
C305   O403    1.301   .     S
C306   O334    1.303   .     A
C306   C308    1.494   .     S
C307   C311    1.418   .     A
C307   C313    1.408   .     A
C308   C314    1.419   .     A
C308   C312    1.420   .     A
C309   H345    1.085   .     S
C309   C311    1.393   .     A
C309   C317    1.398   .     A
C310   C312    1.394   .     A
C310   C318    1.397   .     A
C311   O415    1.376   .     S
C313   C315    1.422   .     A
C313   O339    1.382   .     S
C314   C316    1.420   .     A
C314   O337    1.383   .     S
C315   C317    1.414   .     A
C315   C319    1.427   .     A
C316   C320    1.425   .     A
C316   C318    1.410   .     A
C317   C941    1.394   .     S
C318   C942    1.394   1_554 S
C319   C968    1.421   .     S
C320   C967    1.421   1_554 S
Cu321  O334    1.919   .     S
Cu321  O327    1.961   .     S
Cu321  O330    1.954   .     S
Cu321  N325    2.022   .     S
Cu321  O331    1.937   .     S
Cu322  O329    1.954   .     S
Cu322  O333    1.919   .     S
Cu322  O332    1.937   .     S
Cu322  N326    2.022   .     S
Cu322  O328    1.961   .     S
Cu322  Cu393   2.691   .     S
O328   C362    1.295   .     S
O332   C378    1.308   .     S
O337   H338    0.991   .     S
O339   H340    0.991   .     S
O341   H342    0.990   .     S
O341   C384    1.373   .     S
O343   H344    0.990   .     S
H346   C382    1.084   .     S
O347   H348    0.991   .     S
O349   H350    0.991   .     S
O351   H352    0.990   .     S
O353   H354    0.990   .     S
O357   H358    0.980   .     S
O359   H360    0.979   .     S
C361   O401    1.293   .     A
C361   C228    1.446   1_655 S
C361   O255    1.295   1_655 S
C362   O402    1.292   .     A
C363   C392    1.427   .     A
C363   C365    1.391   .     A
C363   O419    1.380   .     S
C364   C391    1.428   .     A
C364   C366    1.393   .     A
C364   O421    1.379   .     S
C365   H407    1.085   .     S
C365   C1037   1.394   1_554 S
C366   H408    1.082   .     S
C366   C1038   1.394   .     S
C367   O423    1.381   .     S
C367   C228    1.414   1_655 S
C368   O425    1.381   .     S
C368   C586    1.386   .     S
C369   H427    1.085   .     S
C369   C371    1.398   .     A
C369   C583    1.386   .     S
C370   H428    1.085   .     S
C370   C372    1.398   .     A
C371   C224    1.414   1_655 S
C371   C218    1.446   1_655 S
C373   N398    1.356   .     A
C373   H395    1.082   .     S
C373   C375    1.412   .     A
C374   N397    1.356   .     A
C374   H396    1.082   .     S
C374   C376    1.411   .     A
C375   O429    1.374   .     S
C375   N397    1.389   .     A
C376   O431    1.374   .     S
C376   N398    1.390   .     A
C377   C379    1.481   .     S
C377   O405    1.303   .     A
C377   O259    1.301   1_655 S
C378   O406    1.303   .     A
C378   C380    1.494   .     S
C379   C383    1.418   .     A
C379   C385    1.408   .     A
C380   C386    1.419   .     A
C380   C384    1.420   .     A
C381   H417    1.085   .     S
C381   C383    1.393   .     A
C381   C389    1.398   .     A
C382   C384    1.394   .     A
C382   C390    1.397   .     A
C383   O271    1.376   1_655 S
C385   C387    1.422   .     A
C385   O411    1.382   .     S
C386   C388    1.420   .     A
C386   O409    1.383   .     S
C387   C389    1.414   .     A
C387   C391    1.427   .     A
C388   C392    1.425   .     A
C388   C390    1.410   .     A
C389   C1013   1.394   .     S
C390   C1014   1.394   1_554 S
C391   C1040   1.421   .     S
C392   C1039   1.421   1_554 S
Cu393  O406    1.919   .     S
Cu393  O399    1.961   .     S
Cu393  O402    1.954   .     S
Cu393  N397    2.022   .     S
Cu393  O403    1.937   .     S
Cu394  O401    1.954   .     S
Cu394  O405    1.919   .     S
Cu394  O404    1.937   .     S
Cu394  N398    2.022   .     S
Cu394  O400    1.961   .     S
Cu394  Cu249   2.691   1_655 S
O400   C218    1.295   1_655 S
O404   C234    1.308   1_655 S
O409   H410    0.991   .     S
O411   H412    0.991   .     S
O413   H414    0.990   .     S
O413   C240    1.373   1_655 S
O415   H416    0.990   .     S
H418   C238    1.084   1_655 S
O419   H420    0.991   .     S
O421   H422    0.991   .     S
O423   H424    0.990   .     S
O425   H426    0.990   .     S
O429   H430    0.980   .     S
O431   H432    0.979   .     S
C433   O473    1.293   .     A
C433   C516    1.446   .     S
C433   O543    1.295   .     S
C434   O474    1.292   .     A
C434   C587    1.446   1_455 S
C434   O616    1.295   1_455 S
C435   C464    1.427   .     A
C435   C437    1.391   .     A
C435   O491    1.380   .     S
C436   C463    1.428   .     A
C436   C438    1.393   .     A
C436   O493    1.379   .     S
C437   H479    1.085   .     S
C437   C1109   1.394   1_554 S
C438   H480    1.082   .     S
C438   C1110   1.394   .     S
C439   O495    1.381   .     S
C439   C516    1.414   .     S
C440   O497    1.381   .     S
C440   C10     1.386   1_565 S
C440   C587    1.414   1_455 S
C441   H499    1.085   .     S
C441   C443    1.398   .     A
C441   C7      1.386   1_565 S
C442   H500    1.085   .     S
C442   C444    1.398   .     A
C443   C512    1.414   .     S
C443   C506    1.446   .     S
C444   C583    1.414   1_455 S
C444   C577    1.446   1_455 S
C445   N470    1.356   .     A
C445   H467    1.082   .     S
C445   C447    1.412   .     A
C446   N469    1.356   .     A
C446   H468    1.082   .     S
C446   C448    1.411   .     A
C447   O501    1.374   .     S
C447   N469    1.389   .     A
C448   O503    1.374   .     S
C448   N470    1.390   .     A
C449   C451    1.481   .     S
C449   O477    1.303   .     A
C449   O547    1.301   .     S
C450   O478    1.303   .     A
C450   C452    1.494   .     S
C450   O620    1.308   1_455 S
C451   C455    1.418   .     A
C451   C457    1.408   .     A
C452   C458    1.419   .     A
C452   C456    1.420   .     A
C453   H489    1.085   .     S
C453   C455    1.393   .     A
C453   C461    1.398   .     A
C454   C456    1.394   .     A
C454   C462    1.397   .     A
C454   H634    1.084   1_455 S
C455   O559    1.376   .     S
C456   O629    1.373   1_455 S
C457   C459    1.422   .     A
C457   O483    1.382   .     S
C458   C460    1.420   .     A
C458   O481    1.383   .     S
C459   C461    1.414   .     A
C459   C463    1.427   .     A
C460   C464    1.425   .     A
C460   C462    1.410   .     A
C461   C1085   1.394   .     S
C462   C1086   1.394   1_554 S
C463   C1112   1.421   .     S
C464   C1111   1.421   1_554 S
Cu465  O478    1.919   .     S
Cu465  O471    1.961   .     S
Cu465  O474    1.954   .     S
Cu465  N469    2.022   .     S
Cu465  O475    1.937   .     S
Cu465  Cu610   2.691   1_455 S
Cu466  O473    1.954   .     S
Cu466  O477    1.919   .     S
Cu466  O476    1.937   .     S
Cu466  N470    2.022   .     S
Cu466  O472    1.961   .     S
Cu466  Cu537   2.691   .     S
O471   C577    1.295   1_455 S
O472   C506    1.295   .     S
O475   C593    1.301   1_455 S
O476   C522    1.308   .     S
O481   H482    0.991   .     S
O483   H484    0.991   .     S
O485   H486    0.990   .     S
O485   C528    1.373   .     S
O487   H488    0.990   .     S
O487   C599    1.376   1_455 S
H490   C526    1.084   .     S
O491   H492    0.991   .     S
O493   H494    0.991   .     S
O495   H496    0.990   .     S
O497   H498    0.990   .     S
O501   H502    0.980   .     S
O503   H504    0.979   .     S
C505   O545    1.293   .     A
C505   C588    1.446   .     S
C505   O615    1.295   .     S
C506   O546    1.292   .     A
C507   C536    1.427   .     A
C507   C509    1.391   .     A
C507   O563    1.380   .     S
C508   C535    1.428   .     A
C508   C510    1.393   .     A
C508   O565    1.379   .     S
C509   H551    1.085   .     S
C509   C1181   1.394   1_554 S
C510   H552    1.082   .     S
C510   C1182   1.394   .     S
C511   O567    1.381   .     S
C511   C588    1.414   .     S
C512   O569    1.381   .     S
C512   C82     1.386   1_565 S
C513   H571    1.085   .     S
C513   C515    1.398   .     A
C513   C79     1.386   1_565 S
C514   H572    1.085   .     S
C514   C516    1.398   .     A
C515   C584    1.414   .     S
C515   C578    1.446   .     S
C517   N542    1.356   .     A
C517   H539    1.082   .     S
C517   C519    1.412   .     A
C518   N541    1.356   .     A
C518   H540    1.082   .     S
C518   C520    1.411   .     A
C519   O573    1.374   .     S
C519   N541    1.389   .     A
C520   O575    1.374   .     S
C520   N542    1.390   .     A
C521   C523    1.481   .     S
C521   O549    1.303   .     A
C521   O619    1.301   .     S
C522   O550    1.303   .     A
C522   C524    1.494   .     S
C523   C527    1.418   .     A
C523   C529    1.408   .     A
C524   C530    1.419   .     A
C524   C528    1.420   .     A
C525   H561    1.085   .     S
C525   C527    1.393   .     A
C525   C533    1.398   .     A
C526   C528    1.394   .     A
C526   C534    1.397   .     A
C527   O631    1.376   .     S
C529   C531    1.422   .     A
C529   O555    1.382   .     S
C530   C532    1.420   .     A
C530   O553    1.383   .     S
C531   C533    1.414   .     A
C531   C535    1.427   .     A
C532   C536    1.425   .     A
C532   C534    1.410   .     A
C533   C1157   1.394   .     S
C534   C1158   1.394   1_554 S
C535   C1184   1.421   .     S
C536   C1183   1.421   1_554 S
Cu537  O550    1.919   .     S
Cu537  O543    1.961   .     S
Cu537  O546    1.954   .     S
Cu537  N541    2.022   .     S
Cu537  O547    1.937   .     S
Cu538  O545    1.954   .     S
Cu538  O549    1.919   .     S
Cu538  O548    1.937   .     S
Cu538  N542    2.022   .     S
Cu538  O544    1.961   .     S
Cu538  Cu609   2.691   .     S
O544   C578    1.295   .     S
O548   C594    1.308   .     S
O553   H554    0.991   .     S
O555   H556    0.991   .     S
O557   H558    0.990   .     S
O557   C600    1.373   .     S
O559   H560    0.990   .     S
H562   C598    1.084   .     S
O563   H564    0.991   .     S
O565   H566    0.991   .     S
O567   H568    0.990   .     S
O569   H570    0.990   .     S
O573   H574    0.980   .     S
O575   H576    0.979   .     S
C577   O617    1.293   .     A
C577   C444    1.446   1_655 S
C577   O471    1.295   1_655 S
C578   O618    1.292   .     A
C579   C608    1.427   .     A
C579   C581    1.391   .     A
C579   O635    1.380   .     S
C580   C607    1.428   .     A
C580   C582    1.393   .     A
C580   O637    1.379   .     S
C581   H623    1.085   .     S
C581   C1253   1.394   1_554 S
C582   H624    1.082   .     S
C582   C1254   1.394   .     S
C583   O639    1.381   .     S
C583   C444    1.414   1_655 S
C584   O641    1.381   .     S
C584   C154    1.386   1_565 S
C585   H643    1.085   .     S
C585   C587    1.398   .     A
C585   C151    1.386   1_565 S
C586   H644    1.085   .     S
C586   C588    1.398   .     A
C587   C440    1.414   1_655 S
C587   C434    1.446   1_655 S
C589   N614    1.356   .     A
C589   H611    1.082   .     S
C589   C591    1.412   .     A
C590   N613    1.356   .     A
C590   H612    1.082   .     S
C590   C592    1.411   .     A
C591   O645    1.374   .     S
C591   N613    1.389   .     A
C592   O647    1.374   .     S
C592   N614    1.390   .     A
C593   C595    1.481   .     S
C593   O621    1.303   .     A
C593   O475    1.301   1_655 S
C594   O622    1.303   .     A
C594   C596    1.494   .     S
C595   C599    1.418   .     A
C595   C601    1.408   .     A
C596   C602    1.419   .     A
C596   C600    1.420   .     A
C597   H633    1.085   .     S
C597   C599    1.393   .     A
C597   C605    1.398   .     A
C598   C600    1.394   .     A
C598   C606    1.397   .     A
C599   O487    1.376   1_655 S
C601   C603    1.422   .     A
C601   O627    1.382   .     S
C602   C604    1.420   .     A
C602   O625    1.383   .     S
C603   C605    1.414   .     A
C603   C607    1.427   .     A
C604   C608    1.425   .     A
C604   C606    1.410   .     A
C605   C1229   1.394   .     S
C606   C1230   1.394   1_554 S
C607   C1256   1.421   .     S
C608   C1255   1.421   1_554 S
Cu609  O622    1.919   .     S
Cu609  O615    1.961   .     S
Cu609  O618    1.954   .     S
Cu609  N613    2.022   .     S
Cu609  O619    1.937   .     S
Cu610  O617    1.954   .     S
Cu610  O621    1.919   .     S
Cu610  O620    1.937   .     S
Cu610  N614    2.022   .     S
Cu610  O616    1.961   .     S
Cu610  Cu465   2.691   1_655 S
O616   C434    1.295   1_655 S
O620   C450    1.308   1_655 S
O625   H626    0.991   .     S
O627   H628    0.991   .     S
O629   H630    0.990   .     S
O629   C456    1.373   1_655 S
O631   H632    0.990   .     S
H634   C454    1.084   1_655 S
O635   H636    0.991   .     S
O637   H638    0.991   .     S
O639   H640    0.990   .     S
O641   H642    0.990   .     S
O645   H646    0.980   .     S
O647   H648    0.979   .     S
C649   O689    1.293   .     A
C649   C732    1.446   .     S
C649   O759    1.295   .     S
C650   O690    1.292   .     A
C650   C803    1.446   1_455 S
C650   O832    1.295   1_455 S
C651   C680    1.427   .     A
C651   C653    1.391   .     A
C651   O707    1.380   .     S
C652   C679    1.428   .     A
C652   C654    1.393   .     A
C652   O709    1.379   .     S
C653   H695    1.085   .     S
C654   H696    1.082   .     S
C654   C30     1.394   1_556 S
C655   O711    1.381   .     S
C655   C1089   1.386   1_545 S
C655   C732    1.414   .     S
C656   O713    1.381   .     S
C656   C874    1.386   .     S
C656   C803    1.414   1_455 S
C657   H715    1.085   .     S
C657   C659    1.398   .     A
C657   C871    1.386   .     S
C658   H716    1.085   .     S
C658   C660    1.398   .     A
C658   C1088   1.386   1_545 S
C659   C728    1.414   .     S
C659   C722    1.446   .     S
C660   C799    1.414   1_455 S
C660   C793    1.446   1_455 S
C661   N686    1.356   .     A
C661   H683    1.082   .     S
C661   C663    1.412   .     A
C662   N685    1.356   .     A
C662   H684    1.082   .     S
C662   C664    1.411   .     A
C663   O717    1.374   .     S
C663   N685    1.389   .     A
C664   O719    1.374   .     S
C664   N686    1.390   .     A
C665   C667    1.481   .     S
C665   O693    1.303   .     A
C665   O763    1.301   .     S
C666   O694    1.303   .     A
C666   C668    1.494   .     S
C666   O836    1.308   1_455 S
C667   C671    1.418   .     A
C667   C673    1.408   .     A
C668   C674    1.419   .     A
C668   C672    1.420   .     A
C669   H705    1.085   .     S
C669   C671    1.393   .     A
C669   C677    1.398   .     A
C670   C672    1.394   .     A
C670   C678    1.397   .     A
C670   H850    1.084   1_455 S
C671   O775    1.376   .     S
C672   O845    1.373   1_455 S
C673   C675    1.422   .     A
C673   O699    1.382   .     S
C674   C676    1.420   .     A
C674   O697    1.383   .     S
C675   C677    1.414   .     A
C675   C679    1.427   .     A
C676   C680    1.425   .     A
C676   C678    1.410   .     A
C677   C5      1.394   1_556 S
C679   C32     1.421   1_556 S
Cu681  O694    1.919   .     S
Cu681  O687    1.961   .     S
Cu681  O690    1.954   .     S
Cu681  N685    2.022   .     S
Cu681  O691    1.937   .     S
Cu681  Cu826   2.691   1_455 S
Cu682  O689    1.954   .     S
Cu682  O693    1.919   .     S
Cu682  O692    1.937   .     S
Cu682  N686    2.022   .     S
Cu682  O688    1.961   .     S
Cu682  Cu753   2.691   .     S
O687   C793    1.295   1_455 S
O688   C722    1.295   .     S
O691   C809    1.301   1_455 S
O692   C738    1.308   .     S
O697   H698    0.991   .     S
O699   H700    0.991   .     S
O701   H702    0.990   .     S
O701   C744    1.373   .     S
O703   H704    0.990   .     S
O703   C815    1.376   1_455 S
H706   C742    1.084   .     S
O707   H708    0.991   .     S
O709   H710    0.991   .     S
O711   H712    0.990   .     S
O713   H714    0.990   .     S
O717   H718    0.980   .     S
O719   H720    0.979   .     S
C721   O761    1.293   .     A
C721   C804    1.446   .     S
C721   O831    1.295   .     S
C722   O762    1.292   .     A
C723   C752    1.427   .     A
C723   C725    1.391   .     A
C723   O779    1.380   .     S
C724   C751    1.428   .     A
C724   C726    1.393   .     A
C724   O781    1.379   .     S
C725   H767    1.085   .     S
C726   H768    1.082   .     S
C726   C102    1.394   1_556 S
C727   O783    1.381   .     S
C727   C1161   1.386   1_545 S
C727   C804    1.414   .     S
C728   O785    1.381   .     S
C728   C946    1.386   .     S
C729   H787    1.085   .     S
C729   C731    1.398   .     A
C729   C943    1.386   .     S
C730   H788    1.085   .     S
C730   C732    1.398   .     A
C730   C1160   1.386   1_545 S
C731   C800    1.414   .     S
C731   C794    1.446   .     S
C733   N758    1.356   .     A
C733   H755    1.082   .     S
C733   C735    1.412   .     A
C734   N757    1.356   .     A
C734   H756    1.082   .     S
C734   C736    1.411   .     A
C735   O789    1.374   .     S
C735   N757    1.389   .     A
C736   O791    1.374   .     S
C736   N758    1.390   .     A
C737   C739    1.481   .     S
C737   O765    1.303   .     A
C737   O835    1.301   .     S
C738   O766    1.303   .     A
C738   C740    1.494   .     S
C739   C743    1.418   .     A
C739   C745    1.408   .     A
C740   C746    1.419   .     A
C740   C744    1.420   .     A
C741   H777    1.085   .     S
C741   C743    1.393   .     A
C741   C749    1.398   .     A
C742   C744    1.394   .     A
C742   C750    1.397   .     A
C743   O847    1.376   .     S
C745   C747    1.422   .     A
C745   O771    1.382   .     S
C746   C748    1.420   .     A
C746   O769    1.383   .     S
C747   C749    1.414   .     A
C747   C751    1.427   .     A
C748   C752    1.425   .     A
C748   C750    1.410   .     A
C749   C77     1.394   1_556 S
C751   C104    1.421   1_556 S
Cu753  O766    1.919   .     S
Cu753  O759    1.961   .     S
Cu753  O762    1.954   .     S
Cu753  N757    2.022   .     S
Cu753  O763    1.937   .     S
Cu754  O761    1.954   .     S
Cu754  O765    1.919   .     S
Cu754  O764    1.937   .     S
Cu754  N758    2.022   .     S
Cu754  O760    1.961   .     S
Cu754  Cu825   2.691   .     S
O760   C794    1.295   .     S
O764   C810    1.308   .     S
O769   H770    0.991   .     S
O771   H772    0.991   .     S
O773   H774    0.990   .     S
O773   C816    1.373   .     S
O775   H776    0.990   .     S
H778   C814    1.084   .     S
O779   H780    0.991   .     S
O781   H782    0.991   .     S
O783   H784    0.990   .     S
O785   H786    0.990   .     S
O789   H790    0.980   .     S
O791   H792    0.979   .     S
C793   O833    1.293   .     A
C793   C660    1.446   1_655 S
C793   O687    1.295   1_655 S
C794   O834    1.292   .     A
C795   C824    1.427   .     A
C795   C797    1.391   .     A
C795   O851    1.380   .     S
C796   C823    1.428   .     A
C796   C798    1.393   .     A
C796   O853    1.379   .     S
C797   H839    1.085   .     S
C798   H840    1.082   .     S
C798   C174    1.394   1_556 S
C799   O855    1.381   .     S
C799   C1233   1.386   1_545 S
C799   C660    1.414   1_655 S
C800   O857    1.381   .     S
C800   C1018   1.386   .     S
C801   H859    1.085   .     S
C801   C803    1.398   .     A
C801   C1015   1.386   .     S
C802   H860    1.085   .     S
C802   C804    1.398   .     A
C802   C1232   1.386   1_545 S
C803   C656    1.414   1_655 S
C803   C650    1.446   1_655 S
C805   N830    1.356   .     A
C805   H827    1.082   .     S
C805   C807    1.412   .     A
C806   N829    1.356   .     A
C806   H828    1.082   .     S
C806   C808    1.411   .     A
C807   O861    1.374   .     S
C807   N829    1.389   .     A
C808   O863    1.374   .     S
C808   N830    1.390   .     A
C809   C811    1.481   .     S
C809   O837    1.303   .     A
C809   O691    1.301   1_655 S
C810   O838    1.303   .     A
C810   C812    1.494   .     S
C811   C815    1.418   .     A
C811   C817    1.408   .     A
C812   C818    1.419   .     A
C812   C816    1.420   .     A
C813   H849    1.085   .     S
C813   C815    1.393   .     A
C813   C821    1.398   .     A
C814   C816    1.394   .     A
C814   C822    1.397   .     A
C815   O703    1.376   1_655 S
C817   C819    1.422   .     A
C817   O843    1.382   .     S
C818   C820    1.420   .     A
C818   O841    1.383   .     S
C819   C821    1.414   .     A
C819   C823    1.427   .     A
C820   C824    1.425   .     A
C820   C822    1.410   .     A
C821   C149    1.394   1_556 S
C823   C176    1.421   1_556 S
Cu825  O838    1.919   .     S
Cu825  O831    1.961   .     S
Cu825  O834    1.954   .     S
Cu825  N829    2.022   .     S
Cu825  O835    1.937   .     S
Cu826  O833    1.954   .     S
Cu826  O837    1.919   .     S
Cu826  O836    1.937   .     S
Cu826  N830    2.022   .     S
Cu826  O832    1.961   .     S
Cu826  Cu681   2.691   1_655 S
O832   C650    1.295   1_655 S
O836   C666    1.308   1_655 S
O841   H842    0.991   .     S
O843   H844    0.991   .     S
O845   H846    0.990   .     S
O845   C672    1.373   1_655 S
O847   H848    0.990   .     S
H850   C670    1.084   1_655 S
O851   H852    0.991   .     S
O853   H854    0.991   .     S
O855   H856    0.990   .     S
O857   H858    0.990   .     S
O861   H862    0.980   .     S
O863   H864    0.979   .     S
C865   O905    1.293   .     A
C865   C948    1.446   .     S
C865   O975    1.295   .     S
C866   O906    1.292   .     A
C866   C1019   1.446   1_455 S
C866   O1048   1.295   1_455 S
C867   C896    1.427   .     A
C867   C869    1.391   .     A
C867   O923    1.380   .     S
C868   C895    1.428   .     A
C868   C870    1.393   .     A
C868   O925    1.379   .     S
C869   H911    1.085   .     S
C870   H912    1.082   .     S
C870   C246    1.394   1_556 S
C871   O927    1.381   .     S
C871   C948    1.414   .     S
C872   O929    1.381   .     S
C872   C1090   1.386   .     S
C872   C1019   1.414   1_455 S
C873   H931    1.085   .     S
C873   C875    1.398   .     A
C873   C1087   1.386   .     S
C874   H932    1.085   .     S
C874   C876    1.398   .     A
C875   C944    1.414   .     S
C875   C938    1.446   .     S
C876   C1015   1.414   1_455 S
C876   C1009   1.446   1_455 S
C877   N902    1.356   .     A
C877   H899    1.082   .     S
C877   C879    1.412   .     A
C878   N901    1.356   .     A
C878   H900    1.082   .     S
C878   C880    1.411   .     A
C879   O933    1.374   .     S
C879   N901    1.389   .     A
C880   O935    1.374   .     S
C880   N902    1.390   .     A
C881   C883    1.481   .     S
C881   O909    1.303   .     A
C881   O979    1.301   .     S
C882   O910    1.303   .     A
C882   C884    1.494   .     S
C882   O1052   1.308   1_455 S
C883   C887    1.418   .     A
C883   C889    1.408   .     A
C884   C890    1.419   .     A
C884   C888    1.420   .     A
C885   H921    1.085   .     S
C885   C887    1.393   .     A
C885   C893    1.398   .     A
C886   C888    1.394   .     A
C886   C894    1.397   .     A
C886   H1066   1.084   1_455 S
C887   O991    1.376   .     S
C888   O1061   1.373   1_455 S
C889   C891    1.422   .     A
C889   O915    1.382   .     S
C890   C892    1.420   .     A
C890   O913    1.383   .     S
C891   C893    1.414   .     A
C891   C895    1.427   .     A
C892   C896    1.425   .     A
C892   C894    1.410   .     A
C893   C221    1.394   1_556 S
C895   C248    1.421   1_556 S
Cu897  O910    1.919   .     S
Cu897  O903    1.961   .     S
Cu897  O906    1.954   .     S
Cu897  N901    2.022   .     S
Cu897  O907    1.937   .     S
Cu897  Cu1042  2.691   1_455 S
Cu898  O905    1.954   .     S
Cu898  O909    1.919   .     S
Cu898  O908    1.937   .     S
Cu898  N902    2.022   .     S
Cu898  O904    1.961   .     S
Cu898  Cu969   2.691   .     S
O903   C1009   1.295   1_455 S
O904   C938    1.295   .     S
O907   C1025   1.301   1_455 S
O908   C954    1.308   .     S
O913   H914    0.991   .     S
O915   H916    0.991   .     S
O917   H918    0.990   .     S
O917   C960    1.373   .     S
O919   H920    0.990   .     S
O919   C1031   1.376   1_455 S
H922   C958    1.084   .     S
O923   H924    0.991   .     S
O925   H926    0.991   .     S
O927   H928    0.990   .     S
O929   H930    0.990   .     S
O933   H934    0.980   .     S
O935   H936    0.979   .     S
C937   O977    1.293   .     A
C937   C1020   1.446   .     S
C937   O1047   1.295   .     S
C938   O978    1.292   .     A
C939   C968    1.427   .     A
C939   C941    1.391   .     A
C939   O995    1.380   .     S
C940   C967    1.428   .     A
C940   C942    1.393   .     A
C940   O997    1.379   .     S
C941   H983    1.085   .     S
C942   H984    1.082   .     S
C942   C318    1.394   1_556 S
C943   O999    1.381   .     S
C943   C1020   1.414   .     S
C944   O1001   1.381   .     S
C944   C1162   1.386   .     S
C945   H1003   1.085   .     S
C945   C947    1.398   .     A
C945   C1159   1.386   .     S
C946   H1004   1.085   .     S
C946   C948    1.398   .     A
C947   C1016   1.414   .     S
C947   C1010   1.446   .     S
C949   N974    1.356   .     A
C949   H971    1.082   .     S
C949   C951    1.412   .     A
C950   N973    1.356   .     A
C950   H972    1.082   .     S
C950   C952    1.411   .     A
C951   O1005   1.374   .     S
C951   N973    1.389   .     A
C952   O1007   1.374   .     S
C952   N974    1.390   .     A
C953   C955    1.481   .     S
C953   O981    1.303   .     A
C953   O1051   1.301   .     S
C954   O982    1.303   .     A
C954   C956    1.494   .     S
C955   C959    1.418   .     A
C955   C961    1.408   .     A
C956   C962    1.419   .     A
C956   C960    1.420   .     A
C957   H993    1.085   .     S
C957   C959    1.393   .     A
C957   C965    1.398   .     A
C958   C960    1.394   .     A
C958   C966    1.397   .     A
C959   O1063   1.376   .     S
C961   C963    1.422   .     A
C961   O987    1.382   .     S
C962   C964    1.420   .     A
C962   O985    1.383   .     S
C963   C965    1.414   .     A
C963   C967    1.427   .     A
C964   C968    1.425   .     A
C964   C966    1.410   .     A
C965   C293    1.394   1_556 S
C967   C320    1.421   1_556 S
Cu969  O982    1.919   .     S
Cu969  O975    1.961   .     S
Cu969  O978    1.954   .     S
Cu969  N973    2.022   .     S
Cu969  O979    1.937   .     S
Cu970  O977    1.954   .     S
Cu970  O981    1.919   .     S
Cu970  O980    1.937   .     S
Cu970  N974    2.022   .     S
Cu970  O976    1.961   .     S
Cu970  Cu1041  2.691   .     S
O976   C1010   1.295   .     S
O980   C1026   1.308   .     S
O985   H986    0.991   .     S
O987   H988    0.991   .     S
O989   H990    0.990   .     S
O989   C1032   1.373   .     S
O991   H992    0.990   .     S
H994   C1030   1.084   .     S
O995   H996    0.991   .     S
O997   H998    0.991   .     S
O999   H1000   0.990   .     S
O1001  H1002   0.990   .     S
O1005  H1006   0.980   .     S
O1007  H1008   0.979   .     S
C1009  O1049   1.293   .     A
C1009  C876    1.446   1_655 S
C1009  O903    1.295   1_655 S
C1010  O1050   1.292   .     A
C1011  C1040   1.427   .     A
C1011  C1013   1.391   .     A
C1011  O1067   1.380   .     S
C1012  C1039   1.428   .     A
C1012  C1014   1.393   .     A
C1012  O1069   1.379   .     S
C1013  H1055   1.085   .     S
C1014  H1056   1.082   .     S
C1014  C390    1.394   1_556 S
C1015  O1071   1.381   .     S
C1015  C876    1.414   1_655 S
C1016  O1073   1.381   .     S
C1016  C1234   1.386   .     S
C1017  H1075   1.085   .     S
C1017  C1019   1.398   .     A
C1017  C1231   1.386   .     S
C1018  H1076   1.085   .     S
C1018  C1020   1.398   .     A
C1019  C872    1.414   1_655 S
C1019  C866    1.446   1_655 S
C1021  N1046   1.356   .     A
C1021  H1043   1.082   .     S
C1021  C1023   1.412   .     A
C1022  N1045   1.356   .     A
C1022  H1044   1.082   .     S
C1022  C1024   1.411   .     A
C1023  O1077   1.374   .     S
C1023  N1045   1.389   .     A
C1024  O1079   1.374   .     S
C1024  N1046   1.390   .     A
C1025  C1027   1.481   .     S
C1025  O1053   1.303   .     A
C1025  O907    1.301   1_655 S
C1026  O1054   1.303   .     A
C1026  C1028   1.494   .     S
C1027  C1031   1.418   .     A
C1027  C1033   1.408   .     A
C1028  C1034   1.419   .     A
C1028  C1032   1.420   .     A
C1029  H1065   1.085   .     S
C1029  C1031   1.393   .     A
C1029  C1037   1.398   .     A
C1030  C1032   1.394   .     A
C1030  C1038   1.397   .     A
C1031  O919    1.376   1_655 S
C1033  C1035   1.422   .     A
C1033  O1059   1.382   .     S
C1034  C1036   1.420   .     A
C1034  O1057   1.383   .     S
C1035  C1037   1.414   .     A
C1035  C1039   1.427   .     A
C1036  C1040   1.425   .     A
C1036  C1038   1.410   .     A
C1037  C365    1.394   1_556 S
C1039  C392    1.421   1_556 S
Cu1041 O1054   1.919   .     S
Cu1041 O1047   1.961   .     S
Cu1041 O1050   1.954   .     S
Cu1041 N1045   2.022   .     S
Cu1041 O1051   1.937   .     S
Cu1042 O1049   1.954   .     S
Cu1042 O1053   1.919   .     S
Cu1042 O1052   1.937   .     S
Cu1042 N1046   2.022   .     S
Cu1042 O1048   1.961   .     S
Cu1042 Cu897   2.691   1_655 S
O1048  C866    1.295   1_655 S
O1052  C882    1.308   1_655 S
O1057  H1058   0.991   .     S
O1059  H1060   0.991   .     S
O1061  H1062   0.990   .     S
O1061  C888    1.373   1_655 S
O1063  H1064   0.990   .     S
H1066  C886    1.084   1_655 S
O1067  H1068   0.991   .     S
O1069  H1070   0.991   .     S
O1071  H1072   0.990   .     S
O1073  H1074   0.990   .     S
O1077  H1078   0.980   .     S
O1079  H1080   0.979   .     S
C1081  O1121   1.293   .     A
C1081  C1164   1.446   .     S
C1081  O1191   1.295   .     S
C1082  O1122   1.292   .     A
C1082  C1235   1.446   1_455 S
C1082  O1264   1.295   1_455 S
C1083  C1112   1.427   .     A
C1083  C1085   1.391   .     A
C1083  O1139   1.380   .     S
C1084  C1111   1.428   .     A
C1084  C1086   1.393   .     A
C1084  O1141   1.379   .     S
C1085  H1127   1.085   .     S
C1086  H1128   1.082   .     S
C1086  C462    1.394   1_556 S
C1087  O1143   1.381   .     S
C1087  C1164   1.414   .     S
C1088  O1145   1.381   .     S
C1088  C658    1.386   1_565 S
C1088  C1235   1.414   1_455 S
C1089  H1147   1.085   .     S
C1089  C1091   1.398   .     A
C1089  C655    1.386   1_565 S
C1090  H1148   1.085   .     S
C1090  C1092   1.398   .     A
C1091  C1160   1.414   .     S
C1091  C1154   1.446   .     S
C1092  C1231   1.414   1_455 S
C1092  C1225   1.446   1_455 S
C1093  N1118   1.356   .     A
C1093  H1115   1.082   .     S
C1093  C1095   1.412   .     A
C1094  N1117   1.356   .     A
C1094  H1116   1.082   .     S
C1094  C1096   1.411   .     A
C1095  O1149   1.374   .     S
C1095  N1117   1.389   .     A
C1096  O1151   1.374   .     S
C1096  N1118   1.390   .     A
C1097  C1099   1.481   .     S
C1097  O1125   1.303   .     A
C1097  O1195   1.301   .     S
C1098  O1126   1.303   .     A
C1098  C1100   1.494   .     S
C1098  O1268   1.308   1_455 S
C1099  C1103   1.418   .     A
C1099  C1105   1.408   .     A
C1100  C1106   1.419   .     A
C1100  C1104   1.420   .     A
C1101  H1137   1.085   .     S
C1101  C1103   1.393   .     A
C1101  C1109   1.398   .     A
C1102  C1104   1.394   .     A
C1102  C1110   1.397   .     A
C1102  H1282   1.084   1_455 S
C1103  O1207   1.376   .     S
C1104  O1277   1.373   1_455 S
C1105  C1107   1.422   .     A
C1105  O1131   1.382   .     S
C1106  C1108   1.420   .     A
C1106  O1129   1.383   .     S
C1107  C1109   1.414   .     A
C1107  C1111   1.427   .     A
C1108  C1112   1.425   .     A
C1108  C1110   1.410   .     A
C1109  C437    1.394   1_556 S
C1111  C464    1.421   1_556 S
Cu1113 O1126   1.919   .     S
Cu1113 O1119   1.961   .     S
Cu1113 O1122   1.954   .     S
Cu1113 N1117   2.022   .     S
Cu1113 O1123   1.937   .     S
Cu1113 Cu1258  2.691   1_455 S
Cu1114 O1121   1.954   .     S
Cu1114 O1125   1.919   .     S
Cu1114 O1124   1.937   .     S
Cu1114 N1118   2.022   .     S
Cu1114 O1120   1.961   .     S
Cu1114 Cu1185  2.691   .     S
O1119  C1225   1.295   1_455 S
O1120  C1154   1.295   .     S
O1123  C1241   1.301   1_455 S
O1124  C1170   1.308   .     S
O1129  H1130   0.991   .     S
O1131  H1132   0.991   .     S
O1133  H1134   0.990   .     S
O1133  C1176   1.373   .     S
O1135  H1136   0.990   .     S
O1135  C1247   1.376   1_455 S
H1138  C1174   1.084   .     S
O1139  H1140   0.991   .     S
O1141  H1142   0.991   .     S
O1143  H1144   0.990   .     S
O1145  H1146   0.990   .     S
O1149  H1150   0.980   .     S
O1151  H1152   0.979   .     S
C1153  O1193   1.293   .     A
C1153  C1236   1.446   .     S
C1153  O1263   1.295   .     S
C1154  O1194   1.292   .     A
C1155  C1184   1.427   .     A
C1155  C1157   1.391   .     A
C1155  O1211   1.380   .     S
C1156  C1183   1.428   .     A
C1156  C1158   1.393   .     A
C1156  O1213   1.379   .     S
C1157  H1199   1.085   .     S
C1158  H1200   1.082   .     S
C1158  C534    1.394   1_556 S
C1159  O1215   1.381   .     S
C1159  C1236   1.414   .     S
C1160  O1217   1.381   .     S
C1160  C730    1.386   1_565 S
C1161  H1219   1.085   .     S
C1161  C1163   1.398   .     A
C1161  C727    1.386   1_565 S
C1162  H1220   1.085   .     S
C1162  C1164   1.398   .     A
C1163  C1232   1.414   .     S
C1163  C1226   1.446   .     S
C1165  N1190   1.356   .     A
C1165  H1187   1.082   .     S
C1165  C1167   1.412   .     A
C1166  N1189   1.356   .     A
C1166  H1188   1.082   .     S
C1166  C1168   1.411   .     A
C1167  O1221   1.374   .     S
C1167  N1189   1.389   .     A
C1168  O1223   1.374   .     S
C1168  N1190   1.390   .     A
C1169  C1171   1.481   .     S
C1169  O1197   1.303   .     A
C1169  O1267   1.301   .     S
C1170  O1198   1.303   .     A
C1170  C1172   1.494   .     S
C1171  C1175   1.418   .     A
C1171  C1177   1.408   .     A
C1172  C1178   1.419   .     A
C1172  C1176   1.420   .     A
C1173  H1209   1.085   .     S
C1173  C1175   1.393   .     A
C1173  C1181   1.398   .     A
C1174  C1176   1.394   .     A
C1174  C1182   1.397   .     A
C1175  O1279   1.376   .     S
C1177  C1179   1.422   .     A
C1177  O1203   1.382   .     S
C1178  C1180   1.420   .     A
C1178  O1201   1.383   .     S
C1179  C1181   1.414   .     A
C1179  C1183   1.427   .     A
C1180  C1184   1.425   .     A
C1180  C1182   1.410   .     A
C1181  C509    1.394   1_556 S
C1183  C536    1.421   1_556 S
Cu1185 O1198   1.919   .     S
Cu1185 O1191   1.961   .     S
Cu1185 O1194   1.954   .     S
Cu1185 N1189   2.022   .     S
Cu1185 O1195   1.937   .     S
Cu1186 O1193   1.954   .     S
Cu1186 O1197   1.919   .     S
Cu1186 O1196   1.937   .     S
Cu1186 N1190   2.022   .     S
Cu1186 O1192   1.961   .     S
Cu1186 Cu1257  2.691   .     S
O1192  C1226   1.295   .     S
O1196  C1242   1.308   .     S
O1201  H1202   0.991   .     S
O1203  H1204   0.991   .     S
O1205  H1206   0.990   .     S
O1205  C1248   1.373   .     S
O1207  H1208   0.990   .     S
H1210  C1246   1.084   .     S
O1211  H1212   0.991   .     S
O1213  H1214   0.991   .     S
O1215  H1216   0.990   .     S
O1217  H1218   0.990   .     S
O1221  H1222   0.980   .     S
O1223  H1224   0.979   .     S
C1225  O1265   1.293   .     A
C1225  C1092   1.446   1_655 S
C1225  O1119   1.295   1_655 S
C1226  O1266   1.292   .     A
C1227  C1256   1.427   .     A
C1227  C1229   1.391   .     A
C1227  O1283   1.380   .     S
C1228  C1255   1.428   .     A
C1228  C1230   1.393   .     A
C1228  O1285   1.379   .     S
C1229  H1271   1.085   .     S
C1230  H1272   1.082   .     S
C1230  C606    1.394   1_556 S
C1231  O1287   1.381   .     S
C1231  C1092   1.414   1_655 S
C1232  O1289   1.381   .     S
C1232  C802    1.386   1_565 S
C1233  H1291   1.085   .     S
C1233  C1235   1.398   .     A
C1233  C799    1.386   1_565 S
C1234  H1292   1.085   .     S
C1234  C1236   1.398   .     A
C1235  C1088   1.414   1_655 S
C1235  C1082   1.446   1_655 S
C1237  N1262   1.356   .     A
C1237  H1259   1.082   .     S
C1237  C1239   1.412   .     A
C1238  N1261   1.356   .     A
C1238  H1260   1.082   .     S
C1238  C1240   1.411   .     A
C1239  O1293   1.374   .     S
C1239  N1261   1.389   .     A
C1240  O1295   1.374   .     S
C1240  N1262   1.390   .     A
C1241  C1243   1.481   .     S
C1241  O1269   1.303   .     A
C1241  O1123   1.301   1_655 S
C1242  O1270   1.303   .     A
C1242  C1244   1.494   .     S
C1243  C1247   1.418   .     A
C1243  C1249   1.408   .     A
C1244  C1250   1.419   .     A
C1244  C1248   1.420   .     A
C1245  H1281   1.085   .     S
C1245  C1247   1.393   .     A
C1245  C1253   1.398   .     A
C1246  C1248   1.394   .     A
C1246  C1254   1.397   .     A
C1247  O1135   1.376   1_655 S
C1249  C1251   1.422   .     A
C1249  O1275   1.382   .     S
C1250  C1252   1.420   .     A
C1250  O1273   1.383   .     S
C1251  C1253   1.414   .     A
C1251  C1255   1.427   .     A
C1252  C1256   1.425   .     A
C1252  C1254   1.410   .     A
C1253  C581    1.394   1_556 S
C1255  C608    1.421   1_556 S
Cu1257 O1270   1.919   .     S
Cu1257 O1263   1.961   .     S
Cu1257 O1266   1.954   .     S
Cu1257 N1261   2.022   .     S
Cu1257 O1267   1.937   .     S
Cu1258 O1265   1.954   .     S
Cu1258 O1269   1.919   .     S
Cu1258 O1268   1.937   .     S
Cu1258 N1262   2.022   .     S
Cu1258 O1264   1.961   .     S
Cu1258 Cu1113  2.691   1_655 S
O1264  C1082   1.295   1_655 S
O1268  C1098   1.308   1_655 S
O1273  H1274   0.991   .     S
O1275  H1276   0.991   .     S
O1277  H1278   0.990   .     S
O1277  C1104   1.373   1_655 S
O1279  H1280   0.990   .     S
H1282  C1102   1.084   1_655 S
O1283  H1284   0.991   .     S
O1285  H1286   0.991   .     S
O1287  H1288   0.990   .     S
O1289  H1290   0.990   .     S
O1293  H1294   0.980   .     S
O1295  H1296   0.979   .     S
