data_str_m2_o1_o5_pcu_sym.68
_audit_creation_date              2020-01-03
_audit_creation_method            'Materials Studio'
_symmetry_space_group_name_H-M    'P1'
_symmetry_Int_Tables_number       1
_symmetry_cell_setting            triclinic
loop_
_symmetry_equiv_pos_as_xyz
  x,y,z
_cell_length_a                    32.7472
_cell_length_b                    28.7733
_cell_length_c                    27.1888
_cell_angle_alpha                 89.9991
_cell_angle_beta                  92.1384
_cell_angle_gamma                 90.0011
loop_
_atom_site_label
_atom_site_type_symbol
_atom_site_fract_x
_atom_site_fract_y
_atom_site_fract_z
_atom_site_U_iso_or_equiv
_atom_site_adp_type
_atom_site_occupancy
O1     O     0.10655   0.20625   0.16666   0.00000  Uiso   1.00
O2     O     0.22679   0.12709   0.16667   0.00000  Uiso   1.00
O3     O     0.22679   0.20625   0.16667   0.00000  Uiso   1.00
O4     O     0.10655   0.12709   0.16666   0.00000  Uiso   1.00
C5     C     0.08755   0.16667   0.17018   0.00000  Uiso   1.00
C6     C     0.24578   0.16667   0.16316   0.00000  Uiso   1.00
O7     O     0.16667   0.20625   0.09613   0.00000  Uiso   1.00
O8     O     0.16667   0.12708   0.23720   0.00000  Uiso   1.00
O9     O     0.16667   0.20625   0.23720   0.00000  Uiso   1.00
O10    O     0.16667   0.12708   0.09613   0.00000  Uiso   1.00
C11    C     0.16656   0.16667   0.07361   0.00000  Uiso   1.00
C12    C     0.16677   0.16667   0.25973   0.00000  Uiso   1.00
Cu13   Cu    0.16667   0.21355   0.16667   0.00000  Uiso   1.00
Cu14   Cu    0.16667   0.11978   0.16667   0.00000  Uiso   1.00
C15    C     0.16663   0.16667   0.02187   0.00000  Uiso   1.00
C16    C     0.16670   0.16667   0.31147   0.00000  Uiso   1.00
C17    C     0.02095   0.12422   0.17188   0.00000  Uiso   1.00
C18    C     0.31238   0.20912   0.16146   0.00000  Uiso   1.00
C19    C     0.31238   0.12422   0.16145   0.00000  Uiso   1.00
C20    C     0.02096   0.20911   0.17189   0.00000  Uiso   1.00
C21    C     0.29058   0.16667   0.16023   0.00000  Uiso   1.00
C22    C     0.04275   0.16667   0.17310   0.00000  Uiso   1.00
C23    C     0.14695   0.02469   0.12956   0.00000  Uiso   1.00
C24    C     0.18638   0.30864   0.20378   0.00000  Uiso   1.00
C25    C     0.18638   0.02469   0.20378   0.00000  Uiso   1.00
C26    C     0.14695   0.30864   0.12956   0.00000  Uiso   1.00
N27    N     0.16667   0.28402   0.16667   0.00000  Uiso   1.00
N28    N     0.16667   0.04931   0.16667   0.00000  Uiso   1.00
Cl29   Cl    0.04377   0.07033   0.18918   0.00000  Uiso   1.00
Cl30   Cl    0.28956   0.26301   0.14415   0.00000  Uiso   1.00
Cl31   Cl    0.28956   0.07033   0.14413   0.00000  Uiso   1.00
Cl32   Cl    0.04377   0.26300   0.18921   0.00000  Uiso   1.00
N33    N     0.12618   0.04842   0.08977   0.00000  Uiso   1.00
O34    O     0.08789   0.05931   0.09318   0.00000  Uiso   1.00
O35    O     0.14209   0.04867   0.04664   0.00000  Uiso   1.00
N36    N     0.20715   0.28492   0.24356   0.00000  Uiso   1.00
O37    O     0.24543   0.27401   0.24015   0.00000  Uiso   1.00
O38    O     0.19124   0.28467   0.28670   0.00000  Uiso   1.00
N39    N     0.20716   0.04842   0.24355   0.00000  Uiso   1.00
O40    O     0.19125   0.04870   0.28668   0.00000  Uiso   1.00
O41    O     0.24547   0.05924   0.24015   0.00000  Uiso   1.00
N42    N     0.12617   0.28492   0.08978   0.00000  Uiso   1.00
O43    O     0.14209   0.28464   0.04665   0.00000  Uiso   1.00
O44    O     0.08787   0.27407   0.09319   0.00000  Uiso   1.00
O45    O     0.43988   0.20625   0.16666   0.00000  Uiso   1.00
O46    O     0.56012   0.12709   0.16667   0.00000  Uiso   1.00
O47    O     0.56012   0.20625   0.16667   0.00000  Uiso   1.00
O48    O     0.43988   0.12709   0.16666   0.00000  Uiso   1.00
C49    C     0.42089   0.16667   0.17018   0.00000  Uiso   1.00
C50    C     0.57911   0.16667   0.16316   0.00000  Uiso   1.00
O51    O     0.50000   0.20625   0.09613   0.00000  Uiso   1.00
O52    O     0.50000   0.12708   0.23720   0.00000  Uiso   1.00
O53    O     0.50000   0.20625   0.23720   0.00000  Uiso   1.00
O54    O     0.50000   0.12708   0.09613   0.00000  Uiso   1.00
C55    C     0.49989   0.16667   0.07361   0.00000  Uiso   1.00
C56    C     0.50011   0.16667   0.25973   0.00000  Uiso   1.00
Cu57   Cu    0.50000   0.21355   0.16667   0.00000  Uiso   1.00
Cu58   Cu    0.50000   0.11978   0.16667   0.00000  Uiso   1.00
C59    C     0.49996   0.16667   0.02187   0.00000  Uiso   1.00
C60    C     0.50004   0.16667   0.31147   0.00000  Uiso   1.00
C61    C     0.35429   0.12422   0.17188   0.00000  Uiso   1.00
C62    C     0.64571   0.20912   0.16146   0.00000  Uiso   1.00
C63    C     0.64571   0.12422   0.16145   0.00000  Uiso   1.00
C64    C     0.35429   0.20911   0.17189   0.00000  Uiso   1.00
C65    C     0.62391   0.16667   0.16023   0.00000  Uiso   1.00
C66    C     0.37609   0.16667   0.17310   0.00000  Uiso   1.00
C67    C     0.48029   0.02469   0.12956   0.00000  Uiso   1.00
C68    C     0.51971   0.30864   0.20378   0.00000  Uiso   1.00
C69    C     0.51971   0.02469   0.20378   0.00000  Uiso   1.00
C70    C     0.48029   0.30864   0.12956   0.00000  Uiso   1.00
N71    N     0.50000   0.28402   0.16667   0.00000  Uiso   1.00
N72    N     0.50000   0.04931   0.16667   0.00000  Uiso   1.00
Cl73   Cl    0.37710   0.07033   0.18918   0.00000  Uiso   1.00
Cl74   Cl    0.62290   0.26301   0.14415   0.00000  Uiso   1.00
Cl75   Cl    0.62289   0.07033   0.14413   0.00000  Uiso   1.00
Cl76   Cl    0.37711   0.26300   0.18921   0.00000  Uiso   1.00
N77    N     0.45952   0.04842   0.08977   0.00000  Uiso   1.00
O78    O     0.42123   0.05931   0.09318   0.00000  Uiso   1.00
O79    O     0.47543   0.04867   0.04664   0.00000  Uiso   1.00
N80    N     0.54048   0.28492   0.24356   0.00000  Uiso   1.00
O81    O     0.57877   0.27401   0.24015   0.00000  Uiso   1.00
O82    O     0.52457   0.28467   0.28670   0.00000  Uiso   1.00
N83    N     0.54050   0.04842   0.24355   0.00000  Uiso   1.00
O84    O     0.52458   0.04870   0.28668   0.00000  Uiso   1.00
O85    O     0.57880   0.05924   0.24015   0.00000  Uiso   1.00
N86    N     0.45951   0.28492   0.08978   0.00000  Uiso   1.00
O87    O     0.47542   0.28464   0.04665   0.00000  Uiso   1.00
O88    O     0.42121   0.27407   0.09319   0.00000  Uiso   1.00
O89    O     0.77321   0.20625   0.16666   0.00000  Uiso   1.00
O90    O     0.89345   0.12709   0.16667   0.00000  Uiso   1.00
O91    O     0.89345   0.20625   0.16667   0.00000  Uiso   1.00
O92    O     0.77321   0.12709   0.16666   0.00000  Uiso   1.00
C93    C     0.75422   0.16667   0.17018   0.00000  Uiso   1.00
C94    C     0.91245   0.16667   0.16316   0.00000  Uiso   1.00
O95    O     0.83333   0.20625   0.09613   0.00000  Uiso   1.00
O96    O     0.83333   0.12708   0.23720   0.00000  Uiso   1.00
O97    O     0.83333   0.20625   0.23720   0.00000  Uiso   1.00
O98    O     0.83333   0.12708   0.09613   0.00000  Uiso   1.00
C99    C     0.83323   0.16667   0.07361   0.00000  Uiso   1.00
C100   C     0.83344   0.16667   0.25973   0.00000  Uiso   1.00
Cu101  Cu    0.83333   0.21355   0.16667   0.00000  Uiso   1.00
Cu102  Cu    0.83333   0.11978   0.16667   0.00000  Uiso   1.00
C103   C     0.83330   0.16667   0.02187   0.00000  Uiso   1.00
C104   C     0.83337   0.16667   0.31147   0.00000  Uiso   1.00
C105   C     0.68762   0.12422   0.17188   0.00000  Uiso   1.00
C106   C     0.97905   0.20912   0.16146   0.00000  Uiso   1.00
C107   C     0.97904   0.12422   0.16145   0.00000  Uiso   1.00
C108   C     0.68762   0.20911   0.17189   0.00000  Uiso   1.00
C109   C     0.95725   0.16667   0.16023   0.00000  Uiso   1.00
C110   C     0.70942   0.16667   0.17310   0.00000  Uiso   1.00
C111   C     0.81362   0.02469   0.12956   0.00000  Uiso   1.00
C112   C     0.85305   0.30864   0.20378   0.00000  Uiso   1.00
C113   C     0.85305   0.02469   0.20378   0.00000  Uiso   1.00
C114   C     0.81362   0.30864   0.12956   0.00000  Uiso   1.00
N115   N     0.83333   0.28402   0.16667   0.00000  Uiso   1.00
N116   N     0.83333   0.04931   0.16667   0.00000  Uiso   1.00
Cl117  Cl    0.71043   0.07033   0.18918   0.00000  Uiso   1.00
Cl118  Cl    0.95623   0.26301   0.14415   0.00000  Uiso   1.00
Cl119  Cl    0.95623   0.07033   0.14413   0.00000  Uiso   1.00
Cl120  Cl    0.71044   0.26300   0.18921   0.00000  Uiso   1.00
N121   N     0.79285   0.04842   0.08977   0.00000  Uiso   1.00
O122   O     0.75456   0.05931   0.09318   0.00000  Uiso   1.00
O123   O     0.80876   0.04867   0.04664   0.00000  Uiso   1.00
N124   N     0.87381   0.28492   0.24356   0.00000  Uiso   1.00
O125   O     0.91210   0.27401   0.24015   0.00000  Uiso   1.00
O126   O     0.85791   0.28467   0.28670   0.00000  Uiso   1.00
N127   N     0.87383   0.04842   0.24355   0.00000  Uiso   1.00
O128   O     0.85791   0.04870   0.28668   0.00000  Uiso   1.00
O129   O     0.91214   0.05924   0.24015   0.00000  Uiso   1.00
N130   N     0.79284   0.28492   0.08978   0.00000  Uiso   1.00
O131   O     0.80875   0.28464   0.04665   0.00000  Uiso   1.00
O132   O     0.75454   0.27407   0.09319   0.00000  Uiso   1.00
O133   O     0.10655   0.53958   0.16666   0.00000  Uiso   1.00
O134   O     0.22679   0.46042   0.16667   0.00000  Uiso   1.00
O135   O     0.22679   0.53958   0.16667   0.00000  Uiso   1.00
O136   O     0.10655   0.46042   0.16666   0.00000  Uiso   1.00
C137   C     0.08755   0.50000   0.17018   0.00000  Uiso   1.00
C138   C     0.24578   0.50000   0.16316   0.00000  Uiso   1.00
O139   O     0.16667   0.53959   0.09613   0.00000  Uiso   1.00
O140   O     0.16667   0.46041   0.23720   0.00000  Uiso   1.00
O141   O     0.16667   0.53959   0.23720   0.00000  Uiso   1.00
O142   O     0.16667   0.46041   0.09613   0.00000  Uiso   1.00
C143   C     0.16656   0.50000   0.07361   0.00000  Uiso   1.00
C144   C     0.16677   0.50000   0.25973   0.00000  Uiso   1.00
Cu145  Cu    0.16667   0.54689   0.16667   0.00000  Uiso   1.00
Cu146  Cu    0.16667   0.45311   0.16667   0.00000  Uiso   1.00
C147   C     0.16663   0.50000   0.02187   0.00000  Uiso   1.00
C148   C     0.16670   0.50000   0.31147   0.00000  Uiso   1.00
C149   C     0.02095   0.45755   0.17188   0.00000  Uiso   1.00
C150   C     0.31238   0.54245   0.16146   0.00000  Uiso   1.00
C151   C     0.31238   0.45755   0.16145   0.00000  Uiso   1.00
C152   C     0.02096   0.54245   0.17189   0.00000  Uiso   1.00
C153   C     0.29058   0.50000   0.16023   0.00000  Uiso   1.00
C154   C     0.04275   0.50000   0.17310   0.00000  Uiso   1.00
C155   C     0.14695   0.35802   0.12956   0.00000  Uiso   1.00
C156   C     0.18638   0.64198   0.20378   0.00000  Uiso   1.00
C157   C     0.18638   0.35802   0.20378   0.00000  Uiso   1.00
C158   C     0.14695   0.64198   0.12956   0.00000  Uiso   1.00
N159   N     0.16667   0.61736   0.16667   0.00000  Uiso   1.00
N160   N     0.16667   0.38264   0.16667   0.00000  Uiso   1.00
Cl161  Cl    0.04377   0.40366   0.18918   0.00000  Uiso   1.00
Cl162  Cl    0.28956   0.59634   0.14415   0.00000  Uiso   1.00
Cl163  Cl    0.28956   0.40367   0.14413   0.00000  Uiso   1.00
Cl164  Cl    0.04377   0.59633   0.18921   0.00000  Uiso   1.00
N165   N     0.12618   0.38175   0.08977   0.00000  Uiso   1.00
O166   O     0.08789   0.39264   0.09318   0.00000  Uiso   1.00
O167   O     0.14209   0.38201   0.04664   0.00000  Uiso   1.00
N168   N     0.20715   0.61825   0.24356   0.00000  Uiso   1.00
O169   O     0.24543   0.60735   0.24015   0.00000  Uiso   1.00
O170   O     0.19124   0.61800   0.28670   0.00000  Uiso   1.00
N171   N     0.20716   0.38175   0.24355   0.00000  Uiso   1.00
O172   O     0.19125   0.38204   0.28668   0.00000  Uiso   1.00
O173   O     0.24547   0.39257   0.24015   0.00000  Uiso   1.00
N174   N     0.12617   0.61825   0.08978   0.00000  Uiso   1.00
O175   O     0.14209   0.61797   0.04665   0.00000  Uiso   1.00
O176   O     0.08787   0.60740   0.09319   0.00000  Uiso   1.00
O177   O     0.43988   0.53958   0.16666   0.00000  Uiso   1.00
O178   O     0.56012   0.46042   0.16667   0.00000  Uiso   1.00
O179   O     0.56012   0.53958   0.16667   0.00000  Uiso   1.00
O180   O     0.43988   0.46042   0.16666   0.00000  Uiso   1.00
C181   C     0.42089   0.50000   0.17018   0.00000  Uiso   1.00
C182   C     0.57911   0.50000   0.16316   0.00000  Uiso   1.00
O183   O     0.50000   0.53959   0.09613   0.00000  Uiso   1.00
O184   O     0.50000   0.46041   0.23720   0.00000  Uiso   1.00
O185   O     0.50000   0.53959   0.23720   0.00000  Uiso   1.00
O186   O     0.50000   0.46041   0.09613   0.00000  Uiso   1.00
C187   C     0.49989   0.50000   0.07361   0.00000  Uiso   1.00
C188   C     0.50011   0.50000   0.25973   0.00000  Uiso   1.00
Cu189  Cu    0.50000   0.54689   0.16667   0.00000  Uiso   1.00
Cu190  Cu    0.50000   0.45311   0.16667   0.00000  Uiso   1.00
C191   C     0.49996   0.50000   0.02187   0.00000  Uiso   1.00
C192   C     0.50004   0.50000   0.31147   0.00000  Uiso   1.00
C193   C     0.35429   0.45755   0.17188   0.00000  Uiso   1.00
C194   C     0.64571   0.54245   0.16146   0.00000  Uiso   1.00
C195   C     0.64571   0.45755   0.16145   0.00000  Uiso   1.00
C196   C     0.35429   0.54245   0.17189   0.00000  Uiso   1.00
C197   C     0.62391   0.50000   0.16023   0.00000  Uiso   1.00
C198   C     0.37609   0.50000   0.17310   0.00000  Uiso   1.00
C199   C     0.48029   0.35802   0.12956   0.00000  Uiso   1.00
C200   C     0.51971   0.64198   0.20378   0.00000  Uiso   1.00
C201   C     0.51971   0.35802   0.20378   0.00000  Uiso   1.00
C202   C     0.48029   0.64198   0.12956   0.00000  Uiso   1.00
N203   N     0.50000   0.61736   0.16667   0.00000  Uiso   1.00
N204   N     0.50000   0.38264   0.16667   0.00000  Uiso   1.00
Cl205  Cl    0.37710   0.40366   0.18918   0.00000  Uiso   1.00
Cl206  Cl    0.62290   0.59634   0.14415   0.00000  Uiso   1.00
Cl207  Cl    0.62289   0.40367   0.14413   0.00000  Uiso   1.00
Cl208  Cl    0.37711   0.59633   0.18921   0.00000  Uiso   1.00
N209   N     0.45952   0.38175   0.08977   0.00000  Uiso   1.00
O210   O     0.42123   0.39264   0.09318   0.00000  Uiso   1.00
O211   O     0.47543   0.38201   0.04664   0.00000  Uiso   1.00
N212   N     0.54048   0.61825   0.24356   0.00000  Uiso   1.00
O213   O     0.57877   0.60735   0.24015   0.00000  Uiso   1.00
O214   O     0.52457   0.61800   0.28670   0.00000  Uiso   1.00
N215   N     0.54050   0.38175   0.24355   0.00000  Uiso   1.00
O216   O     0.52458   0.38204   0.28668   0.00000  Uiso   1.00
O217   O     0.57880   0.39257   0.24015   0.00000  Uiso   1.00
N218   N     0.45951   0.61825   0.08978   0.00000  Uiso   1.00
O219   O     0.47542   0.61797   0.04665   0.00000  Uiso   1.00
O220   O     0.42121   0.60740   0.09319   0.00000  Uiso   1.00
O221   O     0.77321   0.53958   0.16666   0.00000  Uiso   1.00
O222   O     0.89345   0.46042   0.16667   0.00000  Uiso   1.00
O223   O     0.89345   0.53958   0.16667   0.00000  Uiso   1.00
O224   O     0.77321   0.46042   0.16666   0.00000  Uiso   1.00
C225   C     0.75422   0.50000   0.17018   0.00000  Uiso   1.00
C226   C     0.91245   0.50000   0.16316   0.00000  Uiso   1.00
O227   O     0.83333   0.53959   0.09613   0.00000  Uiso   1.00
O228   O     0.83333   0.46041   0.23720   0.00000  Uiso   1.00
O229   O     0.83333   0.53959   0.23720   0.00000  Uiso   1.00
O230   O     0.83333   0.46041   0.09613   0.00000  Uiso   1.00
C231   C     0.83323   0.50000   0.07361   0.00000  Uiso   1.00
C232   C     0.83344   0.50000   0.25973   0.00000  Uiso   1.00
Cu233  Cu    0.83333   0.54689   0.16667   0.00000  Uiso   1.00
Cu234  Cu    0.83333   0.45311   0.16667   0.00000  Uiso   1.00
C235   C     0.83330   0.50000   0.02187   0.00000  Uiso   1.00
C236   C     0.83337   0.50000   0.31147   0.00000  Uiso   1.00
C237   C     0.68762   0.45755   0.17188   0.00000  Uiso   1.00
C238   C     0.97905   0.54245   0.16146   0.00000  Uiso   1.00
C239   C     0.97904   0.45755   0.16145   0.00000  Uiso   1.00
C240   C     0.68762   0.54245   0.17189   0.00000  Uiso   1.00
C241   C     0.95725   0.50000   0.16023   0.00000  Uiso   1.00
C242   C     0.70942   0.50000   0.17310   0.00000  Uiso   1.00
C243   C     0.81362   0.35802   0.12956   0.00000  Uiso   1.00
C244   C     0.85305   0.64198   0.20378   0.00000  Uiso   1.00
C245   C     0.85305   0.35802   0.20378   0.00000  Uiso   1.00
C246   C     0.81362   0.64198   0.12956   0.00000  Uiso   1.00
N247   N     0.83333   0.61736   0.16667   0.00000  Uiso   1.00
N248   N     0.83333   0.38264   0.16667   0.00000  Uiso   1.00
Cl249  Cl    0.71043   0.40366   0.18918   0.00000  Uiso   1.00
Cl250  Cl    0.95623   0.59634   0.14415   0.00000  Uiso   1.00
Cl251  Cl    0.95623   0.40367   0.14413   0.00000  Uiso   1.00
Cl252  Cl    0.71044   0.59633   0.18921   0.00000  Uiso   1.00
N253   N     0.79285   0.38175   0.08977   0.00000  Uiso   1.00
O254   O     0.75456   0.39264   0.09318   0.00000  Uiso   1.00
O255   O     0.80876   0.38201   0.04664   0.00000  Uiso   1.00
N256   N     0.87381   0.61825   0.24356   0.00000  Uiso   1.00
O257   O     0.91210   0.60735   0.24015   0.00000  Uiso   1.00
O258   O     0.85791   0.61800   0.28670   0.00000  Uiso   1.00
N259   N     0.87383   0.38175   0.24355   0.00000  Uiso   1.00
O260   O     0.85791   0.38204   0.28668   0.00000  Uiso   1.00
O261   O     0.91214   0.39257   0.24015   0.00000  Uiso   1.00
N262   N     0.79284   0.61825   0.08978   0.00000  Uiso   1.00
O263   O     0.80875   0.61797   0.04665   0.00000  Uiso   1.00
O264   O     0.75454   0.60740   0.09319   0.00000  Uiso   1.00
O265   O     0.10655   0.87291   0.16666   0.00000  Uiso   1.00
O266   O     0.22679   0.79375   0.16667   0.00000  Uiso   1.00
O267   O     0.22679   0.87291   0.16667   0.00000  Uiso   1.00
O268   O     0.10655   0.79375   0.16666   0.00000  Uiso   1.00
C269   C     0.08755   0.83333   0.17018   0.00000  Uiso   1.00
C270   C     0.24578   0.83333   0.16316   0.00000  Uiso   1.00
O271   O     0.16667   0.87292   0.09613   0.00000  Uiso   1.00
O272   O     0.16667   0.79375   0.23720   0.00000  Uiso   1.00
O273   O     0.16667   0.87292   0.23720   0.00000  Uiso   1.00
O274   O     0.16667   0.79375   0.09613   0.00000  Uiso   1.00
C275   C     0.16656   0.83333   0.07361   0.00000  Uiso   1.00
C276   C     0.16677   0.83333   0.25973   0.00000  Uiso   1.00
Cu277  Cu    0.16667   0.88022   0.16667   0.00000  Uiso   1.00
Cu278  Cu    0.16667   0.78645   0.16667   0.00000  Uiso   1.00
C279   C     0.16663   0.83333   0.02187   0.00000  Uiso   1.00
C280   C     0.16670   0.83333   0.31147   0.00000  Uiso   1.00
C281   C     0.02095   0.79088   0.17188   0.00000  Uiso   1.00
C282   C     0.31238   0.87578   0.16146   0.00000  Uiso   1.00
C283   C     0.31238   0.79089   0.16145   0.00000  Uiso   1.00
C284   C     0.02096   0.87578   0.17189   0.00000  Uiso   1.00
C285   C     0.29058   0.83333   0.16023   0.00000  Uiso   1.00
C286   C     0.04275   0.83333   0.17310   0.00000  Uiso   1.00
C287   C     0.14695   0.69136   0.12956   0.00000  Uiso   1.00
C288   C     0.18638   0.97531   0.20378   0.00000  Uiso   1.00
C289   C     0.18638   0.69136   0.20378   0.00000  Uiso   1.00
C290   C     0.14695   0.97531   0.12956   0.00000  Uiso   1.00
N291   N     0.16667   0.95069   0.16667   0.00000  Uiso   1.00
N292   N     0.16667   0.71598   0.16667   0.00000  Uiso   1.00
Cl293  Cl    0.04377   0.73699   0.18918   0.00000  Uiso   1.00
Cl294  Cl    0.28956   0.92967   0.14415   0.00000  Uiso   1.00
Cl295  Cl    0.28956   0.73700   0.14413   0.00000  Uiso   1.00
Cl296  Cl    0.04377   0.92967   0.18921   0.00000  Uiso   1.00
N297   N     0.12618   0.71508   0.08977   0.00000  Uiso   1.00
O298   O     0.08789   0.72598   0.09318   0.00000  Uiso   1.00
O299   O     0.14209   0.71534   0.04664   0.00000  Uiso   1.00
N300   N     0.20715   0.95158   0.24356   0.00000  Uiso   1.00
O301   O     0.24543   0.94068   0.24015   0.00000  Uiso   1.00
O302   O     0.19124   0.95133   0.28670   0.00000  Uiso   1.00
N303   N     0.20716   0.71508   0.24355   0.00000  Uiso   1.00
O304   O     0.19125   0.71537   0.28668   0.00000  Uiso   1.00
O305   O     0.24547   0.72590   0.24015   0.00000  Uiso   1.00
N306   N     0.12617   0.95158   0.08978   0.00000  Uiso   1.00
O307   O     0.14209   0.95130   0.04665   0.00000  Uiso   1.00
O308   O     0.08787   0.94074   0.09319   0.00000  Uiso   1.00
O309   O     0.43988   0.87291   0.16666   0.00000  Uiso   1.00
O310   O     0.56012   0.79375   0.16667   0.00000  Uiso   1.00
O311   O     0.56012   0.87291   0.16667   0.00000  Uiso   1.00
O312   O     0.43988   0.79375   0.16666   0.00000  Uiso   1.00
C313   C     0.42089   0.83333   0.17018   0.00000  Uiso   1.00
C314   C     0.57911   0.83333   0.16316   0.00000  Uiso   1.00
O315   O     0.50000   0.87292   0.09613   0.00000  Uiso   1.00
O316   O     0.50000   0.79375   0.23720   0.00000  Uiso   1.00
O317   O     0.50000   0.87292   0.23720   0.00000  Uiso   1.00
O318   O     0.50000   0.79375   0.09613   0.00000  Uiso   1.00
C319   C     0.49989   0.83333   0.07361   0.00000  Uiso   1.00
C320   C     0.50011   0.83333   0.25973   0.00000  Uiso   1.00
Cu321  Cu    0.50000   0.88022   0.16667   0.00000  Uiso   1.00
Cu322  Cu    0.50000   0.78645   0.16667   0.00000  Uiso   1.00
C323   C     0.49996   0.83333   0.02187   0.00000  Uiso   1.00
C324   C     0.50004   0.83333   0.31147   0.00000  Uiso   1.00
C325   C     0.35429   0.79088   0.17188   0.00000  Uiso   1.00
C326   C     0.64571   0.87578   0.16146   0.00000  Uiso   1.00
C327   C     0.64571   0.79089   0.16145   0.00000  Uiso   1.00
C328   C     0.35429   0.87578   0.17189   0.00000  Uiso   1.00
C329   C     0.62391   0.83333   0.16023   0.00000  Uiso   1.00
C330   C     0.37609   0.83333   0.17310   0.00000  Uiso   1.00
C331   C     0.48029   0.69136   0.12956   0.00000  Uiso   1.00
C332   C     0.51971   0.97531   0.20378   0.00000  Uiso   1.00
C333   C     0.51971   0.69136   0.20378   0.00000  Uiso   1.00
C334   C     0.48029   0.97531   0.12956   0.00000  Uiso   1.00
N335   N     0.50000   0.95069   0.16667   0.00000  Uiso   1.00
N336   N     0.50000   0.71598   0.16667   0.00000  Uiso   1.00
Cl337  Cl    0.37710   0.73699   0.18918   0.00000  Uiso   1.00
Cl338  Cl    0.62290   0.92967   0.14415   0.00000  Uiso   1.00
Cl339  Cl    0.62289   0.73700   0.14413   0.00000  Uiso   1.00
Cl340  Cl    0.37711   0.92967   0.18921   0.00000  Uiso   1.00
N341   N     0.45952   0.71508   0.08977   0.00000  Uiso   1.00
O342   O     0.42123   0.72598   0.09318   0.00000  Uiso   1.00
O343   O     0.47543   0.71534   0.04664   0.00000  Uiso   1.00
N344   N     0.54048   0.95158   0.24356   0.00000  Uiso   1.00
O345   O     0.57877   0.94068   0.24015   0.00000  Uiso   1.00
O346   O     0.52457   0.95133   0.28670   0.00000  Uiso   1.00
N347   N     0.54050   0.71508   0.24355   0.00000  Uiso   1.00
O348   O     0.52458   0.71537   0.28668   0.00000  Uiso   1.00
O349   O     0.57880   0.72590   0.24015   0.00000  Uiso   1.00
N350   N     0.45951   0.95158   0.08978   0.00000  Uiso   1.00
O351   O     0.47542   0.95130   0.04665   0.00000  Uiso   1.00
O352   O     0.42121   0.94074   0.09319   0.00000  Uiso   1.00
O353   O     0.77321   0.87291   0.16666   0.00000  Uiso   1.00
O354   O     0.89345   0.79375   0.16667   0.00000  Uiso   1.00
O355   O     0.89345   0.87291   0.16667   0.00000  Uiso   1.00
O356   O     0.77321   0.79375   0.16666   0.00000  Uiso   1.00
C357   C     0.75422   0.83333   0.17018   0.00000  Uiso   1.00
C358   C     0.91245   0.83333   0.16316   0.00000  Uiso   1.00
O359   O     0.83333   0.87292   0.09613   0.00000  Uiso   1.00
O360   O     0.83333   0.79375   0.23720   0.00000  Uiso   1.00
O361   O     0.83333   0.87292   0.23720   0.00000  Uiso   1.00
O362   O     0.83333   0.79375   0.09613   0.00000  Uiso   1.00
C363   C     0.83323   0.83333   0.07361   0.00000  Uiso   1.00
C364   C     0.83344   0.83333   0.25973   0.00000  Uiso   1.00
Cu365  Cu    0.83333   0.88022   0.16667   0.00000  Uiso   1.00
Cu366  Cu    0.83333   0.78645   0.16667   0.00000  Uiso   1.00
C367   C     0.83330   0.83333   0.02187   0.00000  Uiso   1.00
C368   C     0.83337   0.83333   0.31147   0.00000  Uiso   1.00
C369   C     0.68762   0.79088   0.17188   0.00000  Uiso   1.00
C370   C     0.97905   0.87578   0.16146   0.00000  Uiso   1.00
C371   C     0.97904   0.79089   0.16145   0.00000  Uiso   1.00
C372   C     0.68762   0.87578   0.17189   0.00000  Uiso   1.00
C373   C     0.95725   0.83333   0.16023   0.00000  Uiso   1.00
C374   C     0.70942   0.83333   0.17310   0.00000  Uiso   1.00
C375   C     0.81362   0.69136   0.12956   0.00000  Uiso   1.00
C376   C     0.85305   0.97531   0.20378   0.00000  Uiso   1.00
C377   C     0.85305   0.69136   0.20378   0.00000  Uiso   1.00
C378   C     0.81362   0.97531   0.12956   0.00000  Uiso   1.00
N379   N     0.83333   0.95069   0.16667   0.00000  Uiso   1.00
N380   N     0.83333   0.71598   0.16667   0.00000  Uiso   1.00
Cl381  Cl    0.71043   0.73699   0.18918   0.00000  Uiso   1.00
Cl382  Cl    0.95623   0.92967   0.14415   0.00000  Uiso   1.00
Cl383  Cl    0.95623   0.73700   0.14413   0.00000  Uiso   1.00
Cl384  Cl    0.71044   0.92967   0.18921   0.00000  Uiso   1.00
N385   N     0.79285   0.71508   0.08977   0.00000  Uiso   1.00
O386   O     0.75456   0.72598   0.09318   0.00000  Uiso   1.00
O387   O     0.80876   0.71534   0.04664   0.00000  Uiso   1.00
N388   N     0.87381   0.95158   0.24356   0.00000  Uiso   1.00
O389   O     0.91210   0.94068   0.24015   0.00000  Uiso   1.00
O390   O     0.85791   0.95133   0.28670   0.00000  Uiso   1.00
N391   N     0.87383   0.71508   0.24355   0.00000  Uiso   1.00
O392   O     0.85791   0.71537   0.28668   0.00000  Uiso   1.00
O393   O     0.91214   0.72590   0.24015   0.00000  Uiso   1.00
N394   N     0.79284   0.95158   0.08978   0.00000  Uiso   1.00
O395   O     0.80875   0.95130   0.04665   0.00000  Uiso   1.00
O396   O     0.75454   0.94074   0.09319   0.00000  Uiso   1.00
O397   O     0.10655   0.20625   0.50000   0.00000  Uiso   1.00
O398   O     0.22679   0.12709   0.50000   0.00000  Uiso   1.00
O399   O     0.22679   0.20625   0.50000   0.00000  Uiso   1.00
O400   O     0.10655   0.12709   0.50000   0.00000  Uiso   1.00
C401   C     0.08755   0.16667   0.50351   0.00000  Uiso   1.00
C402   C     0.24578   0.16667   0.49649   0.00000  Uiso   1.00
O403   O     0.16667   0.20625   0.42946   0.00000  Uiso   1.00
O404   O     0.16667   0.12708   0.57054   0.00000  Uiso   1.00
O405   O     0.16667   0.20625   0.57054   0.00000  Uiso   1.00
O406   O     0.16667   0.12708   0.42946   0.00000  Uiso   1.00
C407   C     0.16656   0.16667   0.40694   0.00000  Uiso   1.00
C408   C     0.16677   0.16667   0.59306   0.00000  Uiso   1.00
Cu409  Cu    0.16667   0.21355   0.50000   0.00000  Uiso   1.00
Cu410  Cu    0.16667   0.11978   0.50000   0.00000  Uiso   1.00
C411   C     0.16663   0.16667   0.35520   0.00000  Uiso   1.00
C412   C     0.16670   0.16667   0.64480   0.00000  Uiso   1.00
C413   C     0.02095   0.12422   0.50521   0.00000  Uiso   1.00
C414   C     0.31238   0.20912   0.49479   0.00000  Uiso   1.00
C415   C     0.31238   0.12422   0.49478   0.00000  Uiso   1.00
C416   C     0.02096   0.20911   0.50522   0.00000  Uiso   1.00
C417   C     0.29058   0.16667   0.49357   0.00000  Uiso   1.00
C418   C     0.04275   0.16667   0.50643   0.00000  Uiso   1.00
C419   C     0.14695   0.02469   0.46289   0.00000  Uiso   1.00
C420   C     0.18638   0.30864   0.53711   0.00000  Uiso   1.00
C421   C     0.18638   0.02469   0.53711   0.00000  Uiso   1.00
C422   C     0.14695   0.30864   0.46289   0.00000  Uiso   1.00
N423   N     0.16667   0.28402   0.50000   0.00000  Uiso   1.00
N424   N     0.16667   0.04931   0.50000   0.00000  Uiso   1.00
Cl425  Cl    0.04377   0.07033   0.52252   0.00000  Uiso   1.00
Cl426  Cl    0.28956   0.26301   0.47748   0.00000  Uiso   1.00
Cl427  Cl    0.28956   0.07033   0.47746   0.00000  Uiso   1.00
Cl428  Cl    0.04377   0.26300   0.52254   0.00000  Uiso   1.00
N429   N     0.12618   0.04842   0.42311   0.00000  Uiso   1.00
O430   O     0.08789   0.05931   0.42652   0.00000  Uiso   1.00
O431   O     0.14209   0.04867   0.37997   0.00000  Uiso   1.00
N432   N     0.20715   0.28492   0.57689   0.00000  Uiso   1.00
O433   O     0.24543   0.27401   0.57348   0.00000  Uiso   1.00
O434   O     0.19124   0.28467   0.62003   0.00000  Uiso   1.00
N435   N     0.20716   0.04842   0.57688   0.00000  Uiso   1.00
O436   O     0.19125   0.04870   0.62001   0.00000  Uiso   1.00
O437   O     0.24547   0.05924   0.57348   0.00000  Uiso   1.00
N438   N     0.12617   0.28492   0.42311   0.00000  Uiso   1.00
O439   O     0.14209   0.28464   0.37998   0.00000  Uiso   1.00
O440   O     0.08787   0.27407   0.42652   0.00000  Uiso   1.00
O441   O     0.43988   0.20625   0.50000   0.00000  Uiso   1.00
O442   O     0.56012   0.12709   0.50000   0.00000  Uiso   1.00
O443   O     0.56012   0.20625   0.50000   0.00000  Uiso   1.00
O444   O     0.43988   0.12709   0.50000   0.00000  Uiso   1.00
C445   C     0.42089   0.16667   0.50351   0.00000  Uiso   1.00
C446   C     0.57911   0.16667   0.49649   0.00000  Uiso   1.00
O447   O     0.50000   0.20625   0.42946   0.00000  Uiso   1.00
O448   O     0.50000   0.12708   0.57054   0.00000  Uiso   1.00
O449   O     0.50000   0.20625   0.57054   0.00000  Uiso   1.00
O450   O     0.50000   0.12708   0.42946   0.00000  Uiso   1.00
C451   C     0.49989   0.16667   0.40694   0.00000  Uiso   1.00
C452   C     0.50011   0.16667   0.59306   0.00000  Uiso   1.00
Cu453  Cu    0.50000   0.21355   0.50000   0.00000  Uiso   1.00
Cu454  Cu    0.50000   0.11978   0.50000   0.00000  Uiso   1.00
C455   C     0.49996   0.16667   0.35520   0.00000  Uiso   1.00
C456   C     0.50004   0.16667   0.64480   0.00000  Uiso   1.00
C457   C     0.35429   0.12422   0.50521   0.00000  Uiso   1.00
C458   C     0.64571   0.20912   0.49479   0.00000  Uiso   1.00
C459   C     0.64571   0.12422   0.49478   0.00000  Uiso   1.00
C460   C     0.35429   0.20911   0.50522   0.00000  Uiso   1.00
C461   C     0.62391   0.16667   0.49357   0.00000  Uiso   1.00
C462   C     0.37609   0.16667   0.50643   0.00000  Uiso   1.00
C463   C     0.48029   0.02469   0.46289   0.00000  Uiso   1.00
C464   C     0.51971   0.30864   0.53711   0.00000  Uiso   1.00
C465   C     0.51971   0.02469   0.53711   0.00000  Uiso   1.00
C466   C     0.48029   0.30864   0.46289   0.00000  Uiso   1.00
N467   N     0.50000   0.28402   0.50000   0.00000  Uiso   1.00
N468   N     0.50000   0.04931   0.50000   0.00000  Uiso   1.00
Cl469  Cl    0.37710   0.07033   0.52252   0.00000  Uiso   1.00
Cl470  Cl    0.62290   0.26301   0.47748   0.00000  Uiso   1.00
Cl471  Cl    0.62289   0.07033   0.47746   0.00000  Uiso   1.00
Cl472  Cl    0.37711   0.26300   0.52254   0.00000  Uiso   1.00
N473   N     0.45952   0.04842   0.42311   0.00000  Uiso   1.00
O474   O     0.42123   0.05931   0.42652   0.00000  Uiso   1.00
O475   O     0.47543   0.04867   0.37997   0.00000  Uiso   1.00
N476   N     0.54048   0.28492   0.57689   0.00000  Uiso   1.00
O477   O     0.57877   0.27401   0.57348   0.00000  Uiso   1.00
O478   O     0.52457   0.28467   0.62003   0.00000  Uiso   1.00
N479   N     0.54050   0.04842   0.57688   0.00000  Uiso   1.00
O480   O     0.52458   0.04870   0.62001   0.00000  Uiso   1.00
O481   O     0.57880   0.05924   0.57348   0.00000  Uiso   1.00
N482   N     0.45951   0.28492   0.42311   0.00000  Uiso   1.00
O483   O     0.47542   0.28464   0.37998   0.00000  Uiso   1.00
O484   O     0.42121   0.27407   0.42652   0.00000  Uiso   1.00
O485   O     0.77321   0.20625   0.50000   0.00000  Uiso   1.00
O486   O     0.89345   0.12709   0.50000   0.00000  Uiso   1.00
O487   O     0.89345   0.20625   0.50000   0.00000  Uiso   1.00
O488   O     0.77321   0.12709   0.50000   0.00000  Uiso   1.00
C489   C     0.75422   0.16667   0.50351   0.00000  Uiso   1.00
C490   C     0.91245   0.16667   0.49649   0.00000  Uiso   1.00
O491   O     0.83333   0.20625   0.42946   0.00000  Uiso   1.00
O492   O     0.83333   0.12708   0.57054   0.00000  Uiso   1.00
O493   O     0.83333   0.20625   0.57054   0.00000  Uiso   1.00
O494   O     0.83333   0.12708   0.42946   0.00000  Uiso   1.00
C495   C     0.83323   0.16667   0.40694   0.00000  Uiso   1.00
C496   C     0.83344   0.16667   0.59306   0.00000  Uiso   1.00
Cu497  Cu    0.83333   0.21355   0.50000   0.00000  Uiso   1.00
Cu498  Cu    0.83333   0.11978   0.50000   0.00000  Uiso   1.00
C499   C     0.83330   0.16667   0.35520   0.00000  Uiso   1.00
C500   C     0.83337   0.16667   0.64480   0.00000  Uiso   1.00
C501   C     0.68762   0.12422   0.50521   0.00000  Uiso   1.00
C502   C     0.97905   0.20912   0.49479   0.00000  Uiso   1.00
C503   C     0.97904   0.12422   0.49478   0.00000  Uiso   1.00
C504   C     0.68762   0.20911   0.50522   0.00000  Uiso   1.00
C505   C     0.95725   0.16667   0.49357   0.00000  Uiso   1.00
C506   C     0.70942   0.16667   0.50643   0.00000  Uiso   1.00
C507   C     0.81362   0.02469   0.46289   0.00000  Uiso   1.00
C508   C     0.85305   0.30864   0.53711   0.00000  Uiso   1.00
C509   C     0.85305   0.02469   0.53711   0.00000  Uiso   1.00
C510   C     0.81362   0.30864   0.46289   0.00000  Uiso   1.00
N511   N     0.83333   0.28402   0.50000   0.00000  Uiso   1.00
N512   N     0.83333   0.04931   0.50000   0.00000  Uiso   1.00
Cl513  Cl    0.71043   0.07033   0.52252   0.00000  Uiso   1.00
Cl514  Cl    0.95623   0.26301   0.47748   0.00000  Uiso   1.00
Cl515  Cl    0.95623   0.07033   0.47746   0.00000  Uiso   1.00
Cl516  Cl    0.71044   0.26300   0.52254   0.00000  Uiso   1.00
N517   N     0.79285   0.04842   0.42311   0.00000  Uiso   1.00
O518   O     0.75456   0.05931   0.42652   0.00000  Uiso   1.00
O519   O     0.80876   0.04867   0.37997   0.00000  Uiso   1.00
N520   N     0.87381   0.28492   0.57689   0.00000  Uiso   1.00
O521   O     0.91210   0.27401   0.57348   0.00000  Uiso   1.00
O522   O     0.85791   0.28467   0.62003   0.00000  Uiso   1.00
N523   N     0.87383   0.04842   0.57688   0.00000  Uiso   1.00
O524   O     0.85791   0.04870   0.62001   0.00000  Uiso   1.00
O525   O     0.91214   0.05924   0.57348   0.00000  Uiso   1.00
N526   N     0.79284   0.28492   0.42311   0.00000  Uiso   1.00
O527   O     0.80875   0.28464   0.37998   0.00000  Uiso   1.00
O528   O     0.75454   0.27407   0.42652   0.00000  Uiso   1.00
O529   O     0.10655   0.53958   0.50000   0.00000  Uiso   1.00
O530   O     0.22679   0.46042   0.50000   0.00000  Uiso   1.00
O531   O     0.22679   0.53958   0.50000   0.00000  Uiso   1.00
O532   O     0.10655   0.46042   0.50000   0.00000  Uiso   1.00
C533   C     0.08755   0.50000   0.50351   0.00000  Uiso   1.00
C534   C     0.24578   0.50000   0.49649   0.00000  Uiso   1.00
O535   O     0.16667   0.53959   0.42946   0.00000  Uiso   1.00
O536   O     0.16667   0.46041   0.57054   0.00000  Uiso   1.00
O537   O     0.16667   0.53959   0.57054   0.00000  Uiso   1.00
O538   O     0.16667   0.46041   0.42946   0.00000  Uiso   1.00
C539   C     0.16656   0.50000   0.40694   0.00000  Uiso   1.00
C540   C     0.16677   0.50000   0.59306   0.00000  Uiso   1.00
Cu541  Cu    0.16667   0.54689   0.50000   0.00000  Uiso   1.00
Cu542  Cu    0.16667   0.45311   0.50000   0.00000  Uiso   1.00
C543   C     0.16663   0.50000   0.35520   0.00000  Uiso   1.00
C544   C     0.16670   0.50000   0.64480   0.00000  Uiso   1.00
C545   C     0.02095   0.45755   0.50521   0.00000  Uiso   1.00
C546   C     0.31238   0.54245   0.49479   0.00000  Uiso   1.00
C547   C     0.31238   0.45755   0.49478   0.00000  Uiso   1.00
C548   C     0.02096   0.54245   0.50522   0.00000  Uiso   1.00
C549   C     0.29058   0.50000   0.49357   0.00000  Uiso   1.00
C550   C     0.04275   0.50000   0.50643   0.00000  Uiso   1.00
C551   C     0.14695   0.35802   0.46289   0.00000  Uiso   1.00
C552   C     0.18638   0.64198   0.53711   0.00000  Uiso   1.00
C553   C     0.18638   0.35802   0.53711   0.00000  Uiso   1.00
C554   C     0.14695   0.64198   0.46289   0.00000  Uiso   1.00
N555   N     0.16667   0.61736   0.50000   0.00000  Uiso   1.00
N556   N     0.16667   0.38264   0.50000   0.00000  Uiso   1.00
Cl557  Cl    0.04377   0.40366   0.52252   0.00000  Uiso   1.00
Cl558  Cl    0.28956   0.59634   0.47748   0.00000  Uiso   1.00
Cl559  Cl    0.28956   0.40367   0.47746   0.00000  Uiso   1.00
Cl560  Cl    0.04377   0.59633   0.52254   0.00000  Uiso   1.00
N561   N     0.12618   0.38175   0.42311   0.00000  Uiso   1.00
O562   O     0.08789   0.39264   0.42652   0.00000  Uiso   1.00
O563   O     0.14209   0.38201   0.37997   0.00000  Uiso   1.00
N564   N     0.20715   0.61825   0.57689   0.00000  Uiso   1.00
O565   O     0.24543   0.60735   0.57348   0.00000  Uiso   1.00
O566   O     0.19124   0.61800   0.62003   0.00000  Uiso   1.00
N567   N     0.20716   0.38175   0.57688   0.00000  Uiso   1.00
O568   O     0.19125   0.38204   0.62001   0.00000  Uiso   1.00
O569   O     0.24547   0.39257   0.57348   0.00000  Uiso   1.00
N570   N     0.12617   0.61825   0.42311   0.00000  Uiso   1.00
O571   O     0.14209   0.61797   0.37998   0.00000  Uiso   1.00
O572   O     0.08787   0.60740   0.42652   0.00000  Uiso   1.00
O573   O     0.43988   0.53958   0.50000   0.00000  Uiso   1.00
O574   O     0.56012   0.46042   0.50000   0.00000  Uiso   1.00
O575   O     0.56012   0.53958   0.50000   0.00000  Uiso   1.00
O576   O     0.43988   0.46042   0.50000   0.00000  Uiso   1.00
C577   C     0.42089   0.50000   0.50351   0.00000  Uiso   1.00
C578   C     0.57911   0.50000   0.49649   0.00000  Uiso   1.00
O579   O     0.50000   0.53959   0.42946   0.00000  Uiso   1.00
O580   O     0.50000   0.46041   0.57054   0.00000  Uiso   1.00
O581   O     0.50000   0.53959   0.57054   0.00000  Uiso   1.00
O582   O     0.50000   0.46041   0.42946   0.00000  Uiso   1.00
C583   C     0.49989   0.50000   0.40694   0.00000  Uiso   1.00
C584   C     0.50011   0.50000   0.59306   0.00000  Uiso   1.00
Cu585  Cu    0.50000   0.54689   0.50000   0.00000  Uiso   1.00
Cu586  Cu    0.50000   0.45311   0.50000   0.00000  Uiso   1.00
C587   C     0.49996   0.50000   0.35520   0.00000  Uiso   1.00
C588   C     0.50004   0.50000   0.64480   0.00000  Uiso   1.00
C589   C     0.35429   0.45755   0.50521   0.00000  Uiso   1.00
C590   C     0.64571   0.54245   0.49479   0.00000  Uiso   1.00
C591   C     0.64571   0.45755   0.49478   0.00000  Uiso   1.00
C592   C     0.35429   0.54245   0.50522   0.00000  Uiso   1.00
C593   C     0.62391   0.50000   0.49357   0.00000  Uiso   1.00
C594   C     0.37609   0.50000   0.50643   0.00000  Uiso   1.00
C595   C     0.48029   0.35802   0.46289   0.00000  Uiso   1.00
C596   C     0.51971   0.64198   0.53711   0.00000  Uiso   1.00
C597   C     0.51971   0.35802   0.53711   0.00000  Uiso   1.00
C598   C     0.48029   0.64198   0.46289   0.00000  Uiso   1.00
N599   N     0.50000   0.61736   0.50000   0.00000  Uiso   1.00
N600   N     0.50000   0.38264   0.50000   0.00000  Uiso   1.00
Cl601  Cl    0.37710   0.40366   0.52252   0.00000  Uiso   1.00
Cl602  Cl    0.62290   0.59634   0.47748   0.00000  Uiso   1.00
Cl603  Cl    0.62289   0.40367   0.47746   0.00000  Uiso   1.00
Cl604  Cl    0.37711   0.59633   0.52254   0.00000  Uiso   1.00
N605   N     0.45952   0.38175   0.42311   0.00000  Uiso   1.00
O606   O     0.42123   0.39264   0.42652   0.00000  Uiso   1.00
O607   O     0.47543   0.38201   0.37997   0.00000  Uiso   1.00
N608   N     0.54048   0.61825   0.57689   0.00000  Uiso   1.00
O609   O     0.57877   0.60735   0.57348   0.00000  Uiso   1.00
O610   O     0.52457   0.61800   0.62003   0.00000  Uiso   1.00
N611   N     0.54050   0.38175   0.57688   0.00000  Uiso   1.00
O612   O     0.52458   0.38204   0.62001   0.00000  Uiso   1.00
O613   O     0.57880   0.39257   0.57348   0.00000  Uiso   1.00
N614   N     0.45951   0.61825   0.42311   0.00000  Uiso   1.00
O615   O     0.47542   0.61797   0.37998   0.00000  Uiso   1.00
O616   O     0.42121   0.60740   0.42652   0.00000  Uiso   1.00
O617   O     0.77321   0.53958   0.50000   0.00000  Uiso   1.00
O618   O     0.89345   0.46042   0.50000   0.00000  Uiso   1.00
O619   O     0.89345   0.53958   0.50000   0.00000  Uiso   1.00
O620   O     0.77321   0.46042   0.50000   0.00000  Uiso   1.00
C621   C     0.75422   0.50000   0.50351   0.00000  Uiso   1.00
C622   C     0.91245   0.50000   0.49649   0.00000  Uiso   1.00
O623   O     0.83333   0.53959   0.42946   0.00000  Uiso   1.00
O624   O     0.83333   0.46041   0.57054   0.00000  Uiso   1.00
O625   O     0.83333   0.53959   0.57054   0.00000  Uiso   1.00
O626   O     0.83333   0.46041   0.42946   0.00000  Uiso   1.00
C627   C     0.83323   0.50000   0.40694   0.00000  Uiso   1.00
C628   C     0.83344   0.50000   0.59306   0.00000  Uiso   1.00
Cu629  Cu    0.83333   0.54689   0.50000   0.00000  Uiso   1.00
Cu630  Cu    0.83333   0.45311   0.50000   0.00000  Uiso   1.00
C631   C     0.83330   0.50000   0.35520   0.00000  Uiso   1.00
C632   C     0.83337   0.50000   0.64480   0.00000  Uiso   1.00
C633   C     0.68762   0.45755   0.50521   0.00000  Uiso   1.00
C634   C     0.97905   0.54245   0.49479   0.00000  Uiso   1.00
C635   C     0.97904   0.45755   0.49478   0.00000  Uiso   1.00
C636   C     0.68762   0.54245   0.50522   0.00000  Uiso   1.00
C637   C     0.95725   0.50000   0.49357   0.00000  Uiso   1.00
C638   C     0.70942   0.50000   0.50643   0.00000  Uiso   1.00
C639   C     0.81362   0.35802   0.46289   0.00000  Uiso   1.00
C640   C     0.85305   0.64198   0.53711   0.00000  Uiso   1.00
C641   C     0.85305   0.35802   0.53711   0.00000  Uiso   1.00
C642   C     0.81362   0.64198   0.46289   0.00000  Uiso   1.00
N643   N     0.83333   0.61736   0.50000   0.00000  Uiso   1.00
N644   N     0.83333   0.38264   0.50000   0.00000  Uiso   1.00
Cl645  Cl    0.71043   0.40366   0.52252   0.00000  Uiso   1.00
Cl646  Cl    0.95623   0.59634   0.47748   0.00000  Uiso   1.00
Cl647  Cl    0.95623   0.40367   0.47746   0.00000  Uiso   1.00
Cl648  Cl    0.71044   0.59633   0.52254   0.00000  Uiso   1.00
N649   N     0.79285   0.38175   0.42311   0.00000  Uiso   1.00
O650   O     0.75456   0.39264   0.42652   0.00000  Uiso   1.00
O651   O     0.80876   0.38201   0.37997   0.00000  Uiso   1.00
N652   N     0.87381   0.61825   0.57689   0.00000  Uiso   1.00
O653   O     0.91210   0.60735   0.57348   0.00000  Uiso   1.00
O654   O     0.85791   0.61800   0.62003   0.00000  Uiso   1.00
N655   N     0.87383   0.38175   0.57688   0.00000  Uiso   1.00
O656   O     0.85791   0.38204   0.62001   0.00000  Uiso   1.00
O657   O     0.91214   0.39257   0.57348   0.00000  Uiso   1.00
N658   N     0.79284   0.61825   0.42311   0.00000  Uiso   1.00
O659   O     0.80875   0.61797   0.37998   0.00000  Uiso   1.00
O660   O     0.75454   0.60740   0.42652   0.00000  Uiso   1.00
O661   O     0.10655   0.87291   0.50000   0.00000  Uiso   1.00
O662   O     0.22679   0.79375   0.50000   0.00000  Uiso   1.00
O663   O     0.22679   0.87291   0.50000   0.00000  Uiso   1.00
O664   O     0.10655   0.79375   0.50000   0.00000  Uiso   1.00
C665   C     0.08755   0.83333   0.50351   0.00000  Uiso   1.00
C666   C     0.24578   0.83333   0.49649   0.00000  Uiso   1.00
O667   O     0.16667   0.87292   0.42946   0.00000  Uiso   1.00
O668   O     0.16667   0.79375   0.57054   0.00000  Uiso   1.00
O669   O     0.16667   0.87292   0.57054   0.00000  Uiso   1.00
O670   O     0.16667   0.79375   0.42946   0.00000  Uiso   1.00
C671   C     0.16656   0.83333   0.40694   0.00000  Uiso   1.00
C672   C     0.16677   0.83333   0.59306   0.00000  Uiso   1.00
Cu673  Cu    0.16667   0.88022   0.50000   0.00000  Uiso   1.00
Cu674  Cu    0.16667   0.78645   0.50000   0.00000  Uiso   1.00
C675   C     0.16663   0.83333   0.35520   0.00000  Uiso   1.00
C676   C     0.16670   0.83333   0.64480   0.00000  Uiso   1.00
C677   C     0.02095   0.79088   0.50521   0.00000  Uiso   1.00
C678   C     0.31238   0.87578   0.49479   0.00000  Uiso   1.00
C679   C     0.31238   0.79089   0.49478   0.00000  Uiso   1.00
C680   C     0.02096   0.87578   0.50522   0.00000  Uiso   1.00
C681   C     0.29058   0.83333   0.49357   0.00000  Uiso   1.00
C682   C     0.04275   0.83333   0.50643   0.00000  Uiso   1.00
C683   C     0.14695   0.69136   0.46289   0.00000  Uiso   1.00
C684   C     0.18638   0.97531   0.53711   0.00000  Uiso   1.00
C685   C     0.18638   0.69136   0.53711   0.00000  Uiso   1.00
C686   C     0.14695   0.97531   0.46289   0.00000  Uiso   1.00
N687   N     0.16667   0.95069   0.50000   0.00000  Uiso   1.00
N688   N     0.16667   0.71598   0.50000   0.00000  Uiso   1.00
Cl689  Cl    0.04377   0.73699   0.52252   0.00000  Uiso   1.00
Cl690  Cl    0.28956   0.92967   0.47748   0.00000  Uiso   1.00
Cl691  Cl    0.28956   0.73700   0.47746   0.00000  Uiso   1.00
Cl692  Cl    0.04377   0.92967   0.52254   0.00000  Uiso   1.00
N693   N     0.12618   0.71508   0.42311   0.00000  Uiso   1.00
O694   O     0.08789   0.72598   0.42652   0.00000  Uiso   1.00
O695   O     0.14209   0.71534   0.37997   0.00000  Uiso   1.00
N696   N     0.20715   0.95158   0.57689   0.00000  Uiso   1.00
O697   O     0.24543   0.94068   0.57348   0.00000  Uiso   1.00
O698   O     0.19124   0.95133   0.62003   0.00000  Uiso   1.00
N699   N     0.20716   0.71508   0.57688   0.00000  Uiso   1.00
O700   O     0.19125   0.71537   0.62001   0.00000  Uiso   1.00
O701   O     0.24547   0.72590   0.57348   0.00000  Uiso   1.00
N702   N     0.12617   0.95158   0.42311   0.00000  Uiso   1.00
O703   O     0.14209   0.95130   0.37998   0.00000  Uiso   1.00
O704   O     0.08787   0.94074   0.42652   0.00000  Uiso   1.00
O705   O     0.43988   0.87291   0.50000   0.00000  Uiso   1.00
O706   O     0.56012   0.79375   0.50000   0.00000  Uiso   1.00
O707   O     0.56012   0.87291   0.50000   0.00000  Uiso   1.00
O708   O     0.43988   0.79375   0.50000   0.00000  Uiso   1.00
C709   C     0.42089   0.83333   0.50351   0.00000  Uiso   1.00
C710   C     0.57911   0.83333   0.49649   0.00000  Uiso   1.00
O711   O     0.50000   0.87292   0.42946   0.00000  Uiso   1.00
O712   O     0.50000   0.79375   0.57054   0.00000  Uiso   1.00
O713   O     0.50000   0.87292   0.57054   0.00000  Uiso   1.00
O714   O     0.50000   0.79375   0.42946   0.00000  Uiso   1.00
C715   C     0.49989   0.83333   0.40694   0.00000  Uiso   1.00
C716   C     0.50011   0.83333   0.59306   0.00000  Uiso   1.00
Cu717  Cu    0.50000   0.88022   0.50000   0.00000  Uiso   1.00
Cu718  Cu    0.50000   0.78645   0.50000   0.00000  Uiso   1.00
C719   C     0.49996   0.83333   0.35520   0.00000  Uiso   1.00
C720   C     0.50004   0.83333   0.64480   0.00000  Uiso   1.00
C721   C     0.35429   0.79088   0.50521   0.00000  Uiso   1.00
C722   C     0.64571   0.87578   0.49479   0.00000  Uiso   1.00
C723   C     0.64571   0.79089   0.49478   0.00000  Uiso   1.00
C724   C     0.35429   0.87578   0.50522   0.00000  Uiso   1.00
C725   C     0.62391   0.83333   0.49357   0.00000  Uiso   1.00
C726   C     0.37609   0.83333   0.50643   0.00000  Uiso   1.00
C727   C     0.48029   0.69136   0.46289   0.00000  Uiso   1.00
C728   C     0.51971   0.97531   0.53711   0.00000  Uiso   1.00
C729   C     0.51971   0.69136   0.53711   0.00000  Uiso   1.00
C730   C     0.48029   0.97531   0.46289   0.00000  Uiso   1.00
N731   N     0.50000   0.95069   0.50000   0.00000  Uiso   1.00
N732   N     0.50000   0.71598   0.50000   0.00000  Uiso   1.00
Cl733  Cl    0.37710   0.73699   0.52252   0.00000  Uiso   1.00
Cl734  Cl    0.62290   0.92967   0.47748   0.00000  Uiso   1.00
Cl735  Cl    0.62289   0.73700   0.47746   0.00000  Uiso   1.00
Cl736  Cl    0.37711   0.92967   0.52254   0.00000  Uiso   1.00
N737   N     0.45952   0.71508   0.42311   0.00000  Uiso   1.00
O738   O     0.42123   0.72598   0.42652   0.00000  Uiso   1.00
O739   O     0.47543   0.71534   0.37997   0.00000  Uiso   1.00
N740   N     0.54048   0.95158   0.57689   0.00000  Uiso   1.00
O741   O     0.57877   0.94068   0.57348   0.00000  Uiso   1.00
O742   O     0.52457   0.95133   0.62003   0.00000  Uiso   1.00
N743   N     0.54050   0.71508   0.57688   0.00000  Uiso   1.00
O744   O     0.52458   0.71537   0.62001   0.00000  Uiso   1.00
O745   O     0.57880   0.72590   0.57348   0.00000  Uiso   1.00
N746   N     0.45951   0.95158   0.42311   0.00000  Uiso   1.00
O747   O     0.47542   0.95130   0.37998   0.00000  Uiso   1.00
O748   O     0.42121   0.94074   0.42652   0.00000  Uiso   1.00
O749   O     0.77321   0.87291   0.50000   0.00000  Uiso   1.00
O750   O     0.89345   0.79375   0.50000   0.00000  Uiso   1.00
O751   O     0.89345   0.87291   0.50000   0.00000  Uiso   1.00
O752   O     0.77321   0.79375   0.50000   0.00000  Uiso   1.00
C753   C     0.75422   0.83333   0.50351   0.00000  Uiso   1.00
C754   C     0.91245   0.83333   0.49649   0.00000  Uiso   1.00
O755   O     0.83333   0.87292   0.42946   0.00000  Uiso   1.00
O756   O     0.83333   0.79375   0.57054   0.00000  Uiso   1.00
O757   O     0.83333   0.87292   0.57054   0.00000  Uiso   1.00
O758   O     0.83333   0.79375   0.42946   0.00000  Uiso   1.00
C759   C     0.83323   0.83333   0.40694   0.00000  Uiso   1.00
C760   C     0.83344   0.83333   0.59306   0.00000  Uiso   1.00
Cu761  Cu    0.83333   0.88022   0.50000   0.00000  Uiso   1.00
Cu762  Cu    0.83333   0.78645   0.50000   0.00000  Uiso   1.00
C763   C     0.83330   0.83333   0.35520   0.00000  Uiso   1.00
C764   C     0.83337   0.83333   0.64480   0.00000  Uiso   1.00
C765   C     0.68762   0.79088   0.50521   0.00000  Uiso   1.00
C766   C     0.97905   0.87578   0.49479   0.00000  Uiso   1.00
C767   C     0.97904   0.79089   0.49478   0.00000  Uiso   1.00
C768   C     0.68762   0.87578   0.50522   0.00000  Uiso   1.00
C769   C     0.95725   0.83333   0.49357   0.00000  Uiso   1.00
C770   C     0.70942   0.83333   0.50643   0.00000  Uiso   1.00
C771   C     0.81362   0.69136   0.46289   0.00000  Uiso   1.00
C772   C     0.85305   0.97531   0.53711   0.00000  Uiso   1.00
C773   C     0.85305   0.69136   0.53711   0.00000  Uiso   1.00
C774   C     0.81362   0.97531   0.46289   0.00000  Uiso   1.00
N775   N     0.83333   0.95069   0.50000   0.00000  Uiso   1.00
N776   N     0.83333   0.71598   0.50000   0.00000  Uiso   1.00
Cl777  Cl    0.71043   0.73699   0.52252   0.00000  Uiso   1.00
Cl778  Cl    0.95623   0.92967   0.47748   0.00000  Uiso   1.00
Cl779  Cl    0.95623   0.73700   0.47746   0.00000  Uiso   1.00
Cl780  Cl    0.71044   0.92967   0.52254   0.00000  Uiso   1.00
N781   N     0.79285   0.71508   0.42311   0.00000  Uiso   1.00
O782   O     0.75456   0.72598   0.42652   0.00000  Uiso   1.00
O783   O     0.80876   0.71534   0.37997   0.00000  Uiso   1.00
N784   N     0.87381   0.95158   0.57689   0.00000  Uiso   1.00
O785   O     0.91210   0.94068   0.57348   0.00000  Uiso   1.00
O786   O     0.85791   0.95133   0.62003   0.00000  Uiso   1.00
N787   N     0.87383   0.71508   0.57688   0.00000  Uiso   1.00
O788   O     0.85791   0.71537   0.62001   0.00000  Uiso   1.00
O789   O     0.91214   0.72590   0.57348   0.00000  Uiso   1.00
N790   N     0.79284   0.95158   0.42311   0.00000  Uiso   1.00
O791   O     0.80875   0.95130   0.37998   0.00000  Uiso   1.00
O792   O     0.75454   0.94074   0.42652   0.00000  Uiso   1.00
O793   O     0.10655   0.20625   0.83333   0.00000  Uiso   1.00
O794   O     0.22679   0.12709   0.83334   0.00000  Uiso   1.00
O795   O     0.22679   0.20625   0.83334   0.00000  Uiso   1.00
O796   O     0.10655   0.12709   0.83333   0.00000  Uiso   1.00
C797   C     0.08755   0.16667   0.83684   0.00000  Uiso   1.00
C798   C     0.24578   0.16667   0.82982   0.00000  Uiso   1.00
O799   O     0.16667   0.20625   0.76280   0.00000  Uiso   1.00
O800   O     0.16667   0.12708   0.90387   0.00000  Uiso   1.00
O801   O     0.16667   0.20625   0.90387   0.00000  Uiso   1.00
O802   O     0.16667   0.12708   0.76280   0.00000  Uiso   1.00
C803   C     0.16656   0.16667   0.74027   0.00000  Uiso   1.00
C804   C     0.16677   0.16667   0.92639   0.00000  Uiso   1.00
Cu805  Cu    0.16667   0.21355   0.83333   0.00000  Uiso   1.00
Cu806  Cu    0.16667   0.11978   0.83333   0.00000  Uiso   1.00
C807   C     0.16663   0.16667   0.68853   0.00000  Uiso   1.00
C808   C     0.16670   0.16667   0.97813   0.00000  Uiso   1.00
C809   C     0.02095   0.12422   0.83854   0.00000  Uiso   1.00
C810   C     0.31238   0.20912   0.82812   0.00000  Uiso   1.00
C811   C     0.31238   0.12422   0.82811   0.00000  Uiso   1.00
C812   C     0.02096   0.20911   0.83855   0.00000  Uiso   1.00
C813   C     0.29058   0.16667   0.82690   0.00000  Uiso   1.00
C814   C     0.04275   0.16667   0.83977   0.00000  Uiso   1.00
C815   C     0.14695   0.02469   0.79622   0.00000  Uiso   1.00
C816   C     0.18638   0.30864   0.87044   0.00000  Uiso   1.00
C817   C     0.18638   0.02469   0.87044   0.00000  Uiso   1.00
C818   C     0.14695   0.30864   0.79622   0.00000  Uiso   1.00
N819   N     0.16667   0.28402   0.83333   0.00000  Uiso   1.00
N820   N     0.16667   0.04931   0.83333   0.00000  Uiso   1.00
Cl821  Cl    0.04377   0.07033   0.85585   0.00000  Uiso   1.00
Cl822  Cl    0.28956   0.26301   0.81082   0.00000  Uiso   1.00
Cl823  Cl    0.28956   0.07033   0.81079   0.00000  Uiso   1.00
Cl824  Cl    0.04377   0.26300   0.85587   0.00000  Uiso   1.00
N825   N     0.12618   0.04842   0.75644   0.00000  Uiso   1.00
O826   O     0.08789   0.05931   0.75985   0.00000  Uiso   1.00
O827   O     0.14209   0.04867   0.71331   0.00000  Uiso   1.00
N828   N     0.20715   0.28492   0.91023   0.00000  Uiso   1.00
O829   O     0.24543   0.27401   0.90682   0.00000  Uiso   1.00
O830   O     0.19124   0.28467   0.95336   0.00000  Uiso   1.00
N831   N     0.20716   0.04842   0.91022   0.00000  Uiso   1.00
O832   O     0.19125   0.04870   0.95335   0.00000  Uiso   1.00
O833   O     0.24547   0.05924   0.90682   0.00000  Uiso   1.00
N834   N     0.12617   0.28492   0.75645   0.00000  Uiso   1.00
O835   O     0.14209   0.28464   0.71332   0.00000  Uiso   1.00
O836   O     0.08787   0.27407   0.75985   0.00000  Uiso   1.00
O837   O     0.43988   0.20625   0.83333   0.00000  Uiso   1.00
O838   O     0.56012   0.12709   0.83334   0.00000  Uiso   1.00
O839   O     0.56012   0.20625   0.83334   0.00000  Uiso   1.00
O840   O     0.43988   0.12709   0.83333   0.00000  Uiso   1.00
C841   C     0.42089   0.16667   0.83684   0.00000  Uiso   1.00
C842   C     0.57911   0.16667   0.82982   0.00000  Uiso   1.00
O843   O     0.50000   0.20625   0.76280   0.00000  Uiso   1.00
O844   O     0.50000   0.12708   0.90387   0.00000  Uiso   1.00
O845   O     0.50000   0.20625   0.90387   0.00000  Uiso   1.00
O846   O     0.50000   0.12708   0.76280   0.00000  Uiso   1.00
C847   C     0.49989   0.16667   0.74027   0.00000  Uiso   1.00
C848   C     0.50011   0.16667   0.92639   0.00000  Uiso   1.00
Cu849  Cu    0.50000   0.21355   0.83333   0.00000  Uiso   1.00
Cu850  Cu    0.50000   0.11978   0.83333   0.00000  Uiso   1.00
C851   C     0.49996   0.16667   0.68853   0.00000  Uiso   1.00
C852   C     0.50004   0.16667   0.97813   0.00000  Uiso   1.00
C853   C     0.35429   0.12422   0.83854   0.00000  Uiso   1.00
C854   C     0.64571   0.20912   0.82812   0.00000  Uiso   1.00
C855   C     0.64571   0.12422   0.82811   0.00000  Uiso   1.00
C856   C     0.35429   0.20911   0.83855   0.00000  Uiso   1.00
C857   C     0.62391   0.16667   0.82690   0.00000  Uiso   1.00
C858   C     0.37609   0.16667   0.83977   0.00000  Uiso   1.00
C859   C     0.48029   0.02469   0.79622   0.00000  Uiso   1.00
C860   C     0.51971   0.30864   0.87044   0.00000  Uiso   1.00
C861   C     0.51971   0.02469   0.87044   0.00000  Uiso   1.00
C862   C     0.48029   0.30864   0.79622   0.00000  Uiso   1.00
N863   N     0.50000   0.28402   0.83333   0.00000  Uiso   1.00
N864   N     0.50000   0.04931   0.83333   0.00000  Uiso   1.00
Cl865  Cl    0.37710   0.07033   0.85585   0.00000  Uiso   1.00
Cl866  Cl    0.62290   0.26301   0.81082   0.00000  Uiso   1.00
Cl867  Cl    0.62289   0.07033   0.81079   0.00000  Uiso   1.00
Cl868  Cl    0.37711   0.26300   0.85587   0.00000  Uiso   1.00
N869   N     0.45952   0.04842   0.75644   0.00000  Uiso   1.00
O870   O     0.42123   0.05931   0.75985   0.00000  Uiso   1.00
O871   O     0.47543   0.04867   0.71331   0.00000  Uiso   1.00
N872   N     0.54048   0.28492   0.91023   0.00000  Uiso   1.00
O873   O     0.57877   0.27401   0.90682   0.00000  Uiso   1.00
O874   O     0.52457   0.28467   0.95336   0.00000  Uiso   1.00
N875   N     0.54050   0.04842   0.91022   0.00000  Uiso   1.00
O876   O     0.52458   0.04870   0.95335   0.00000  Uiso   1.00
O877   O     0.57880   0.05924   0.90682   0.00000  Uiso   1.00
N878   N     0.45951   0.28492   0.75645   0.00000  Uiso   1.00
O879   O     0.47542   0.28464   0.71332   0.00000  Uiso   1.00
O880   O     0.42121   0.27407   0.75985   0.00000  Uiso   1.00
O881   O     0.77321   0.20625   0.83333   0.00000  Uiso   1.00
O882   O     0.89345   0.12709   0.83334   0.00000  Uiso   1.00
O883   O     0.89345   0.20625   0.83334   0.00000  Uiso   1.00
O884   O     0.77321   0.12709   0.83333   0.00000  Uiso   1.00
C885   C     0.75422   0.16667   0.83684   0.00000  Uiso   1.00
C886   C     0.91245   0.16667   0.82982   0.00000  Uiso   1.00
O887   O     0.83333   0.20625   0.76280   0.00000  Uiso   1.00
O888   O     0.83333   0.12708   0.90387   0.00000  Uiso   1.00
O889   O     0.83333   0.20625   0.90387   0.00000  Uiso   1.00
O890   O     0.83333   0.12708   0.76280   0.00000  Uiso   1.00
C891   C     0.83323   0.16667   0.74027   0.00000  Uiso   1.00
C892   C     0.83344   0.16667   0.92639   0.00000  Uiso   1.00
Cu893  Cu    0.83333   0.21355   0.83333   0.00000  Uiso   1.00
Cu894  Cu    0.83333   0.11978   0.83333   0.00000  Uiso   1.00
C895   C     0.83330   0.16667   0.68853   0.00000  Uiso   1.00
C896   C     0.83337   0.16667   0.97813   0.00000  Uiso   1.00
C897   C     0.68762   0.12422   0.83854   0.00000  Uiso   1.00
C898   C     0.97905   0.20912   0.82812   0.00000  Uiso   1.00
C899   C     0.97904   0.12422   0.82811   0.00000  Uiso   1.00
C900   C     0.68762   0.20911   0.83855   0.00000  Uiso   1.00
C901   C     0.95725   0.16667   0.82690   0.00000  Uiso   1.00
C902   C     0.70942   0.16667   0.83977   0.00000  Uiso   1.00
C903   C     0.81362   0.02469   0.79622   0.00000  Uiso   1.00
C904   C     0.85305   0.30864   0.87044   0.00000  Uiso   1.00
C905   C     0.85305   0.02469   0.87044   0.00000  Uiso   1.00
C906   C     0.81362   0.30864   0.79622   0.00000  Uiso   1.00
N907   N     0.83333   0.28402   0.83333   0.00000  Uiso   1.00
N908   N     0.83333   0.04931   0.83333   0.00000  Uiso   1.00
Cl909  Cl    0.71043   0.07033   0.85585   0.00000  Uiso   1.00
Cl910  Cl    0.95623   0.26301   0.81082   0.00000  Uiso   1.00
Cl911  Cl    0.95623   0.07033   0.81079   0.00000  Uiso   1.00
Cl912  Cl    0.71044   0.26300   0.85587   0.00000  Uiso   1.00
N913   N     0.79285   0.04842   0.75644   0.00000  Uiso   1.00
O914   O     0.75456   0.05931   0.75985   0.00000  Uiso   1.00
O915   O     0.80876   0.04867   0.71331   0.00000  Uiso   1.00
N916   N     0.87381   0.28492   0.91023   0.00000  Uiso   1.00
O917   O     0.91210   0.27401   0.90682   0.00000  Uiso   1.00
O918   O     0.85791   0.28467   0.95336   0.00000  Uiso   1.00
N919   N     0.87383   0.04842   0.91022   0.00000  Uiso   1.00
O920   O     0.85791   0.04870   0.95335   0.00000  Uiso   1.00
O921   O     0.91214   0.05924   0.90682   0.00000  Uiso   1.00
N922   N     0.79284   0.28492   0.75645   0.00000  Uiso   1.00
O923   O     0.80875   0.28464   0.71332   0.00000  Uiso   1.00
O924   O     0.75454   0.27407   0.75985   0.00000  Uiso   1.00
O925   O     0.10655   0.53958   0.83333   0.00000  Uiso   1.00
O926   O     0.22679   0.46042   0.83334   0.00000  Uiso   1.00
O927   O     0.22679   0.53958   0.83334   0.00000  Uiso   1.00
O928   O     0.10655   0.46042   0.83333   0.00000  Uiso   1.00
C929   C     0.08755   0.50000   0.83684   0.00000  Uiso   1.00
C930   C     0.24578   0.50000   0.82982   0.00000  Uiso   1.00
O931   O     0.16667   0.53959   0.76280   0.00000  Uiso   1.00
O932   O     0.16667   0.46041   0.90387   0.00000  Uiso   1.00
O933   O     0.16667   0.53959   0.90387   0.00000  Uiso   1.00
O934   O     0.16667   0.46041   0.76280   0.00000  Uiso   1.00
C935   C     0.16656   0.50000   0.74027   0.00000  Uiso   1.00
C936   C     0.16677   0.50000   0.92639   0.00000  Uiso   1.00
Cu937  Cu    0.16667   0.54689   0.83333   0.00000  Uiso   1.00
Cu938  Cu    0.16667   0.45311   0.83333   0.00000  Uiso   1.00
C939   C     0.16663   0.50000   0.68853   0.00000  Uiso   1.00
C940   C     0.16670   0.50000   0.97813   0.00000  Uiso   1.00
C941   C     0.02095   0.45755   0.83854   0.00000  Uiso   1.00
C942   C     0.31238   0.54245   0.82812   0.00000  Uiso   1.00
C943   C     0.31238   0.45755   0.82811   0.00000  Uiso   1.00
C944   C     0.02096   0.54245   0.83855   0.00000  Uiso   1.00
C945   C     0.29058   0.50000   0.82690   0.00000  Uiso   1.00
C946   C     0.04275   0.50000   0.83977   0.00000  Uiso   1.00
C947   C     0.14695   0.35802   0.79622   0.00000  Uiso   1.00
C948   C     0.18638   0.64198   0.87044   0.00000  Uiso   1.00
C949   C     0.18638   0.35802   0.87044   0.00000  Uiso   1.00
C950   C     0.14695   0.64198   0.79622   0.00000  Uiso   1.00
N951   N     0.16667   0.61736   0.83333   0.00000  Uiso   1.00
N952   N     0.16667   0.38264   0.83333   0.00000  Uiso   1.00
Cl953  Cl    0.04377   0.40366   0.85585   0.00000  Uiso   1.00
Cl954  Cl    0.28956   0.59634   0.81082   0.00000  Uiso   1.00
Cl955  Cl    0.28956   0.40367   0.81079   0.00000  Uiso   1.00
Cl956  Cl    0.04377   0.59633   0.85587   0.00000  Uiso   1.00
N957   N     0.12618   0.38175   0.75644   0.00000  Uiso   1.00
O958   O     0.08789   0.39264   0.75985   0.00000  Uiso   1.00
O959   O     0.14209   0.38201   0.71331   0.00000  Uiso   1.00
N960   N     0.20715   0.61825   0.91023   0.00000  Uiso   1.00
O961   O     0.24543   0.60735   0.90682   0.00000  Uiso   1.00
O962   O     0.19124   0.61800   0.95336   0.00000  Uiso   1.00
N963   N     0.20716   0.38175   0.91022   0.00000  Uiso   1.00
O964   O     0.19125   0.38204   0.95335   0.00000  Uiso   1.00
O965   O     0.24547   0.39257   0.90682   0.00000  Uiso   1.00
N966   N     0.12617   0.61825   0.75645   0.00000  Uiso   1.00
O967   O     0.14209   0.61797   0.71332   0.00000  Uiso   1.00
O968   O     0.08787   0.60740   0.75985   0.00000  Uiso   1.00
O969   O     0.43988   0.53958   0.83333   0.00000  Uiso   1.00
O970   O     0.56012   0.46042   0.83334   0.00000  Uiso   1.00
O971   O     0.56012   0.53958   0.83334   0.00000  Uiso   1.00
O972   O     0.43988   0.46042   0.83333   0.00000  Uiso   1.00
C973   C     0.42089   0.50000   0.83684   0.00000  Uiso   1.00
C974   C     0.57911   0.50000   0.82982   0.00000  Uiso   1.00
O975   O     0.50000   0.53959   0.76280   0.00000  Uiso   1.00
O976   O     0.50000   0.46041   0.90387   0.00000  Uiso   1.00
O977   O     0.50000   0.53959   0.90387   0.00000  Uiso   1.00
O978   O     0.50000   0.46041   0.76280   0.00000  Uiso   1.00
C979   C     0.49989   0.50000   0.74027   0.00000  Uiso   1.00
C980   C     0.50011   0.50000   0.92639   0.00000  Uiso   1.00
Cu981  Cu    0.50000   0.54689   0.83333   0.00000  Uiso   1.00
Cu982  Cu    0.50000   0.45311   0.83333   0.00000  Uiso   1.00
C983   C     0.49996   0.50000   0.68853   0.00000  Uiso   1.00
C984   C     0.50004   0.50000   0.97813   0.00000  Uiso   1.00
C985   C     0.35429   0.45755   0.83854   0.00000  Uiso   1.00
C986   C     0.64571   0.54245   0.82812   0.00000  Uiso   1.00
C987   C     0.64571   0.45755   0.82811   0.00000  Uiso   1.00
C988   C     0.35429   0.54245   0.83855   0.00000  Uiso   1.00
C989   C     0.62391   0.50000   0.82690   0.00000  Uiso   1.00
C990   C     0.37609   0.50000   0.83977   0.00000  Uiso   1.00
C991   C     0.48029   0.35802   0.79622   0.00000  Uiso   1.00
C992   C     0.51971   0.64198   0.87044   0.00000  Uiso   1.00
C993   C     0.51971   0.35802   0.87044   0.00000  Uiso   1.00
C994   C     0.48029   0.64198   0.79622   0.00000  Uiso   1.00
N995   N     0.50000   0.61736   0.83333   0.00000  Uiso   1.00
N996   N     0.50000   0.38264   0.83333   0.00000  Uiso   1.00
Cl997  Cl    0.37710   0.40366   0.85585   0.00000  Uiso   1.00
Cl998  Cl    0.62290   0.59634   0.81082   0.00000  Uiso   1.00
Cl999  Cl    0.62289   0.40367   0.81079   0.00000  Uiso   1.00
Cl1000 Cl    0.37711   0.59633   0.85587   0.00000  Uiso   1.00
N1001  N     0.45952   0.38175   0.75644   0.00000  Uiso   1.00
O1002  O     0.42123   0.39264   0.75985   0.00000  Uiso   1.00
O1003  O     0.47543   0.38201   0.71331   0.00000  Uiso   1.00
N1004  N     0.54048   0.61825   0.91023   0.00000  Uiso   1.00
O1005  O     0.57877   0.60735   0.90682   0.00000  Uiso   1.00
O1006  O     0.52457   0.61800   0.95336   0.00000  Uiso   1.00
N1007  N     0.54050   0.38175   0.91022   0.00000  Uiso   1.00
O1008  O     0.52458   0.38204   0.95335   0.00000  Uiso   1.00
O1009  O     0.57880   0.39257   0.90682   0.00000  Uiso   1.00
N1010  N     0.45951   0.61825   0.75645   0.00000  Uiso   1.00
O1011  O     0.47542   0.61797   0.71332   0.00000  Uiso   1.00
O1012  O     0.42121   0.60740   0.75985   0.00000  Uiso   1.00
O1013  O     0.77321   0.53958   0.83333   0.00000  Uiso   1.00
O1014  O     0.89345   0.46042   0.83334   0.00000  Uiso   1.00
O1015  O     0.89345   0.53958   0.83334   0.00000  Uiso   1.00
O1016  O     0.77321   0.46042   0.83333   0.00000  Uiso   1.00
C1017  C     0.75422   0.50000   0.83684   0.00000  Uiso   1.00
C1018  C     0.91245   0.50000   0.82982   0.00000  Uiso   1.00
O1019  O     0.83333   0.53959   0.76280   0.00000  Uiso   1.00
O1020  O     0.83333   0.46041   0.90387   0.00000  Uiso   1.00
O1021  O     0.83333   0.53959   0.90387   0.00000  Uiso   1.00
O1022  O     0.83333   0.46041   0.76280   0.00000  Uiso   1.00
C1023  C     0.83323   0.50000   0.74027   0.00000  Uiso   1.00
C1024  C     0.83344   0.50000   0.92639   0.00000  Uiso   1.00
Cu1025 Cu    0.83333   0.54689   0.83333   0.00000  Uiso   1.00
Cu1026 Cu    0.83333   0.45311   0.83333   0.00000  Uiso   1.00
C1027  C     0.83330   0.50000   0.68853   0.00000  Uiso   1.00
C1028  C     0.83337   0.50000   0.97813   0.00000  Uiso   1.00
C1029  C     0.68762   0.45755   0.83854   0.00000  Uiso   1.00
C1030  C     0.97905   0.54245   0.82812   0.00000  Uiso   1.00
C1031  C     0.97904   0.45755   0.82811   0.00000  Uiso   1.00
C1032  C     0.68762   0.54245   0.83855   0.00000  Uiso   1.00
C1033  C     0.95725   0.50000   0.82690   0.00000  Uiso   1.00
C1034  C     0.70942   0.50000   0.83977   0.00000  Uiso   1.00
C1035  C     0.81362   0.35802   0.79622   0.00000  Uiso   1.00
C1036  C     0.85305   0.64198   0.87044   0.00000  Uiso   1.00
C1037  C     0.85305   0.35802   0.87044   0.00000  Uiso   1.00
C1038  C     0.81362   0.64198   0.79622   0.00000  Uiso   1.00
N1039  N     0.83333   0.61736   0.83333   0.00000  Uiso   1.00
N1040  N     0.83333   0.38264   0.83333   0.00000  Uiso   1.00
Cl1041 Cl    0.71043   0.40366   0.85585   0.00000  Uiso   1.00
Cl1042 Cl    0.95623   0.59634   0.81082   0.00000  Uiso   1.00
Cl1043 Cl    0.95623   0.40367   0.81079   0.00000  Uiso   1.00
Cl1044 Cl    0.71044   0.59633   0.85587   0.00000  Uiso   1.00
N1045  N     0.79285   0.38175   0.75644   0.00000  Uiso   1.00
O1046  O     0.75456   0.39264   0.75985   0.00000  Uiso   1.00
O1047  O     0.80876   0.38201   0.71331   0.00000  Uiso   1.00
N1048  N     0.87381   0.61825   0.91023   0.00000  Uiso   1.00
O1049  O     0.91210   0.60735   0.90682   0.00000  Uiso   1.00
O1050  O     0.85791   0.61800   0.95336   0.00000  Uiso   1.00
N1051  N     0.87383   0.38175   0.91022   0.00000  Uiso   1.00
O1052  O     0.85791   0.38204   0.95335   0.00000  Uiso   1.00
O1053  O     0.91214   0.39257   0.90682   0.00000  Uiso   1.00
N1054  N     0.79284   0.61825   0.75645   0.00000  Uiso   1.00
O1055  O     0.80875   0.61797   0.71332   0.00000  Uiso   1.00
O1056  O     0.75454   0.60740   0.75985   0.00000  Uiso   1.00
O1057  O     0.10655   0.87291   0.83333   0.00000  Uiso   1.00
O1058  O     0.22679   0.79375   0.83334   0.00000  Uiso   1.00
O1059  O     0.22679   0.87291   0.83334   0.00000  Uiso   1.00
O1060  O     0.10655   0.79375   0.83333   0.00000  Uiso   1.00
C1061  C     0.08755   0.83333   0.83684   0.00000  Uiso   1.00
C1062  C     0.24578   0.83333   0.82982   0.00000  Uiso   1.00
O1063  O     0.16667   0.87292   0.76280   0.00000  Uiso   1.00
O1064  O     0.16667   0.79375   0.90387   0.00000  Uiso   1.00
O1065  O     0.16667   0.87292   0.90387   0.00000  Uiso   1.00
O1066  O     0.16667   0.79375   0.76280   0.00000  Uiso   1.00
C1067  C     0.16656   0.83333   0.74027   0.00000  Uiso   1.00
C1068  C     0.16677   0.83333   0.92639   0.00000  Uiso   1.00
Cu1069 Cu    0.16667   0.88022   0.83333   0.00000  Uiso   1.00
Cu1070 Cu    0.16667   0.78645   0.83333   0.00000  Uiso   1.00
C1071  C     0.16663   0.83333   0.68853   0.00000  Uiso   1.00
C1072  C     0.16670   0.83333   0.97813   0.00000  Uiso   1.00
C1073  C     0.02095   0.79088   0.83854   0.00000  Uiso   1.00
C1074  C     0.31238   0.87578   0.82812   0.00000  Uiso   1.00
C1075  C     0.31238   0.79089   0.82811   0.00000  Uiso   1.00
C1076  C     0.02096   0.87578   0.83855   0.00000  Uiso   1.00
C1077  C     0.29058   0.83333   0.82690   0.00000  Uiso   1.00
C1078  C     0.04275   0.83333   0.83977   0.00000  Uiso   1.00
C1079  C     0.14695   0.69136   0.79622   0.00000  Uiso   1.00
C1080  C     0.18638   0.97531   0.87044   0.00000  Uiso   1.00
C1081  C     0.18638   0.69136   0.87044   0.00000  Uiso   1.00
C1082  C     0.14695   0.97531   0.79622   0.00000  Uiso   1.00
N1083  N     0.16667   0.95069   0.83333   0.00000  Uiso   1.00
N1084  N     0.16667   0.71598   0.83333   0.00000  Uiso   1.00
Cl1085 Cl    0.04377   0.73699   0.85585   0.00000  Uiso   1.00
Cl1086 Cl    0.28956   0.92967   0.81082   0.00000  Uiso   1.00
Cl1087 Cl    0.28956   0.73700   0.81079   0.00000  Uiso   1.00
Cl1088 Cl    0.04377   0.92967   0.85587   0.00000  Uiso   1.00
N1089  N     0.12618   0.71508   0.75644   0.00000  Uiso   1.00
O1090  O     0.08789   0.72598   0.75985   0.00000  Uiso   1.00
O1091  O     0.14209   0.71534   0.71331   0.00000  Uiso   1.00
N1092  N     0.20715   0.95158   0.91023   0.00000  Uiso   1.00
O1093  O     0.24543   0.94068   0.90682   0.00000  Uiso   1.00
O1094  O     0.19124   0.95133   0.95336   0.00000  Uiso   1.00
N1095  N     0.20716   0.71508   0.91022   0.00000  Uiso   1.00
O1096  O     0.19125   0.71537   0.95335   0.00000  Uiso   1.00
O1097  O     0.24547   0.72590   0.90682   0.00000  Uiso   1.00
N1098  N     0.12617   0.95158   0.75645   0.00000  Uiso   1.00
O1099  O     0.14209   0.95130   0.71332   0.00000  Uiso   1.00
O1100  O     0.08787   0.94074   0.75985   0.00000  Uiso   1.00
O1101  O     0.43988   0.87291   0.83333   0.00000  Uiso   1.00
O1102  O     0.56012   0.79375   0.83334   0.00000  Uiso   1.00
O1103  O     0.56012   0.87291   0.83334   0.00000  Uiso   1.00
O1104  O     0.43988   0.79375   0.83333   0.00000  Uiso   1.00
C1105  C     0.42089   0.83333   0.83684   0.00000  Uiso   1.00
C1106  C     0.57911   0.83333   0.82982   0.00000  Uiso   1.00
O1107  O     0.50000   0.87292   0.76280   0.00000  Uiso   1.00
O1108  O     0.50000   0.79375   0.90387   0.00000  Uiso   1.00
O1109  O     0.50000   0.87292   0.90387   0.00000  Uiso   1.00
O1110  O     0.50000   0.79375   0.76280   0.00000  Uiso   1.00
C1111  C     0.49989   0.83333   0.74027   0.00000  Uiso   1.00
C1112  C     0.50011   0.83333   0.92639   0.00000  Uiso   1.00
Cu1113 Cu    0.50000   0.88022   0.83333   0.00000  Uiso   1.00
Cu1114 Cu    0.50000   0.78645   0.83333   0.00000  Uiso   1.00
C1115  C     0.49996   0.83333   0.68853   0.00000  Uiso   1.00
C1116  C     0.50004   0.83333   0.97813   0.00000  Uiso   1.00
C1117  C     0.35429   0.79088   0.83854   0.00000  Uiso   1.00
C1118  C     0.64571   0.87578   0.82812   0.00000  Uiso   1.00
C1119  C     0.64571   0.79089   0.82811   0.00000  Uiso   1.00
C1120  C     0.35429   0.87578   0.83855   0.00000  Uiso   1.00
C1121  C     0.62391   0.83333   0.82690   0.00000  Uiso   1.00
C1122  C     0.37609   0.83333   0.83977   0.00000  Uiso   1.00
C1123  C     0.48029   0.69136   0.79622   0.00000  Uiso   1.00
C1124  C     0.51971   0.97531   0.87044   0.00000  Uiso   1.00
C1125  C     0.51971   0.69136   0.87044   0.00000  Uiso   1.00
C1126  C     0.48029   0.97531   0.79622   0.00000  Uiso   1.00
N1127  N     0.50000   0.95069   0.83333   0.00000  Uiso   1.00
N1128  N     0.50000   0.71598   0.83333   0.00000  Uiso   1.00
Cl1129 Cl    0.37710   0.73699   0.85585   0.00000  Uiso   1.00
Cl1130 Cl    0.62290   0.92967   0.81082   0.00000  Uiso   1.00
Cl1131 Cl    0.62289   0.73700   0.81079   0.00000  Uiso   1.00
Cl1132 Cl    0.37711   0.92967   0.85587   0.00000  Uiso   1.00
N1133  N     0.45952   0.71508   0.75644   0.00000  Uiso   1.00
O1134  O     0.42123   0.72598   0.75985   0.00000  Uiso   1.00
O1135  O     0.47543   0.71534   0.71331   0.00000  Uiso   1.00
N1136  N     0.54048   0.95158   0.91023   0.00000  Uiso   1.00
O1137  O     0.57877   0.94068   0.90682   0.00000  Uiso   1.00
O1138  O     0.52457   0.95133   0.95336   0.00000  Uiso   1.00
N1139  N     0.54050   0.71508   0.91022   0.00000  Uiso   1.00
O1140  O     0.52458   0.71537   0.95335   0.00000  Uiso   1.00
O1141  O     0.57880   0.72590   0.90682   0.00000  Uiso   1.00
N1142  N     0.45951   0.95158   0.75645   0.00000  Uiso   1.00
O1143  O     0.47542   0.95130   0.71332   0.00000  Uiso   1.00
O1144  O     0.42121   0.94074   0.75985   0.00000  Uiso   1.00
O1145  O     0.77321   0.87291   0.83333   0.00000  Uiso   1.00
O1146  O     0.89345   0.79375   0.83334   0.00000  Uiso   1.00
O1147  O     0.89345   0.87291   0.83334   0.00000  Uiso   1.00
O1148  O     0.77321   0.79375   0.83333   0.00000  Uiso   1.00
C1149  C     0.75422   0.83333   0.83684   0.00000  Uiso   1.00
C1150  C     0.91245   0.83333   0.82982   0.00000  Uiso   1.00
O1151  O     0.83333   0.87292   0.76280   0.00000  Uiso   1.00
O1152  O     0.83333   0.79375   0.90387   0.00000  Uiso   1.00
O1153  O     0.83333   0.87292   0.90387   0.00000  Uiso   1.00
O1154  O     0.83333   0.79375   0.76280   0.00000  Uiso   1.00
C1155  C     0.83323   0.83333   0.74027   0.00000  Uiso   1.00
C1156  C     0.83344   0.83333   0.92639   0.00000  Uiso   1.00
Cu1157 Cu    0.83333   0.88022   0.83333   0.00000  Uiso   1.00
Cu1158 Cu    0.83333   0.78645   0.83333   0.00000  Uiso   1.00
C1159  C     0.83330   0.83333   0.68853   0.00000  Uiso   1.00
C1160  C     0.83337   0.83333   0.97813   0.00000  Uiso   1.00
C1161  C     0.68762   0.79088   0.83854   0.00000  Uiso   1.00
C1162  C     0.97905   0.87578   0.82812   0.00000  Uiso   1.00
C1163  C     0.97904   0.79089   0.82811   0.00000  Uiso   1.00
C1164  C     0.68762   0.87578   0.83855   0.00000  Uiso   1.00
C1165  C     0.95725   0.83333   0.82690   0.00000  Uiso   1.00
C1166  C     0.70942   0.83333   0.83977   0.00000  Uiso   1.00
C1167  C     0.81362   0.69136   0.79622   0.00000  Uiso   1.00
C1168  C     0.85305   0.97531   0.87044   0.00000  Uiso   1.00
C1169  C     0.85305   0.69136   0.87044   0.00000  Uiso   1.00
C1170  C     0.81362   0.97531   0.79622   0.00000  Uiso   1.00
N1171  N     0.83333   0.95069   0.83333   0.00000  Uiso   1.00
N1172  N     0.83333   0.71598   0.83333   0.00000  Uiso   1.00
Cl1173 Cl    0.71043   0.73699   0.85585   0.00000  Uiso   1.00
Cl1174 Cl    0.95623   0.92967   0.81082   0.00000  Uiso   1.00
Cl1175 Cl    0.95623   0.73700   0.81079   0.00000  Uiso   1.00
Cl1176 Cl    0.71044   0.92967   0.85587   0.00000  Uiso   1.00
N1177  N     0.79285   0.71508   0.75644   0.00000  Uiso   1.00
O1178  O     0.75456   0.72598   0.75985   0.00000  Uiso   1.00
O1179  O     0.80876   0.71534   0.71331   0.00000  Uiso   1.00
N1180  N     0.87381   0.95158   0.91023   0.00000  Uiso   1.00
O1181  O     0.91210   0.94068   0.90682   0.00000  Uiso   1.00
O1182  O     0.85791   0.95133   0.95336   0.00000  Uiso   1.00
N1183  N     0.87383   0.71508   0.91022   0.00000  Uiso   1.00
O1184  O     0.85791   0.71537   0.95335   0.00000  Uiso   1.00
O1185  O     0.91214   0.72590   0.90682   0.00000  Uiso   1.00
N1186  N     0.79284   0.95158   0.75645   0.00000  Uiso   1.00
O1187  O     0.80875   0.95130   0.71332   0.00000  Uiso   1.00
O1188  O     0.75454   0.94074   0.75985   0.00000  Uiso   1.00
loop_
_geom_bond_atom_site_label_1
_geom_bond_atom_site_label_2
_geom_bond_distance
_geom_bond_site_symmetry_2
_ccdc_geom_bond_type
O1     C5      1.303   .     A
O1     Cu13    1.980   .     S
O2     C6      1.303   .     A
O2     Cu14    1.980   .     S
O3     Cu13    1.980   .     S
O3     C6      1.303   .     A
O4     Cu14    1.980   .     S
O4     C5      1.303   .     A
C5     C22     1.472   .     S
C6     C21     1.472   .     S
O7     C11     1.293   .     A
O7     Cu13    1.929   .     S
O8     C12     1.293   .     A
O8     Cu14    1.929   .     S
O9     C12     1.293   .     A
O9     Cu13    1.929   .     S
O10    C11     1.293   .     A
O10    Cu14    1.929   .     S
C11    C15     1.407   .     S
C12    C16     1.407   .     S
Cu13   Cu14    2.698   .     S
Cu13   N27     2.028   .     S
Cu14   N28     2.028   .     S
C15    C808    1.189   1_554 S
C16    C411    1.189   .     S
C17    Cl29    1.777   .     S
C17    C22     1.414   .     A
C17    C107    1.391   1_455 S
C18    Cl30    1.777   .     S
C18    C21     1.414   .     A
C18    C64     1.391   .     S
C19    Cl31    1.777   .     S
C19    C21     1.414   .     A
C19    C61     1.391   .     S
C20    Cl32    1.777   .     S
C20    C22     1.414   .     A
C20    C106    1.391   1_455 S
C23    N28     1.374   .     A
C23    N33     1.430   .     S
C23    C290    1.421   1_545 S
C24    N27     1.374   .     A
C24    N36     1.430   .     S
C24    C157    1.421   .     S
C25    N39     1.430   .     S
C25    N28     1.374   .     A
C25    C288    1.421   1_545 S
C26    N27     1.374   .     A
C26    N42     1.430   .     S
C26    C155    1.421   .     S
N33    O34     1.299   .     A
N33    O35     1.301   .     A
N36    O38     1.301   .     A
N36    O37     1.299   .     A
N39    O41     1.299   .     A
N39    O40     1.301   .     A
N42    O43     1.301   .     A
N42    O44     1.299   .     A
O45    C49     1.303   .     A
O45    Cu57    1.980   .     S
O46    C50     1.303   .     A
O46    Cu58    1.980   .     S
O47    Cu57    1.980   .     S
O47    C50     1.303   .     A
O48    Cu58    1.980   .     S
O48    C49     1.303   .     A
C49    C66     1.472   .     S
C50    C65     1.472   .     S
O51    C55     1.293   .     A
O51    Cu57    1.929   .     S
O52    C56     1.293   .     A
O52    Cu58    1.929   .     S
O53    C56     1.293   .     A
O53    Cu57    1.929   .     S
O54    C55     1.293   .     A
O54    Cu58    1.929   .     S
C55    C59     1.407   .     S
C56    C60     1.407   .     S
Cu57   Cu58    2.698   .     S
Cu57   N71     2.028   .     S
Cu58   N72     2.028   .     S
C59    C852    1.189   1_554 S
C60    C455    1.189   .     S
C61    Cl73    1.777   .     S
C61    C66     1.414   .     A
C62    Cl74    1.777   .     S
C62    C65     1.414   .     A
C62    C108    1.391   .     S
C63    Cl75    1.777   .     S
C63    C65     1.414   .     A
C63    C105    1.391   .     S
C64    Cl76    1.777   .     S
C64    C66     1.414   .     A
C67    N72     1.374   .     A
C67    N77     1.430   .     S
C67    C334    1.421   1_545 S
C68    N71     1.374   .     A
C68    N80     1.430   .     S
C68    C201    1.421   .     S
C69    N83     1.430   .     S
C69    N72     1.374   .     A
C69    C332    1.421   1_545 S
C70    N71     1.374   .     A
C70    N86     1.430   .     S
C70    C199    1.421   .     S
N77    O78     1.299   .     A
N77    O79     1.301   .     A
N80    O82     1.301   .     A
N80    O81     1.299   .     A
N83    O85     1.299   .     A
N83    O84     1.301   .     A
N86    O87     1.301   .     A
N86    O88     1.299   .     A
O89    C93     1.303   .     A
O89    Cu101   1.980   .     S
O90    C94     1.303   .     A
O90    Cu102   1.980   .     S
O91    Cu101   1.980   .     S
O91    C94     1.303   .     A
O92    Cu102   1.980   .     S
O92    C93     1.303   .     A
C93    C110    1.472   .     S
C94    C109    1.472   .     S
O95    C99     1.293   .     A
O95    Cu101   1.929   .     S
O96    C100    1.293   .     A
O96    Cu102   1.929   .     S
O97    C100    1.293   .     A
O97    Cu101   1.929   .     S
O98    C99     1.293   .     A
O98    Cu102   1.929   .     S
C99    C103    1.407   .     S
C100   C104    1.407   .     S
Cu101  Cu102   2.698   .     S
Cu101  N115    2.028   .     S
Cu102  N116    2.028   .     S
C103   C896    1.189   1_554 S
C104   C499    1.189   .     S
C105   Cl117   1.777   .     S
C105   C110    1.414   .     A
C106   Cl118   1.777   .     S
C106   C109    1.414   .     A
C106   C20     1.391   1_655 S
C107   Cl119   1.777   .     S
C107   C109    1.414   .     A
C107   C17     1.391   1_655 S
C108   Cl120   1.777   .     S
C108   C110    1.414   .     A
C111   N116    1.374   .     A
C111   N121    1.430   .     S
C111   C378    1.421   1_545 S
C112   N115    1.374   .     A
C112   N124    1.430   .     S
C112   C245    1.421   .     S
C113   N127    1.430   .     S
C113   N116    1.374   .     A
C113   C376    1.421   1_545 S
C114   N115    1.374   .     A
C114   N130    1.430   .     S
C114   C243    1.421   .     S
N121   O122    1.299   .     A
N121   O123    1.301   .     A
N124   O126    1.301   .     A
N124   O125    1.299   .     A
N127   O129    1.299   .     A
N127   O128    1.301   .     A
N130   O131    1.301   .     A
N130   O132    1.299   .     A
O133   C137    1.303   .     A
O133   Cu145   1.980   .     S
O134   C138    1.303   .     A
O134   Cu146   1.980   .     S
O135   Cu145   1.980   .     S
O135   C138    1.303   .     A
O136   Cu146   1.980   .     S
O136   C137    1.303   .     A
C137   C154    1.472   .     S
C138   C153    1.472   .     S
O139   C143    1.293   .     A
O139   Cu145   1.929   .     S
O140   C144    1.293   .     A
O140   Cu146   1.929   .     S
O141   C144    1.293   .     A
O141   Cu145   1.929   .     S
O142   C143    1.293   .     A
O142   Cu146   1.929   .     S
C143   C147    1.407   .     S
C144   C148    1.407   .     S
Cu145  Cu146   2.698   .     S
Cu145  N159    2.028   .     S
Cu146  N160    2.028   .     S
C147   C940    1.189   1_554 S
C148   C543    1.189   .     S
C149   Cl161   1.777   .     S
C149   C154    1.414   .     A
C149   C239    1.391   1_455 S
C150   Cl162   1.777   .     S
C150   C153    1.414   .     A
C150   C196    1.391   .     S
C151   Cl163   1.777   .     S
C151   C153    1.414   .     A
C151   C193    1.391   .     S
C152   Cl164   1.777   .     S
C152   C154    1.414   .     A
C152   C238    1.391   1_455 S
C155   N160    1.374   .     A
C155   N165    1.430   .     S
C156   N159    1.374   .     A
C156   N168    1.430   .     S
C156   C289    1.421   .     S
C157   N171    1.430   .     S
C157   N160    1.374   .     A
C158   N159    1.374   .     A
C158   N174    1.430   .     S
C158   C287    1.421   .     S
N165   O166    1.299   .     A
N165   O167    1.301   .     A
N168   O170    1.301   .     A
N168   O169    1.299   .     A
N171   O173    1.299   .     A
N171   O172    1.301   .     A
N174   O175    1.301   .     A
N174   O176    1.299   .     A
O177   C181    1.303   .     A
O177   Cu189   1.980   .     S
O178   C182    1.303   .     A
O178   Cu190   1.980   .     S
O179   Cu189   1.980   .     S
O179   C182    1.303   .     A
O180   Cu190   1.980   .     S
O180   C181    1.303   .     A
C181   C198    1.472   .     S
C182   C197    1.472   .     S
O183   C187    1.293   .     A
O183   Cu189   1.929   .     S
O184   C188    1.293   .     A
O184   Cu190   1.929   .     S
O185   C188    1.293   .     A
O185   Cu189   1.929   .     S
O186   C187    1.293   .     A
O186   Cu190   1.929   .     S
C187   C191    1.407   .     S
C188   C192    1.407   .     S
Cu189  Cu190   2.698   .     S
Cu189  N203    2.028   .     S
Cu190  N204    2.028   .     S
C191   C984    1.189   1_554 S
C192   C587    1.189   .     S
C193   Cl205   1.777   .     S
C193   C198    1.414   .     A
C194   Cl206   1.777   .     S
C194   C197    1.414   .     A
C194   C240    1.391   .     S
C195   Cl207   1.777   .     S
C195   C197    1.414   .     A
C195   C237    1.391   .     S
C196   Cl208   1.777   .     S
C196   C198    1.414   .     A
C199   N204    1.374   .     A
C199   N209    1.430   .     S
C200   N203    1.374   .     A
C200   N212    1.430   .     S
C200   C333    1.421   .     S
C201   N215    1.430   .     S
C201   N204    1.374   .     A
C202   N203    1.374   .     A
C202   N218    1.430   .     S
C202   C331    1.421   .     S
N209   O210    1.299   .     A
N209   O211    1.301   .     A
N212   O214    1.301   .     A
N212   O213    1.299   .     A
N215   O217    1.299   .     A
N215   O216    1.301   .     A
N218   O219    1.301   .     A
N218   O220    1.299   .     A
O221   C225    1.303   .     A
O221   Cu233   1.980   .     S
O222   C226    1.303   .     A
O222   Cu234   1.980   .     S
O223   Cu233   1.980   .     S
O223   C226    1.303   .     A
O224   Cu234   1.980   .     S
O224   C225    1.303   .     A
C225   C242    1.472   .     S
C226   C241    1.472   .     S
O227   C231    1.293   .     A
O227   Cu233   1.929   .     S
O228   C232    1.293   .     A
O228   Cu234   1.929   .     S
O229   C232    1.293   .     A
O229   Cu233   1.929   .     S
O230   C231    1.293   .     A
O230   Cu234   1.929   .     S
C231   C235    1.407   .     S
C232   C236    1.407   .     S
Cu233  Cu234   2.698   .     S
Cu233  N247    2.028   .     S
Cu234  N248    2.028   .     S
C235   C1028   1.189   1_554 S
C236   C631    1.189   .     S
C237   Cl249   1.777   .     S
C237   C242    1.414   .     A
C238   Cl250   1.777   .     S
C238   C241    1.414   .     A
C238   C152    1.391   1_655 S
C239   Cl251   1.777   .     S
C239   C241    1.414   .     A
C239   C149    1.391   1_655 S
C240   Cl252   1.777   .     S
C240   C242    1.414   .     A
C243   N248    1.374   .     A
C243   N253    1.430   .     S
C244   N247    1.374   .     A
C244   N256    1.430   .     S
C244   C377    1.421   .     S
C245   N259    1.430   .     S
C245   N248    1.374   .     A
C246   N247    1.374   .     A
C246   N262    1.430   .     S
C246   C375    1.421   .     S
N253   O254    1.299   .     A
N253   O255    1.301   .     A
N256   O258    1.301   .     A
N256   O257    1.299   .     A
N259   O261    1.299   .     A
N259   O260    1.301   .     A
N262   O263    1.301   .     A
N262   O264    1.299   .     A
O265   C269    1.303   .     A
O265   Cu277   1.980   .     S
O266   C270    1.303   .     A
O266   Cu278   1.980   .     S
O267   Cu277   1.980   .     S
O267   C270    1.303   .     A
O268   Cu278   1.980   .     S
O268   C269    1.303   .     A
C269   C286    1.472   .     S
C270   C285    1.472   .     S
O271   C275    1.293   .     A
O271   Cu277   1.929   .     S
O272   C276    1.293   .     A
O272   Cu278   1.929   .     S
O273   C276    1.293   .     A
O273   Cu277   1.929   .     S
O274   C275    1.293   .     A
O274   Cu278   1.929   .     S
C275   C279    1.407   .     S
C276   C280    1.407   .     S
Cu277  Cu278   2.698   .     S
Cu277  N291    2.028   .     S
Cu278  N292    2.028   .     S
C279   C1072   1.189   1_554 S
C280   C675    1.189   .     S
C281   Cl293   1.777   .     S
C281   C286    1.414   .     A
C281   C371    1.391   1_455 S
C282   Cl294   1.777   .     S
C282   C285    1.414   .     A
C282   C328    1.391   .     S
C283   Cl295   1.777   .     S
C283   C285    1.414   .     A
C283   C325    1.391   .     S
C284   Cl296   1.777   .     S
C284   C286    1.414   .     A
C284   C370    1.391   1_455 S
C287   N292    1.374   .     A
C287   N297    1.430   .     S
C288   N291    1.374   .     A
C288   N300    1.430   .     S
C288   C25     1.421   1_565 S
C289   N303    1.430   .     S
C289   N292    1.374   .     A
C290   N291    1.374   .     A
C290   N306    1.430   .     S
C290   C23     1.421   1_565 S
N297   O298    1.299   .     A
N297   O299    1.301   .     A
N300   O302    1.301   .     A
N300   O301    1.299   .     A
N303   O305    1.299   .     A
N303   O304    1.301   .     A
N306   O307    1.301   .     A
N306   O308    1.299   .     A
O309   C313    1.303   .     A
O309   Cu321   1.980   .     S
O310   C314    1.303   .     A
O310   Cu322   1.980   .     S
O311   Cu321   1.980   .     S
O311   C314    1.303   .     A
O312   Cu322   1.980   .     S
O312   C313    1.303   .     A
C313   C330    1.472   .     S
C314   C329    1.472   .     S
O315   C319    1.293   .     A
O315   Cu321   1.929   .     S
O316   C320    1.293   .     A
O316   Cu322   1.929   .     S
O317   C320    1.293   .     A
O317   Cu321   1.929   .     S
O318   C319    1.293   .     A
O318   Cu322   1.929   .     S
C319   C323    1.407   .     S
C320   C324    1.407   .     S
Cu321  Cu322   2.698   .     S
Cu321  N335    2.028   .     S
Cu322  N336    2.028   .     S
C323   C1116   1.189   1_554 S
C324   C719    1.189   .     S
C325   Cl337   1.777   .     S
C325   C330    1.414   .     A
C326   Cl338   1.777   .     S
C326   C329    1.414   .     A
C326   C372    1.391   .     S
C327   Cl339   1.777   .     S
C327   C329    1.414   .     A
C327   C369    1.391   .     S
C328   Cl340   1.777   .     S
C328   C330    1.414   .     A
C331   N336    1.374   .     A
C331   N341    1.430   .     S
C332   N335    1.374   .     A
C332   N344    1.430   .     S
C332   C69     1.421   1_565 S
C333   N347    1.430   .     S
C333   N336    1.374   .     A
C334   N335    1.374   .     A
C334   N350    1.430   .     S
C334   C67     1.421   1_565 S
N341   O342    1.299   .     A
N341   O343    1.301   .     A
N344   O346    1.301   .     A
N344   O345    1.299   .     A
N347   O349    1.299   .     A
N347   O348    1.301   .     A
N350   O351    1.301   .     A
N350   O352    1.299   .     A
O353   C357    1.303   .     A
O353   Cu365   1.980   .     S
O354   C358    1.303   .     A
O354   Cu366   1.980   .     S
O355   Cu365   1.980   .     S
O355   C358    1.303   .     A
O356   Cu366   1.980   .     S
O356   C357    1.303   .     A
C357   C374    1.472   .     S
C358   C373    1.472   .     S
O359   C363    1.293   .     A
O359   Cu365   1.929   .     S
O360   C364    1.293   .     A
O360   Cu366   1.929   .     S
O361   C364    1.293   .     A
O361   Cu365   1.929   .     S
O362   C363    1.293   .     A
O362   Cu366   1.929   .     S
C363   C367    1.407   .     S
C364   C368    1.407   .     S
Cu365  Cu366   2.698   .     S
Cu365  N379    2.028   .     S
Cu366  N380    2.028   .     S
C367   C1160   1.189   1_554 S
C368   C763    1.189   .     S
C369   Cl381   1.777   .     S
C369   C374    1.414   .     A
C370   Cl382   1.777   .     S
C370   C373    1.414   .     A
C370   C284    1.391   1_655 S
C371   Cl383   1.777   .     S
C371   C373    1.414   .     A
C371   C281    1.391   1_655 S
C372   Cl384   1.777   .     S
C372   C374    1.414   .     A
C375   N380    1.374   .     A
C375   N385    1.430   .     S
C376   N379    1.374   .     A
C376   N388    1.430   .     S
C376   C113    1.421   1_565 S
C377   N391    1.430   .     S
C377   N380    1.374   .     A
C378   N379    1.374   .     A
C378   N394    1.430   .     S
C378   C111    1.421   1_565 S
N385   O386    1.299   .     A
N385   O387    1.301   .     A
N388   O390    1.301   .     A
N388   O389    1.299   .     A
N391   O393    1.299   .     A
N391   O392    1.301   .     A
N394   O395    1.301   .     A
N394   O396    1.299   .     A
O397   C401    1.303   .     A
O397   Cu409   1.980   .     S
O398   C402    1.303   .     A
O398   Cu410   1.980   .     S
O399   Cu409   1.980   .     S
O399   C402    1.303   .     A
O400   Cu410   1.980   .     S
O400   C401    1.303   .     A
C401   C418    1.472   .     S
C402   C417    1.472   .     S
O403   C407    1.293   .     A
O403   Cu409   1.929   .     S
O404   C408    1.293   .     A
O404   Cu410   1.929   .     S
O405   C408    1.293   .     A
O405   Cu409   1.929   .     S
O406   C407    1.293   .     A
O406   Cu410   1.929   .     S
C407   C411    1.407   .     S
C408   C412    1.407   .     S
Cu409  Cu410   2.698   .     S
Cu409  N423    2.028   .     S
Cu410  N424    2.028   .     S
C412   C807    1.189   .     S
C413   Cl425   1.777   .     S
C413   C418    1.414   .     A
C413   C503    1.391   1_455 S
C414   Cl426   1.777   .     S
C414   C417    1.414   .     A
C414   C460    1.391   .     S
C415   Cl427   1.777   .     S
C415   C417    1.414   .     A
C415   C457    1.391   .     S
C416   Cl428   1.777   .     S
C416   C418    1.414   .     A
C416   C502    1.391   1_455 S
C419   N424    1.374   .     A
C419   N429    1.430   .     S
C419   C686    1.421   1_545 S
C420   N423    1.374   .     A
C420   N432    1.430   .     S
C420   C553    1.421   .     S
C421   N435    1.430   .     S
C421   N424    1.374   .     A
C421   C684    1.421   1_545 S
C422   N423    1.374   .     A
C422   N438    1.430   .     S
C422   C551    1.421   .     S
N429   O430    1.299   .     A
N429   O431    1.301   .     A
N432   O434    1.301   .     A
N432   O433    1.299   .     A
N435   O437    1.299   .     A
N435   O436    1.301   .     A
N438   O439    1.301   .     A
N438   O440    1.299   .     A
O441   C445    1.303   .     A
O441   Cu453   1.980   .     S
O442   C446    1.303   .     A
O442   Cu454   1.980   .     S
O443   Cu453   1.980   .     S
O443   C446    1.303   .     A
O444   Cu454   1.980   .     S
O444   C445    1.303   .     A
C445   C462    1.472   .     S
C446   C461    1.472   .     S
O447   C451    1.293   .     A
O447   Cu453   1.929   .     S
O448   C452    1.293   .     A
O448   Cu454   1.929   .     S
O449   C452    1.293   .     A
O449   Cu453   1.929   .     S
O450   C451    1.293   .     A
O450   Cu454   1.929   .     S
C451   C455    1.407   .     S
C452   C456    1.407   .     S
Cu453  Cu454   2.698   .     S
Cu453  N467    2.028   .     S
Cu454  N468    2.028   .     S
C456   C851    1.189   .     S
C457   Cl469   1.777   .     S
C457   C462    1.414   .     A
C458   Cl470   1.777   .     S
C458   C461    1.414   .     A
C458   C504    1.391   .     S
C459   Cl471   1.777   .     S
C459   C461    1.414   .     A
C459   C501    1.391   .     S
C460   Cl472   1.777   .     S
C460   C462    1.414   .     A
C463   N468    1.374   .     A
C463   N473    1.430   .     S
C463   C730    1.421   1_545 S
C464   N467    1.374   .     A
C464   N476    1.430   .     S
C464   C597    1.421   .     S
C465   N479    1.430   .     S
C465   N468    1.374   .     A
C465   C728    1.421   1_545 S
C466   N467    1.374   .     A
C466   N482    1.430   .     S
C466   C595    1.421   .     S
N473   O474    1.299   .     A
N473   O475    1.301   .     A
N476   O478    1.301   .     A
N476   O477    1.299   .     A
N479   O481    1.299   .     A
N479   O480    1.301   .     A
N482   O483    1.301   .     A
N482   O484    1.299   .     A
O485   C489    1.303   .     A
O485   Cu497   1.980   .     S
O486   C490    1.303   .     A
O486   Cu498   1.980   .     S
O487   Cu497   1.980   .     S
O487   C490    1.303   .     A
O488   Cu498   1.980   .     S
O488   C489    1.303   .     A
C489   C506    1.472   .     S
C490   C505    1.472   .     S
O491   C495    1.293   .     A
O491   Cu497   1.929   .     S
O492   C496    1.293   .     A
O492   Cu498   1.929   .     S
O493   C496    1.293   .     A
O493   Cu497   1.929   .     S
O494   C495    1.293   .     A
O494   Cu498   1.929   .     S
C495   C499    1.407   .     S
C496   C500    1.407   .     S
Cu497  Cu498   2.698   .     S
Cu497  N511    2.028   .     S
Cu498  N512    2.028   .     S
C500   C895    1.189   .     S
C501   Cl513   1.777   .     S
C501   C506    1.414   .     A
C502   Cl514   1.777   .     S
C502   C505    1.414   .     A
C502   C416    1.391   1_655 S
C503   Cl515   1.777   .     S
C503   C505    1.414   .     A
C503   C413    1.391   1_655 S
C504   Cl516   1.777   .     S
C504   C506    1.414   .     A
C507   N512    1.374   .     A
C507   N517    1.430   .     S
C507   C774    1.421   1_545 S
C508   N511    1.374   .     A
C508   N520    1.430   .     S
C508   C641    1.421   .     S
C509   N523    1.430   .     S
C509   N512    1.374   .     A
C509   C772    1.421   1_545 S
C510   N511    1.374   .     A
C510   N526    1.430   .     S
C510   C639    1.421   .     S
N517   O518    1.299   .     A
N517   O519    1.301   .     A
N520   O522    1.301   .     A
N520   O521    1.299   .     A
N523   O525    1.299   .     A
N523   O524    1.301   .     A
N526   O527    1.301   .     A
N526   O528    1.299   .     A
O529   C533    1.303   .     A
O529   Cu541   1.980   .     S
O530   C534    1.303   .     A
O530   Cu542   1.980   .     S
O531   Cu541   1.980   .     S
O531   C534    1.303   .     A
O532   Cu542   1.980   .     S
O532   C533    1.303   .     A
C533   C550    1.472   .     S
C534   C549    1.472   .     S
O535   C539    1.293   .     A
O535   Cu541   1.929   .     S
O536   C540    1.293   .     A
O536   Cu542   1.929   .     S
O537   C540    1.293   .     A
O537   Cu541   1.929   .     S
O538   C539    1.293   .     A
O538   Cu542   1.929   .     S
C539   C543    1.407   .     S
C540   C544    1.407   .     S
Cu541  Cu542   2.698   .     S
Cu541  N555    2.028   .     S
Cu542  N556    2.028   .     S
C544   C939    1.189   .     S
C545   Cl557   1.777   .     S
C545   C550    1.414   .     A
C545   C635    1.391   1_455 S
C546   Cl558   1.777   .     S
C546   C549    1.414   .     A
C546   C592    1.391   .     S
C547   Cl559   1.777   .     S
C547   C549    1.414   .     A
C547   C589    1.391   .     S
C548   Cl560   1.777   .     S
C548   C550    1.414   .     A
C548   C634    1.391   1_455 S
C551   N556    1.374   .     A
C551   N561    1.430   .     S
C552   N555    1.374   .     A
C552   N564    1.430   .     S
C552   C685    1.421   .     S
C553   N567    1.430   .     S
C553   N556    1.374   .     A
C554   N555    1.374   .     A
C554   N570    1.430   .     S
C554   C683    1.421   .     S
N561   O562    1.299   .     A
N561   O563    1.301   .     A
N564   O566    1.301   .     A
N564   O565    1.299   .     A
N567   O569    1.299   .     A
N567   O568    1.301   .     A
N570   O571    1.301   .     A
N570   O572    1.299   .     A
O573   C577    1.303   .     A
O573   Cu585   1.980   .     S
O574   C578    1.303   .     A
O574   Cu586   1.980   .     S
O575   Cu585   1.980   .     S
O575   C578    1.303   .     A
O576   Cu586   1.980   .     S
O576   C577    1.303   .     A
C577   C594    1.472   .     S
C578   C593    1.472   .     S
O579   C583    1.293   .     A
O579   Cu585   1.929   .     S
O580   C584    1.293   .     A
O580   Cu586   1.929   .     S
O581   C584    1.293   .     A
O581   Cu585   1.929   .     S
O582   C583    1.293   .     A
O582   Cu586   1.929   .     S
C583   C587    1.407   .     S
C584   C588    1.407   .     S
Cu585  Cu586   2.698   .     S
Cu585  N599    2.028   .     S
Cu586  N600    2.028   .     S
C588   C983    1.189   .     S
C589   Cl601   1.777   .     S
C589   C594    1.414   .     A
C590   Cl602   1.777   .     S
C590   C593    1.414   .     A
C590   C636    1.391   .     S
C591   Cl603   1.777   .     S
C591   C593    1.414   .     A
C591   C633    1.391   .     S
C592   Cl604   1.777   .     S
C592   C594    1.414   .     A
C595   N600    1.374   .     A
C595   N605    1.430   .     S
C596   N599    1.374   .     A
C596   N608    1.430   .     S
C596   C729    1.421   .     S
C597   N611    1.430   .     S
C597   N600    1.374   .     A
C598   N599    1.374   .     A
C598   N614    1.430   .     S
C598   C727    1.421   .     S
N605   O606    1.299   .     A
N605   O607    1.301   .     A
N608   O610    1.301   .     A
N608   O609    1.299   .     A
N611   O613    1.299   .     A
N611   O612    1.301   .     A
N614   O615    1.301   .     A
N614   O616    1.299   .     A
O617   C621    1.303   .     A
O617   Cu629   1.980   .     S
O618   C622    1.303   .     A
O618   Cu630   1.980   .     S
O619   Cu629   1.980   .     S
O619   C622    1.303   .     A
O620   Cu630   1.980   .     S
O620   C621    1.303   .     A
C621   C638    1.472   .     S
C622   C637    1.472   .     S
O623   C627    1.293   .     A
O623   Cu629   1.929   .     S
O624   C628    1.293   .     A
O624   Cu630   1.929   .     S
O625   C628    1.293   .     A
O625   Cu629   1.929   .     S
O626   C627    1.293   .     A
O626   Cu630   1.929   .     S
C627   C631    1.407   .     S
C628   C632    1.407   .     S
Cu629  Cu630   2.698   .     S
Cu629  N643    2.028   .     S
Cu630  N644    2.028   .     S
C632   C1027   1.189   .     S
C633   Cl645   1.777   .     S
C633   C638    1.414   .     A
C634   Cl646   1.777   .     S
C634   C637    1.414   .     A
C634   C548    1.391   1_655 S
C635   Cl647   1.777   .     S
C635   C637    1.414   .     A
C635   C545    1.391   1_655 S
C636   Cl648   1.777   .     S
C636   C638    1.414   .     A
C639   N644    1.374   .     A
C639   N649    1.430   .     S
C640   N643    1.374   .     A
C640   N652    1.430   .     S
C640   C773    1.421   .     S
C641   N655    1.430   .     S
C641   N644    1.374   .     A
C642   N643    1.374   .     A
C642   N658    1.430   .     S
C642   C771    1.421   .     S
N649   O650    1.299   .     A
N649   O651    1.301   .     A
N652   O654    1.301   .     A
N652   O653    1.299   .     A
N655   O657    1.299   .     A
N655   O656    1.301   .     A
N658   O659    1.301   .     A
N658   O660    1.299   .     A
O661   C665    1.303   .     A
O661   Cu673   1.980   .     S
O662   C666    1.303   .     A
O662   Cu674   1.980   .     S
O663   Cu673   1.980   .     S
O663   C666    1.303   .     A
O664   Cu674   1.980   .     S
O664   C665    1.303   .     A
C665   C682    1.472   .     S
C666   C681    1.472   .     S
O667   C671    1.293   .     A
O667   Cu673   1.929   .     S
O668   C672    1.293   .     A
O668   Cu674   1.929   .     S
O669   C672    1.293   .     A
O669   Cu673   1.929   .     S
O670   C671    1.293   .     A
O670   Cu674   1.929   .     S
C671   C675    1.407   .     S
C672   C676    1.407   .     S
Cu673  Cu674   2.698   .     S
Cu673  N687    2.028   .     S
Cu674  N688    2.028   .     S
C676   C1071   1.189   .     S
C677   Cl689   1.777   .     S
C677   C682    1.414   .     A
C677   C767    1.391   1_455 S
C678   Cl690   1.777   .     S
C678   C681    1.414   .     A
C678   C724    1.391   .     S
C679   Cl691   1.777   .     S
C679   C681    1.414   .     A
C679   C721    1.391   .     S
C680   Cl692   1.777   .     S
C680   C682    1.414   .     A
C680   C766    1.391   1_455 S
C683   N688    1.374   .     A
C683   N693    1.430   .     S
C684   N687    1.374   .     A
C684   N696    1.430   .     S
C684   C421    1.421   1_565 S
C685   N699    1.430   .     S
C685   N688    1.374   .     A
C686   N687    1.374   .     A
C686   N702    1.430   .     S
C686   C419    1.421   1_565 S
N693   O694    1.299   .     A
N693   O695    1.301   .     A
N696   O698    1.301   .     A
N696   O697    1.299   .     A
N699   O701    1.299   .     A
N699   O700    1.301   .     A
N702   O703    1.301   .     A
N702   O704    1.299   .     A
O705   C709    1.303   .     A
O705   Cu717   1.980   .     S
O706   C710    1.303   .     A
O706   Cu718   1.980   .     S
O707   Cu717   1.980   .     S
O707   C710    1.303   .     A
O708   Cu718   1.980   .     S
O708   C709    1.303   .     A
C709   C726    1.472   .     S
C710   C725    1.472   .     S
O711   C715    1.293   .     A
O711   Cu717   1.929   .     S
O712   C716    1.293   .     A
O712   Cu718   1.929   .     S
O713   C716    1.293   .     A
O713   Cu717   1.929   .     S
O714   C715    1.293   .     A
O714   Cu718   1.929   .     S
C715   C719    1.407   .     S
C716   C720    1.407   .     S
Cu717  Cu718   2.698   .     S
Cu717  N731    2.028   .     S
Cu718  N732    2.028   .     S
C720   C1115   1.189   .     S
C721   Cl733   1.777   .     S
C721   C726    1.414   .     A
C722   Cl734   1.777   .     S
C722   C725    1.414   .     A
C722   C768    1.391   .     S
C723   Cl735   1.777   .     S
C723   C725    1.414   .     A
C723   C765    1.391   .     S
C724   Cl736   1.777   .     S
C724   C726    1.414   .     A
C727   N732    1.374   .     A
C727   N737    1.430   .     S
C728   N731    1.374   .     A
C728   N740    1.430   .     S
C728   C465    1.421   1_565 S
C729   N743    1.430   .     S
C729   N732    1.374   .     A
C730   N731    1.374   .     A
C730   N746    1.430   .     S
C730   C463    1.421   1_565 S
N737   O738    1.299   .     A
N737   O739    1.301   .     A
N740   O742    1.301   .     A
N740   O741    1.299   .     A
N743   O745    1.299   .     A
N743   O744    1.301   .     A
N746   O747    1.301   .     A
N746   O748    1.299   .     A
O749   C753    1.303   .     A
O749   Cu761   1.980   .     S
O750   C754    1.303   .     A
O750   Cu762   1.980   .     S
O751   Cu761   1.980   .     S
O751   C754    1.303   .     A
O752   Cu762   1.980   .     S
O752   C753    1.303   .     A
C753   C770    1.472   .     S
C754   C769    1.472   .     S
O755   C759    1.293   .     A
O755   Cu761   1.929   .     S
O756   C760    1.293   .     A
O756   Cu762   1.929   .     S
O757   C760    1.293   .     A
O757   Cu761   1.929   .     S
O758   C759    1.293   .     A
O758   Cu762   1.929   .     S
C759   C763    1.407   .     S
C760   C764    1.407   .     S
Cu761  Cu762   2.698   .     S
Cu761  N775    2.028   .     S
Cu762  N776    2.028   .     S
C764   C1159   1.189   .     S
C765   Cl777   1.777   .     S
C765   C770    1.414   .     A
C766   Cl778   1.777   .     S
C766   C769    1.414   .     A
C766   C680    1.391   1_655 S
C767   Cl779   1.777   .     S
C767   C769    1.414   .     A
C767   C677    1.391   1_655 S
C768   Cl780   1.777   .     S
C768   C770    1.414   .     A
C771   N776    1.374   .     A
C771   N781    1.430   .     S
C772   N775    1.374   .     A
C772   N784    1.430   .     S
C772   C509    1.421   1_565 S
C773   N787    1.430   .     S
C773   N776    1.374   .     A
C774   N775    1.374   .     A
C774   N790    1.430   .     S
C774   C507    1.421   1_565 S
N781   O782    1.299   .     A
N781   O783    1.301   .     A
N784   O786    1.301   .     A
N784   O785    1.299   .     A
N787   O789    1.299   .     A
N787   O788    1.301   .     A
N790   O791    1.301   .     A
N790   O792    1.299   .     A
O793   C797    1.303   .     A
O793   Cu805   1.980   .     S
O794   C798    1.303   .     A
O794   Cu806   1.980   .     S
O795   Cu805   1.980   .     S
O795   C798    1.303   .     A
O796   Cu806   1.980   .     S
O796   C797    1.303   .     A
C797   C814    1.472   .     S
C798   C813    1.472   .     S
O799   C803    1.293   .     A
O799   Cu805   1.929   .     S
O800   C804    1.293   .     A
O800   Cu806   1.929   .     S
O801   C804    1.293   .     A
O801   Cu805   1.929   .     S
O802   C803    1.293   .     A
O802   Cu806   1.929   .     S
C803   C807    1.407   .     S
C804   C808    1.407   .     S
Cu805  Cu806   2.698   .     S
Cu805  N819    2.028   .     S
Cu806  N820    2.028   .     S
C808   C15     1.189   1_556 S
C809   Cl821   1.777   .     S
C809   C814    1.414   .     A
C809   C899    1.391   1_455 S
C810   Cl822   1.777   .     S
C810   C813    1.414   .     A
C810   C856    1.391   .     S
C811   Cl823   1.777   .     S
C811   C813    1.414   .     A
C811   C853    1.391   .     S
C812   Cl824   1.777   .     S
C812   C814    1.414   .     A
C812   C898    1.391   1_455 S
C815   N820    1.374   .     A
C815   N825    1.430   .     S
C815   C1082   1.421   1_545 S
C816   N819    1.374   .     A
C816   N828    1.430   .     S
C816   C949    1.421   .     S
C817   N831    1.430   .     S
C817   N820    1.374   .     A
C817   C1080   1.421   1_545 S
C818   N819    1.374   .     A
C818   N834    1.430   .     S
C818   C947    1.421   .     S
N825   O826    1.299   .     A
N825   O827    1.301   .     A
N828   O830    1.301   .     A
N828   O829    1.299   .     A
N831   O833    1.299   .     A
N831   O832    1.301   .     A
N834   O835    1.301   .     A
N834   O836    1.299   .     A
O837   C841    1.303   .     A
O837   Cu849   1.980   .     S
O838   C842    1.303   .     A
O838   Cu850   1.980   .     S
O839   Cu849   1.980   .     S
O839   C842    1.303   .     A
O840   Cu850   1.980   .     S
O840   C841    1.303   .     A
C841   C858    1.472   .     S
C842   C857    1.472   .     S
O843   C847    1.293   .     A
O843   Cu849   1.929   .     S
O844   C848    1.293   .     A
O844   Cu850   1.929   .     S
O845   C848    1.293   .     A
O845   Cu849   1.929   .     S
O846   C847    1.293   .     A
O846   Cu850   1.929   .     S
C847   C851    1.407   .     S
C848   C852    1.407   .     S
Cu849  Cu850   2.698   .     S
Cu849  N863    2.028   .     S
Cu850  N864    2.028   .     S
C852   C59     1.189   1_556 S
C853   Cl865   1.777   .     S
C853   C858    1.414   .     A
C854   Cl866   1.777   .     S
C854   C857    1.414   .     A
C854   C900    1.391   .     S
C855   Cl867   1.777   .     S
C855   C857    1.414   .     A
C855   C897    1.391   .     S
C856   Cl868   1.777   .     S
C856   C858    1.414   .     A
C859   N864    1.374   .     A
C859   N869    1.430   .     S
C859   C1126   1.421   1_545 S
C860   N863    1.374   .     A
C860   N872    1.430   .     S
C860   C993    1.421   .     S
C861   N875    1.430   .     S
C861   N864    1.374   .     A
C861   C1124   1.421   1_545 S
C862   N863    1.374   .     A
C862   N878    1.430   .     S
C862   C991    1.421   .     S
N869   O870    1.299   .     A
N869   O871    1.301   .     A
N872   O874    1.301   .     A
N872   O873    1.299   .     A
N875   O877    1.299   .     A
N875   O876    1.301   .     A
N878   O879    1.301   .     A
N878   O880    1.299   .     A
O881   C885    1.303   .     A
O881   Cu893   1.980   .     S
O882   C886    1.303   .     A
O882   Cu894   1.980   .     S
O883   Cu893   1.980   .     S
O883   C886    1.303   .     A
O884   Cu894   1.980   .     S
O884   C885    1.303   .     A
C885   C902    1.472   .     S
C886   C901    1.472   .     S
O887   C891    1.293   .     A
O887   Cu893   1.929   .     S
O888   C892    1.293   .     A
O888   Cu894   1.929   .     S
O889   C892    1.293   .     A
O889   Cu893   1.929   .     S
O890   C891    1.293   .     A
O890   Cu894   1.929   .     S
C891   C895    1.407   .     S
C892   C896    1.407   .     S
Cu893  Cu894   2.698   .     S
Cu893  N907    2.028   .     S
Cu894  N908    2.028   .     S
C896   C103    1.189   1_556 S
C897   Cl909   1.777   .     S
C897   C902    1.414   .     A
C898   Cl910   1.777   .     S
C898   C901    1.414   .     A
C898   C812    1.391   1_655 S
C899   Cl911   1.777   .     S
C899   C901    1.414   .     A
C899   C809    1.391   1_655 S
C900   Cl912   1.777   .     S
C900   C902    1.414   .     A
C903   N908    1.374   .     A
C903   N913    1.430   .     S
C903   C1170   1.421   1_545 S
C904   N907    1.374   .     A
C904   N916    1.430   .     S
C904   C1037   1.421   .     S
C905   N919    1.430   .     S
C905   N908    1.374   .     A
C905   C1168   1.421   1_545 S
C906   N907    1.374   .     A
C906   N922    1.430   .     S
C906   C1035   1.421   .     S
N913   O914    1.299   .     A
N913   O915    1.301   .     A
N916   O918    1.301   .     A
N916   O917    1.299   .     A
N919   O921    1.299   .     A
N919   O920    1.301   .     A
N922   O923    1.301   .     A
N922   O924    1.299   .     A
O925   C929    1.303   .     A
O925   Cu937   1.980   .     S
O926   C930    1.303   .     A
O926   Cu938   1.980   .     S
O927   Cu937   1.980   .     S
O927   C930    1.303   .     A
O928   Cu938   1.980   .     S
O928   C929    1.303   .     A
C929   C946    1.472   .     S
C930   C945    1.472   .     S
O931   C935    1.293   .     A
O931   Cu937   1.929   .     S
O932   C936    1.293   .     A
O932   Cu938   1.929   .     S
O933   C936    1.293   .     A
O933   Cu937   1.929   .     S
O934   C935    1.293   .     A
O934   Cu938   1.929   .     S
C935   C939    1.407   .     S
C936   C940    1.407   .     S
Cu937  Cu938   2.698   .     S
Cu937  N951    2.028   .     S
Cu938  N952    2.028   .     S
C940   C147    1.189   1_556 S
C941   Cl953   1.777   .     S
C941   C946    1.414   .     A
C941   C1031   1.391   1_455 S
C942   Cl954   1.777   .     S
C942   C945    1.414   .     A
C942   C988    1.391   .     S
C943   Cl955   1.777   .     S
C943   C945    1.414   .     A
C943   C985    1.391   .     S
C944   Cl956   1.777   .     S
C944   C946    1.414   .     A
C944   C1030   1.391   1_455 S
C947   N952    1.374   .     A
C947   N957    1.430   .     S
C948   N951    1.374   .     A
C948   N960    1.430   .     S
C948   C1081   1.421   .     S
C949   N963    1.430   .     S
C949   N952    1.374   .     A
C950   N951    1.374   .     A
C950   N966    1.430   .     S
C950   C1079   1.421   .     S
N957   O958    1.299   .     A
N957   O959    1.301   .     A
N960   O962    1.301   .     A
N960   O961    1.299   .     A
N963   O965    1.299   .     A
N963   O964    1.301   .     A
N966   O967    1.301   .     A
N966   O968    1.299   .     A
O969   C973    1.303   .     A
O969   Cu981   1.980   .     S
O970   C974    1.303   .     A
O970   Cu982   1.980   .     S
O971   Cu981   1.980   .     S
O971   C974    1.303   .     A
O972   Cu982   1.980   .     S
O972   C973    1.303   .     A
C973   C990    1.472   .     S
C974   C989    1.472   .     S
O975   C979    1.293   .     A
O975   Cu981   1.929   .     S
O976   C980    1.293   .     A
O976   Cu982   1.929   .     S
O977   C980    1.293   .     A
O977   Cu981   1.929   .     S
O978   C979    1.293   .     A
O978   Cu982   1.929   .     S
C979   C983    1.407   .     S
C980   C984    1.407   .     S
Cu981  Cu982   2.698   .     S
Cu981  N995    2.028   .     S
Cu982  N996    2.028   .     S
C984   C191    1.189   1_556 S
C985   Cl997   1.777   .     S
C985   C990    1.414   .     A
C986   Cl998   1.777   .     S
C986   C989    1.414   .     A
C986   C1032   1.391   .     S
C987   Cl999   1.777   .     S
C987   C989    1.414   .     A
C987   C1029   1.391   .     S
C988   Cl1000  1.777   .     S
C988   C990    1.414   .     A
C991   N996    1.374   .     A
C991   N1001   1.430   .     S
C992   N995    1.374   .     A
C992   N1004   1.430   .     S
C992   C1125   1.421   .     S
C993   N1007   1.430   .     S
C993   N996    1.374   .     A
C994   N995    1.374   .     A
C994   N1010   1.430   .     S
C994   C1123   1.421   .     S
N1001  O1002   1.299   .     A
N1001  O1003   1.301   .     A
N1004  O1006   1.301   .     A
N1004  O1005   1.299   .     A
N1007  O1009   1.299   .     A
N1007  O1008   1.301   .     A
N1010  O1011   1.301   .     A
N1010  O1012   1.299   .     A
O1013  C1017   1.303   .     A
O1013  Cu1025  1.980   .     S
O1014  C1018   1.303   .     A
O1014  Cu1026  1.980   .     S
O1015  Cu1025  1.980   .     S
O1015  C1018   1.303   .     A
O1016  Cu1026  1.980   .     S
O1016  C1017   1.303   .     A
C1017  C1034   1.472   .     S
C1018  C1033   1.472   .     S
O1019  C1023   1.293   .     A
O1019  Cu1025  1.929   .     S
O1020  C1024   1.293   .     A
O1020  Cu1026  1.929   .     S
O1021  C1024   1.293   .     A
O1021  Cu1025  1.929   .     S
O1022  C1023   1.293   .     A
O1022  Cu1026  1.929   .     S
C1023  C1027   1.407   .     S
C1024  C1028   1.407   .     S
Cu1025 Cu1026  2.698   .     S
Cu1025 N1039   2.028   .     S
Cu1026 N1040   2.028   .     S
C1028  C235    1.189   1_556 S
C1029  Cl1041  1.777   .     S
C1029  C1034   1.414   .     A
C1030  Cl1042  1.777   .     S
C1030  C1033   1.414   .     A
C1030  C944    1.391   1_655 S
C1031  Cl1043  1.777   .     S
C1031  C1033   1.414   .     A
C1031  C941    1.391   1_655 S
C1032  Cl1044  1.777   .     S
C1032  C1034   1.414   .     A
C1035  N1040   1.374   .     A
C1035  N1045   1.430   .     S
C1036  N1039   1.374   .     A
C1036  N1048   1.430   .     S
C1036  C1169   1.421   .     S
C1037  N1051   1.430   .     S
C1037  N1040   1.374   .     A
C1038  N1039   1.374   .     A
C1038  N1054   1.430   .     S
C1038  C1167   1.421   .     S
N1045  O1046   1.299   .     A
N1045  O1047   1.301   .     A
N1048  O1050   1.301   .     A
N1048  O1049   1.299   .     A
N1051  O1053   1.299   .     A
N1051  O1052   1.301   .     A
N1054  O1055   1.301   .     A
N1054  O1056   1.299   .     A
O1057  C1061   1.303   .     A
O1057  Cu1069  1.980   .     S
O1058  C1062   1.303   .     A
O1058  Cu1070  1.980   .     S
O1059  Cu1069  1.980   .     S
O1059  C1062   1.303   .     A
O1060  Cu1070  1.980   .     S
O1060  C1061   1.303   .     A
C1061  C1078   1.472   .     S
C1062  C1077   1.472   .     S
O1063  C1067   1.293   .     A
O1063  Cu1069  1.929   .     S
O1064  C1068   1.293   .     A
O1064  Cu1070  1.929   .     S
O1065  C1068   1.293   .     A
O1065  Cu1069  1.929   .     S
O1066  C1067   1.293   .     A
O1066  Cu1070  1.929   .     S
C1067  C1071   1.407   .     S
C1068  C1072   1.407   .     S
Cu1069 Cu1070  2.698   .     S
Cu1069 N1083   2.028   .     S
Cu1070 N1084   2.028   .     S
C1072  C279    1.189   1_556 S
C1073  Cl1085  1.777   .     S
C1073  C1078   1.414   .     A
C1073  C1163   1.391   1_455 S
C1074  Cl1086  1.777   .     S
C1074  C1077   1.414   .     A
C1074  C1120   1.391   .     S
C1075  Cl1087  1.777   .     S
C1075  C1077   1.414   .     A
C1075  C1117   1.391   .     S
C1076  Cl1088  1.777   .     S
C1076  C1078   1.414   .     A
C1076  C1162   1.391   1_455 S
C1079  N1084   1.374   .     A
C1079  N1089   1.430   .     S
C1080  N1083   1.374   .     A
C1080  N1092   1.430   .     S
C1080  C817    1.421   1_565 S
C1081  N1095   1.430   .     S
C1081  N1084   1.374   .     A
C1082  N1083   1.374   .     A
C1082  N1098   1.430   .     S
C1082  C815    1.421   1_565 S
N1089  O1090   1.299   .     A
N1089  O1091   1.301   .     A
N1092  O1094   1.301   .     A
N1092  O1093   1.299   .     A
N1095  O1097   1.299   .     A
N1095  O1096   1.301   .     A
N1098  O1099   1.301   .     A
N1098  O1100   1.299   .     A
O1101  C1105   1.303   .     A
O1101  Cu1113  1.980   .     S
O1102  C1106   1.303   .     A
O1102  Cu1114  1.980   .     S
O1103  Cu1113  1.980   .     S
O1103  C1106   1.303   .     A
O1104  Cu1114  1.980   .     S
O1104  C1105   1.303   .     A
C1105  C1122   1.472   .     S
C1106  C1121   1.472   .     S
O1107  C1111   1.293   .     A
O1107  Cu1113  1.929   .     S
O1108  C1112   1.293   .     A
O1108  Cu1114  1.929   .     S
O1109  C1112   1.293   .     A
O1109  Cu1113  1.929   .     S
O1110  C1111   1.293   .     A
O1110  Cu1114  1.929   .     S
C1111  C1115   1.407   .     S
C1112  C1116   1.407   .     S
Cu1113 Cu1114  2.698   .     S
Cu1113 N1127   2.028   .     S
Cu1114 N1128   2.028   .     S
C1116  C323    1.189   1_556 S
C1117  Cl1129  1.777   .     S
C1117  C1122   1.414   .     A
C1118  Cl1130  1.777   .     S
C1118  C1121   1.414   .     A
C1118  C1164   1.391   .     S
C1119  Cl1131  1.777   .     S
C1119  C1121   1.414   .     A
C1119  C1161   1.391   .     S
C1120  Cl1132  1.777   .     S
C1120  C1122   1.414   .     A
C1123  N1128   1.374   .     A
C1123  N1133   1.430   .     S
C1124  N1127   1.374   .     A
C1124  N1136   1.430   .     S
C1124  C861    1.421   1_565 S
C1125  N1139   1.430   .     S
C1125  N1128   1.374   .     A
C1126  N1127   1.374   .     A
C1126  N1142   1.430   .     S
C1126  C859    1.421   1_565 S
N1133  O1134   1.299   .     A
N1133  O1135   1.301   .     A
N1136  O1138   1.301   .     A
N1136  O1137   1.299   .     A
N1139  O1141   1.299   .     A
N1139  O1140   1.301   .     A
N1142  O1143   1.301   .     A
N1142  O1144   1.299   .     A
O1145  C1149   1.303   .     A
O1145  Cu1157  1.980   .     S
O1146  C1150   1.303   .     A
O1146  Cu1158  1.980   .     S
O1147  Cu1157  1.980   .     S
O1147  C1150   1.303   .     A
O1148  Cu1158  1.980   .     S
O1148  C1149   1.303   .     A
C1149  C1166   1.472   .     S
C1150  C1165   1.472   .     S
O1151  C1155   1.293   .     A
O1151  Cu1157  1.929   .     S
O1152  C1156   1.293   .     A
O1152  Cu1158  1.929   .     S
O1153  C1156   1.293   .     A
O1153  Cu1157  1.929   .     S
O1154  C1155   1.293   .     A
O1154  Cu1158  1.929   .     S
C1155  C1159   1.407   .     S
C1156  C1160   1.407   .     S
Cu1157 Cu1158  2.698   .     S
Cu1157 N1171   2.028   .     S
Cu1158 N1172   2.028   .     S
C1160  C367    1.189   1_556 S
C1161  Cl1173  1.777   .     S
C1161  C1166   1.414   .     A
C1162  Cl1174  1.777   .     S
C1162  C1165   1.414   .     A
C1162  C1076   1.391   1_655 S
C1163  Cl1175  1.777   .     S
C1163  C1165   1.414   .     A
C1163  C1073   1.391   1_655 S
C1164  Cl1176  1.777   .     S
C1164  C1166   1.414   .     A
C1167  N1172   1.374   .     A
C1167  N1177   1.430   .     S
C1168  N1171   1.374   .     A
C1168  N1180   1.430   .     S
C1168  C905    1.421   1_565 S
C1169  N1183   1.430   .     S
C1169  N1172   1.374   .     A
C1170  N1171   1.374   .     A
C1170  N1186   1.430   .     S
C1170  C903    1.421   1_565 S
N1177  O1178   1.299   .     A
N1177  O1179   1.301   .     A
N1180  O1182   1.301   .     A
N1180  O1181   1.299   .     A
N1183  O1185   1.299   .     A
N1183  O1184   1.301   .     A
N1186  O1187   1.301   .     A
N1186  O1188   1.299   .     A
