data_str_m2_o10_o18_pcu_sym.15
_audit_creation_date              2020-01-03
_audit_creation_method            'Materials Studio'
_symmetry_space_group_name_H-M    'P1'
_symmetry_Int_Tables_number       1
_symmetry_cell_setting            triclinic
loop_
_symmetry_equiv_pos_as_xyz
  x,y,z
_cell_length_a                    22.6003
_cell_length_b                    26.1949
_cell_length_c                    31.5917
_cell_angle_alpha                 93.3600
_cell_angle_beta                  76.1571
_cell_angle_gamma                 102.3885
loop_
_atom_site_label
_atom_site_type_symbol
_atom_site_fract_x
_atom_site_fract_y
_atom_site_fract_z
_atom_site_U_iso_or_equiv
_atom_site_adp_type
_atom_site_occupancy
C1     C     0.18021   0.26632   0.25344   0.00000  Uiso   1.00
C2     C     0.20453   0.17236   0.16716   0.00000  Uiso   1.00
C3     C     0.10633   0.14833   0.37974   0.00000  Uiso   1.00
C4     C     0.22489   0.17783   0.11950   0.00000  Uiso   1.00
C5     C     0.03233   0.09603   0.43795   0.00000  Uiso   1.00
C6     C     0.30402   0.19438   0.05253   0.00000  Uiso   1.00
C7     C     0.04954   0.11389   0.39508   0.00000  Uiso   1.00
C8     C     0.28766   0.19144   0.09792   0.00000  Uiso   1.00
C9     C     0.14609   0.16364   0.40811   0.00000  Uiso   1.00
C10    C     0.17895   0.16983   0.09534   0.00000  Uiso   1.00
C11    C     0.12744   0.14706   0.45183   0.00000  Uiso   1.00
C12    C     0.15269   0.06708   0.24762   0.00000  Uiso   1.00
C13    C     0.19403   0.16662   0.04987   0.00000  Uiso   1.00
C14    C     0.06843   0.11616   0.46740   0.00000  Uiso   1.00
C15    C     0.25821   0.17972   0.02834   0.00000  Uiso   1.00
C16    C     0.16941   0.15525   0.47885   0.00000  Uiso   1.00
C17    C     0.14826   0.15050   0.02463   0.00000  Uiso   1.00
C18    C     0.04999   0.06009   0.09443   0.00000  Uiso   1.00
C19    C     0.31682   0.04199   0.12082   0.00000  Uiso   1.00
C20    C     0.21004   0.06340   0.44445   0.00000  Uiso   1.00
C21    C     0.22239   0.01987   0.41160   0.00000  Uiso   1.00
C22    C     0.27077   0.00433   0.29112   0.00000  Uiso   1.00
C23    C     0.08538   0.12319   0.04100   0.00000  Uiso   1.00
C24    C     0.31007   0.05028   0.30919   0.00000  Uiso   1.00
C25    C     0.14250   0.32268   0.17172   0.00000  Uiso   1.00
C26    C     0.10373   0.28680   0.14433   0.00000  Uiso   1.00
C27    C     0.23099   0.15125   0.46037   0.00000  Uiso   1.00
C28    C     0.04750   0.10438   0.01166   0.00000  Uiso   1.00
C29    C     0.27609   0.17244   0.48327   0.00000  Uiso   1.00
C30    C     0.18392   0.32199   0.26012   0.00000  Uiso   1.00
C31    C     0.14902   0.01189   0.24145   0.00000  Uiso   1.00
C32    C     0.12866   0.16092   0.33291   0.00000  Uiso   1.00
Cu33   Cu    0.10737   0.16108   0.24517   0.00000  Uiso   1.00
Cu34   Cu    0.22596   0.17225   0.25484   0.00000  Uiso   1.00
H35    H     0.00074   0.08200   0.02391   0.00000  Uiso   1.00
H36    H     0.33220   0.12860   0.21565   0.00000  Uiso   1.00
H37    H     0.08250   0.05529   0.11453   0.00000  Uiso   1.00
H38    H     0.05813   0.03391   0.06535   0.00000  Uiso   1.00
H39    H     0.28328   0.04751   0.10177   0.00000  Uiso   1.00
H40    H     0.30834   0.33326   0.12874   0.00000  Uiso   1.00
H41    H     0.30897   0.06484   0.15167   0.00000  Uiso   1.00
H42    H     0.15887   0.05959   0.45235   0.00000  Uiso   1.00
H43    H     0.22270   0.05521   0.47498   0.00000  Uiso   1.00
H44    H     0.27289   0.02144   0.39932   0.00000  Uiso   1.00
H45    H     0.20100   0.31476   0.42750   0.00000  Uiso   1.00
H46    H     0.32466   0.17867   0.46697   0.00000  Uiso   1.00
H47    H     0.20023   0.02242   0.38425   0.00000  Uiso   1.00
H48    H     0.29754   0.33036   0.25756   0.00000  Uiso   1.00
H49    H     0.26347   0.30367   0.31266   0.00000  Uiso   1.00
H50    H     0.28110   0.06967   0.33578   0.00000  Uiso   1.00
H51    H     0.01433   0.03738   0.32014   0.00000  Uiso   1.00
H52    H     0.33104   0.07929   0.28361   0.00000  Uiso   1.00
H53    H     0.18820   0.31069   0.16637   0.00000  Uiso   1.00
H54    H     0.15028   0.03029   0.16051   0.00000  Uiso   1.00
H55    H     0.12798   0.29054   0.10931   0.00000  Uiso   1.00
H56    H     0.09660   0.24560   0.15436   0.00000  Uiso   1.00
H57    H     0.13155   0.16725   0.11273   0.00000  Uiso   1.00
H58    H     0.05756   0.29729   0.14893   0.00000  Uiso   1.00
H59    H     0.19181   0.18799   0.39619   0.00000  Uiso   1.00
H60    H     0.32380   0.19982   0.11600   0.00000  Uiso   1.00
H61    H     0.01929   0.09988   0.37373   0.00000  Uiso   1.00
H62    H     0.32417   0.06696   0.44873   0.00000  Uiso   1.00
H63    H     0.01949   0.20518   0.03621   0.00000  Uiso   1.00
H64    H     0.00121   0.20491   0.28421   0.00000  Uiso   1.00
N65    N     0.31506   0.18068   0.26212   0.00000  Uiso   1.00
N66    N     0.01827   0.15265   0.23788   0.00000  Uiso   1.00
O67    O     0.12815   0.23809   0.24686   0.00000  Uiso   1.00
O68    O     0.24279   0.11402   0.42767   0.00000  Uiso   1.00
O69    O     0.21278   0.01638   0.29148   0.00000  Uiso   1.00
O70    O     0.11022   0.31807   0.21594   0.00000  Uiso   1.00
O71    O     0.20518   0.09524   0.25314   0.00000  Uiso   1.00
O72    O     0.22829   0.24753   0.25503   0.00000  Uiso   1.00
O73    O     0.10504   0.08580   0.24498   0.00000  Uiso   1.00
O74    O     0.08851   0.15930   0.30855   0.00000  Uiso   1.00
O75    O     0.24482   0.17403   0.19146   0.00000  Uiso   1.00
O76    O     0.18866   0.16874   0.31671   0.00000  Uiso   1.00
O77    O     0.14468   0.16460   0.18329   0.00000  Uiso   1.00
O78    O     0.06008   0.11387   0.08491   0.00000  Uiso   1.00
C79    C     0.51354   0.26632   0.25344   0.00000  Uiso   1.00
C80    C     0.53786   0.17236   0.16716   0.00000  Uiso   1.00
C81    C     0.43967   0.14833   0.37974   0.00000  Uiso   1.00
C82    C     0.55822   0.17783   0.11950   0.00000  Uiso   1.00
C83    C     0.36566   0.09603   0.43795   0.00000  Uiso   1.00
C84    C     0.63736   0.19438   0.05253   0.00000  Uiso   1.00
C85    C     0.38287   0.11389   0.39508   0.00000  Uiso   1.00
C86    C     0.62099   0.19144   0.09792   0.00000  Uiso   1.00
C87    C     0.47942   0.16364   0.40811   0.00000  Uiso   1.00
C88    C     0.51228   0.16983   0.09534   0.00000  Uiso   1.00
C89    C     0.46078   0.14706   0.45183   0.00000  Uiso   1.00
C90    C     0.48602   0.06708   0.24762   0.00000  Uiso   1.00
C91    C     0.52737   0.16662   0.04987   0.00000  Uiso   1.00
C92    C     0.40176   0.11616   0.46740   0.00000  Uiso   1.00
C93    C     0.59155   0.17972   0.02834   0.00000  Uiso   1.00
C94    C     0.50274   0.15525   0.47885   0.00000  Uiso   1.00
C95    C     0.48159   0.15050   0.02463   0.00000  Uiso   1.00
C96    C     0.38332   0.06009   0.09443   0.00000  Uiso   1.00
C97    C     0.65015   0.04199   0.12082   0.00000  Uiso   1.00
C98    C     0.54338   0.06340   0.44445   0.00000  Uiso   1.00
C99    C     0.55572   0.01987   0.41160   0.00000  Uiso   1.00
C100   C     0.60411   0.00433   0.29112   0.00000  Uiso   1.00
C101   C     0.41872   0.12319   0.04100   0.00000  Uiso   1.00
C102   C     0.64340   0.05028   0.30919   0.00000  Uiso   1.00
C103   C     0.47583   0.32268   0.17172   0.00000  Uiso   1.00
C104   C     0.43706   0.28680   0.14433   0.00000  Uiso   1.00
C105   C     0.56433   0.15125   0.46037   0.00000  Uiso   1.00
C106   C     0.38083   0.10438   0.01166   0.00000  Uiso   1.00
C107   C     0.60942   0.17244   0.48327   0.00000  Uiso   1.00
C108   C     0.51726   0.32199   0.26012   0.00000  Uiso   1.00
C109   C     0.48236   0.01189   0.24145   0.00000  Uiso   1.00
C110   C     0.46199   0.16092   0.33291   0.00000  Uiso   1.00
Cu111  Cu    0.44071   0.16108   0.24517   0.00000  Uiso   1.00
Cu112  Cu    0.55929   0.17225   0.25484   0.00000  Uiso   1.00
H113   H     0.33407   0.08200   0.02391   0.00000  Uiso   1.00
H114   H     0.66554   0.12860   0.21565   0.00000  Uiso   1.00
H115   H     0.41584   0.05529   0.11453   0.00000  Uiso   1.00
H116   H     0.39147   0.03391   0.06535   0.00000  Uiso   1.00
H117   H     0.61661   0.04751   0.10177   0.00000  Uiso   1.00
H118   H     0.64167   0.33326   0.12874   0.00000  Uiso   1.00
H119   H     0.64230   0.06484   0.15167   0.00000  Uiso   1.00
H120   H     0.49221   0.05959   0.45235   0.00000  Uiso   1.00
H121   H     0.55604   0.05521   0.47498   0.00000  Uiso   1.00
H122   H     0.60622   0.02144   0.39932   0.00000  Uiso   1.00
H123   H     0.53434   0.31476   0.42750   0.00000  Uiso   1.00
H124   H     0.65799   0.17867   0.46697   0.00000  Uiso   1.00
H125   H     0.53357   0.02242   0.38425   0.00000  Uiso   1.00
H126   H     0.63087   0.33036   0.25756   0.00000  Uiso   1.00
H127   H     0.59680   0.30367   0.31266   0.00000  Uiso   1.00
H128   H     0.61444   0.06967   0.33578   0.00000  Uiso   1.00
H129   H     0.34766   0.03738   0.32014   0.00000  Uiso   1.00
H130   H     0.66438   0.07929   0.28361   0.00000  Uiso   1.00
H131   H     0.52154   0.31069   0.16637   0.00000  Uiso   1.00
H132   H     0.48362   0.03029   0.16051   0.00000  Uiso   1.00
H133   H     0.46132   0.29054   0.10931   0.00000  Uiso   1.00
H134   H     0.42994   0.24560   0.15436   0.00000  Uiso   1.00
H135   H     0.46488   0.16725   0.11273   0.00000  Uiso   1.00
H136   H     0.39089   0.29729   0.14893   0.00000  Uiso   1.00
H137   H     0.52514   0.18799   0.39619   0.00000  Uiso   1.00
H138   H     0.65713   0.19982   0.11600   0.00000  Uiso   1.00
H139   H     0.35262   0.09988   0.37373   0.00000  Uiso   1.00
H140   H     0.65750   0.06696   0.44873   0.00000  Uiso   1.00
H141   H     0.35283   0.20518   0.03621   0.00000  Uiso   1.00
H142   H     0.33455   0.20491   0.28421   0.00000  Uiso   1.00
N143   N     0.64839   0.18068   0.26212   0.00000  Uiso   1.00
N144   N     0.35161   0.15265   0.23788   0.00000  Uiso   1.00
O145   O     0.46148   0.23809   0.24686   0.00000  Uiso   1.00
O146   O     0.57613   0.11402   0.42767   0.00000  Uiso   1.00
O147   O     0.54611   0.01638   0.29148   0.00000  Uiso   1.00
O148   O     0.44355   0.31807   0.21594   0.00000  Uiso   1.00
O149   O     0.53852   0.09524   0.25314   0.00000  Uiso   1.00
O150   O     0.56163   0.24753   0.25503   0.00000  Uiso   1.00
O151   O     0.43837   0.08580   0.24498   0.00000  Uiso   1.00
O152   O     0.42185   0.15930   0.30855   0.00000  Uiso   1.00
O153   O     0.57815   0.17403   0.19146   0.00000  Uiso   1.00
O154   O     0.52199   0.16874   0.31671   0.00000  Uiso   1.00
O155   O     0.47801   0.16460   0.18329   0.00000  Uiso   1.00
O156   O     0.39342   0.11387   0.08491   0.00000  Uiso   1.00
C157   C     0.84687   0.26632   0.25344   0.00000  Uiso   1.00
C158   C     0.87120   0.17236   0.16716   0.00000  Uiso   1.00
C159   C     0.77300   0.14833   0.37974   0.00000  Uiso   1.00
C160   C     0.89155   0.17783   0.11950   0.00000  Uiso   1.00
C161   C     0.69899   0.09603   0.43795   0.00000  Uiso   1.00
C162   C     0.97069   0.19438   0.05253   0.00000  Uiso   1.00
C163   C     0.71620   0.11389   0.39508   0.00000  Uiso   1.00
C164   C     0.95432   0.19144   0.09792   0.00000  Uiso   1.00
C165   C     0.81275   0.16364   0.40811   0.00000  Uiso   1.00
C166   C     0.84562   0.16983   0.09534   0.00000  Uiso   1.00
C167   C     0.79411   0.14706   0.45183   0.00000  Uiso   1.00
C168   C     0.81935   0.06708   0.24762   0.00000  Uiso   1.00
C169   C     0.86070   0.16662   0.04987   0.00000  Uiso   1.00
C170   C     0.73509   0.11616   0.46740   0.00000  Uiso   1.00
C171   C     0.92488   0.17972   0.02834   0.00000  Uiso   1.00
C172   C     0.83607   0.15525   0.47885   0.00000  Uiso   1.00
C173   C     0.81493   0.15050   0.02463   0.00000  Uiso   1.00
C174   C     0.71665   0.06009   0.09443   0.00000  Uiso   1.00
C175   C     0.98349   0.04199   0.12082   0.00000  Uiso   1.00
C176   C     0.87671   0.06340   0.44445   0.00000  Uiso   1.00
C177   C     0.88906   0.01987   0.41160   0.00000  Uiso   1.00
C178   C     0.93744   0.00433   0.29112   0.00000  Uiso   1.00
C179   C     0.75205   0.12319   0.04100   0.00000  Uiso   1.00
C180   C     0.97674   0.05028   0.30919   0.00000  Uiso   1.00
C181   C     0.80917   0.32268   0.17172   0.00000  Uiso   1.00
C182   C     0.77039   0.28680   0.14433   0.00000  Uiso   1.00
C183   C     0.89766   0.15125   0.46037   0.00000  Uiso   1.00
C184   C     0.71416   0.10438   0.01166   0.00000  Uiso   1.00
C185   C     0.94276   0.17244   0.48327   0.00000  Uiso   1.00
C186   C     0.85059   0.32199   0.26012   0.00000  Uiso   1.00
C187   C     0.81569   0.01189   0.24145   0.00000  Uiso   1.00
C188   C     0.79533   0.16092   0.33291   0.00000  Uiso   1.00
Cu189  Cu    0.77404   0.16108   0.24517   0.00000  Uiso   1.00
Cu190  Cu    0.89263   0.17225   0.25484   0.00000  Uiso   1.00
H191   H     0.66740   0.08200   0.02391   0.00000  Uiso   1.00
H192   H     0.99887   0.12860   0.21565   0.00000  Uiso   1.00
H193   H     0.74917   0.05529   0.11453   0.00000  Uiso   1.00
H194   H     0.72480   0.03391   0.06535   0.00000  Uiso   1.00
H195   H     0.94994   0.04751   0.10177   0.00000  Uiso   1.00
H196   H     0.97501   0.33326   0.12874   0.00000  Uiso   1.00
H197   H     0.97563   0.06484   0.15167   0.00000  Uiso   1.00
H198   H     0.82554   0.05959   0.45235   0.00000  Uiso   1.00
H199   H     0.88937   0.05521   0.47498   0.00000  Uiso   1.00
H200   H     0.93955   0.02144   0.39932   0.00000  Uiso   1.00
H201   H     0.86767   0.31476   0.42750   0.00000  Uiso   1.00
H202   H     0.99132   0.17867   0.46697   0.00000  Uiso   1.00
H203   H     0.86690   0.02242   0.38425   0.00000  Uiso   1.00
H204   H     0.96421   0.33036   0.25756   0.00000  Uiso   1.00
H205   H     0.93013   0.30367   0.31266   0.00000  Uiso   1.00
H206   H     0.94777   0.06967   0.33578   0.00000  Uiso   1.00
H207   H     0.68100   0.03738   0.32014   0.00000  Uiso   1.00
H208   H     0.99771   0.07929   0.28361   0.00000  Uiso   1.00
H209   H     0.85487   0.31069   0.16637   0.00000  Uiso   1.00
H210   H     0.81695   0.03029   0.16051   0.00000  Uiso   1.00
H211   H     0.79465   0.29054   0.10931   0.00000  Uiso   1.00
H212   H     0.76327   0.24560   0.15436   0.00000  Uiso   1.00
H213   H     0.79821   0.16725   0.11273   0.00000  Uiso   1.00
H214   H     0.72423   0.29729   0.14893   0.00000  Uiso   1.00
H215   H     0.85847   0.18799   0.39619   0.00000  Uiso   1.00
H216   H     0.99046   0.19982   0.11600   0.00000  Uiso   1.00
H217   H     0.68595   0.09988   0.37373   0.00000  Uiso   1.00
H218   H     0.99084   0.06696   0.44873   0.00000  Uiso   1.00
H219   H     0.68616   0.20518   0.03621   0.00000  Uiso   1.00
H220   H     0.66788   0.20491   0.28421   0.00000  Uiso   1.00
N221   N     0.98173   0.18068   0.26212   0.00000  Uiso   1.00
N222   N     0.68494   0.15265   0.23788   0.00000  Uiso   1.00
O223   O     0.79482   0.23809   0.24686   0.00000  Uiso   1.00
O224   O     0.90946   0.11402   0.42767   0.00000  Uiso   1.00
O225   O     0.87945   0.01638   0.29148   0.00000  Uiso   1.00
O226   O     0.77688   0.31807   0.21594   0.00000  Uiso   1.00
O227   O     0.87185   0.09524   0.25314   0.00000  Uiso   1.00
O228   O     0.89496   0.24753   0.25503   0.00000  Uiso   1.00
O229   O     0.77171   0.08580   0.24498   0.00000  Uiso   1.00
O230   O     0.75518   0.15930   0.30855   0.00000  Uiso   1.00
O231   O     0.91149   0.17403   0.19146   0.00000  Uiso   1.00
O232   O     0.85532   0.16874   0.31671   0.00000  Uiso   1.00
O233   O     0.81134   0.16460   0.18329   0.00000  Uiso   1.00
O234   O     0.72675   0.11387   0.08491   0.00000  Uiso   1.00
C235   C     0.18021   0.59965   0.25344   0.00000  Uiso   1.00
C236   C     0.20453   0.50569   0.16716   0.00000  Uiso   1.00
C237   C     0.10633   0.48166   0.37974   0.00000  Uiso   1.00
C238   C     0.22489   0.51116   0.11950   0.00000  Uiso   1.00
C239   C     0.03233   0.42936   0.43795   0.00000  Uiso   1.00
C240   C     0.30402   0.52771   0.05253   0.00000  Uiso   1.00
C241   C     0.04954   0.44722   0.39508   0.00000  Uiso   1.00
C242   C     0.28766   0.52477   0.09792   0.00000  Uiso   1.00
C243   C     0.14609   0.49697   0.40811   0.00000  Uiso   1.00
C244   C     0.17895   0.50316   0.09534   0.00000  Uiso   1.00
C245   C     0.12744   0.48040   0.45183   0.00000  Uiso   1.00
C246   C     0.15269   0.40042   0.24762   0.00000  Uiso   1.00
C247   C     0.19403   0.49995   0.04987   0.00000  Uiso   1.00
C248   C     0.06843   0.44949   0.46740   0.00000  Uiso   1.00
C249   C     0.25821   0.51306   0.02834   0.00000  Uiso   1.00
C250   C     0.16941   0.48858   0.47885   0.00000  Uiso   1.00
C251   C     0.14826   0.48384   0.02463   0.00000  Uiso   1.00
C252   C     0.04999   0.39343   0.09443   0.00000  Uiso   1.00
C253   C     0.31682   0.37532   0.12082   0.00000  Uiso   1.00
C254   C     0.21004   0.39673   0.44445   0.00000  Uiso   1.00
C255   C     0.22239   0.35321   0.41160   0.00000  Uiso   1.00
C256   C     0.27077   0.33766   0.29112   0.00000  Uiso   1.00
C257   C     0.08538   0.45652   0.04100   0.00000  Uiso   1.00
C258   C     0.31007   0.38361   0.30919   0.00000  Uiso   1.00
C259   C     0.14250   0.65602   0.17172   0.00000  Uiso   1.00
C260   C     0.10373   0.62014   0.14433   0.00000  Uiso   1.00
C261   C     0.23099   0.48458   0.46037   0.00000  Uiso   1.00
C262   C     0.04750   0.43771   0.01166   0.00000  Uiso   1.00
C263   C     0.27609   0.50577   0.48327   0.00000  Uiso   1.00
C264   C     0.18392   0.65532   0.26012   0.00000  Uiso   1.00
C265   C     0.14902   0.34522   0.24145   0.00000  Uiso   1.00
C266   C     0.12866   0.49426   0.33291   0.00000  Uiso   1.00
Cu267  Cu    0.10737   0.49441   0.24517   0.00000  Uiso   1.00
Cu268  Cu    0.22596   0.50559   0.25484   0.00000  Uiso   1.00
H269   H     0.00074   0.41533   0.02391   0.00000  Uiso   1.00
H270   H     0.33220   0.46193   0.21565   0.00000  Uiso   1.00
H271   H     0.08250   0.38862   0.11453   0.00000  Uiso   1.00
H272   H     0.05813   0.36724   0.06535   0.00000  Uiso   1.00
H273   H     0.28328   0.38084   0.10177   0.00000  Uiso   1.00
H274   H     0.30834   0.66659   0.12874   0.00000  Uiso   1.00
H275   H     0.30897   0.39817   0.15167   0.00000  Uiso   1.00
H276   H     0.15887   0.39292   0.45235   0.00000  Uiso   1.00
H277   H     0.22270   0.38854   0.47498   0.00000  Uiso   1.00
H278   H     0.27289   0.35477   0.39932   0.00000  Uiso   1.00
H279   H     0.20100   0.64810   0.42750   0.00000  Uiso   1.00
H280   H     0.32466   0.51200   0.46697   0.00000  Uiso   1.00
H281   H     0.20023   0.35575   0.38425   0.00000  Uiso   1.00
H282   H     0.29754   0.66369   0.25756   0.00000  Uiso   1.00
H283   H     0.26347   0.63700   0.31266   0.00000  Uiso   1.00
H284   H     0.28110   0.40301   0.33578   0.00000  Uiso   1.00
H285   H     0.01433   0.37072   0.32014   0.00000  Uiso   1.00
H286   H     0.33104   0.41263   0.28361   0.00000  Uiso   1.00
H287   H     0.18820   0.64402   0.16637   0.00000  Uiso   1.00
H288   H     0.15028   0.36362   0.16051   0.00000  Uiso   1.00
H289   H     0.12798   0.62387   0.10931   0.00000  Uiso   1.00
H290   H     0.09660   0.57894   0.15436   0.00000  Uiso   1.00
H291   H     0.13155   0.50059   0.11273   0.00000  Uiso   1.00
H292   H     0.05756   0.63063   0.14893   0.00000  Uiso   1.00
H293   H     0.19181   0.52133   0.39619   0.00000  Uiso   1.00
H294   H     0.32380   0.53315   0.11600   0.00000  Uiso   1.00
H295   H     0.01929   0.43321   0.37373   0.00000  Uiso   1.00
H296   H     0.32417   0.40030   0.44873   0.00000  Uiso   1.00
H297   H     0.01949   0.53852   0.03621   0.00000  Uiso   1.00
H298   H     0.00121   0.53825   0.28421   0.00000  Uiso   1.00
N299   N     0.31506   0.51401   0.26212   0.00000  Uiso   1.00
N300   N     0.01827   0.48599   0.23788   0.00000  Uiso   1.00
O301   O     0.12815   0.57142   0.24686   0.00000  Uiso   1.00
O302   O     0.24279   0.44735   0.42767   0.00000  Uiso   1.00
O303   O     0.21278   0.34971   0.29148   0.00000  Uiso   1.00
O304   O     0.11022   0.65140   0.21594   0.00000  Uiso   1.00
O305   O     0.20518   0.42858   0.25314   0.00000  Uiso   1.00
O306   O     0.22829   0.58086   0.25503   0.00000  Uiso   1.00
O307   O     0.10504   0.41914   0.24498   0.00000  Uiso   1.00
O308   O     0.08851   0.49263   0.30855   0.00000  Uiso   1.00
O309   O     0.24482   0.50737   0.19146   0.00000  Uiso   1.00
O310   O     0.18866   0.50207   0.31671   0.00000  Uiso   1.00
O311   O     0.14468   0.49793   0.18329   0.00000  Uiso   1.00
O312   O     0.06008   0.44720   0.08491   0.00000  Uiso   1.00
C313   C     0.51354   0.59965   0.25344   0.00000  Uiso   1.00
C314   C     0.53786   0.50569   0.16716   0.00000  Uiso   1.00
C315   C     0.43967   0.48166   0.37974   0.00000  Uiso   1.00
C316   C     0.55822   0.51116   0.11950   0.00000  Uiso   1.00
C317   C     0.36566   0.42936   0.43795   0.00000  Uiso   1.00
C318   C     0.63736   0.52771   0.05253   0.00000  Uiso   1.00
C319   C     0.38287   0.44722   0.39508   0.00000  Uiso   1.00
C320   C     0.62099   0.52477   0.09792   0.00000  Uiso   1.00
C321   C     0.47942   0.49697   0.40811   0.00000  Uiso   1.00
C322   C     0.51228   0.50316   0.09534   0.00000  Uiso   1.00
C323   C     0.46078   0.48040   0.45183   0.00000  Uiso   1.00
C324   C     0.48602   0.40042   0.24762   0.00000  Uiso   1.00
C325   C     0.52737   0.49995   0.04987   0.00000  Uiso   1.00
C326   C     0.40176   0.44949   0.46740   0.00000  Uiso   1.00
C327   C     0.59155   0.51306   0.02834   0.00000  Uiso   1.00
C328   C     0.50274   0.48858   0.47885   0.00000  Uiso   1.00
C329   C     0.48159   0.48384   0.02463   0.00000  Uiso   1.00
C330   C     0.38332   0.39343   0.09443   0.00000  Uiso   1.00
C331   C     0.65015   0.37532   0.12082   0.00000  Uiso   1.00
C332   C     0.54338   0.39673   0.44445   0.00000  Uiso   1.00
C333   C     0.55572   0.35321   0.41160   0.00000  Uiso   1.00
C334   C     0.60411   0.33766   0.29112   0.00000  Uiso   1.00
C335   C     0.41872   0.45652   0.04100   0.00000  Uiso   1.00
C336   C     0.64340   0.38361   0.30919   0.00000  Uiso   1.00
C337   C     0.47583   0.65602   0.17172   0.00000  Uiso   1.00
C338   C     0.43706   0.62014   0.14433   0.00000  Uiso   1.00
C339   C     0.56433   0.48458   0.46037   0.00000  Uiso   1.00
C340   C     0.38083   0.43771   0.01166   0.00000  Uiso   1.00
C341   C     0.60942   0.50577   0.48327   0.00000  Uiso   1.00
C342   C     0.51726   0.65532   0.26012   0.00000  Uiso   1.00
C343   C     0.48236   0.34522   0.24145   0.00000  Uiso   1.00
C344   C     0.46199   0.49426   0.33291   0.00000  Uiso   1.00
Cu345  Cu    0.44071   0.49441   0.24517   0.00000  Uiso   1.00
Cu346  Cu    0.55929   0.50559   0.25484   0.00000  Uiso   1.00
H347   H     0.33407   0.41533   0.02391   0.00000  Uiso   1.00
H348   H     0.66554   0.46193   0.21565   0.00000  Uiso   1.00
H349   H     0.41584   0.38862   0.11453   0.00000  Uiso   1.00
H350   H     0.39147   0.36724   0.06535   0.00000  Uiso   1.00
H351   H     0.61661   0.38084   0.10177   0.00000  Uiso   1.00
H352   H     0.64167   0.66659   0.12874   0.00000  Uiso   1.00
H353   H     0.64230   0.39817   0.15167   0.00000  Uiso   1.00
H354   H     0.49221   0.39292   0.45235   0.00000  Uiso   1.00
H355   H     0.55604   0.38854   0.47498   0.00000  Uiso   1.00
H356   H     0.60622   0.35477   0.39932   0.00000  Uiso   1.00
H357   H     0.53434   0.64810   0.42750   0.00000  Uiso   1.00
H358   H     0.65799   0.51200   0.46697   0.00000  Uiso   1.00
H359   H     0.53357   0.35575   0.38425   0.00000  Uiso   1.00
H360   H     0.63087   0.66369   0.25756   0.00000  Uiso   1.00
H361   H     0.59680   0.63700   0.31266   0.00000  Uiso   1.00
H362   H     0.61444   0.40301   0.33578   0.00000  Uiso   1.00
H363   H     0.34766   0.37072   0.32014   0.00000  Uiso   1.00
H364   H     0.66438   0.41263   0.28361   0.00000  Uiso   1.00
H365   H     0.52154   0.64402   0.16637   0.00000  Uiso   1.00
H366   H     0.48362   0.36362   0.16051   0.00000  Uiso   1.00
H367   H     0.46132   0.62387   0.10931   0.00000  Uiso   1.00
H368   H     0.42994   0.57894   0.15436   0.00000  Uiso   1.00
H369   H     0.46488   0.50059   0.11273   0.00000  Uiso   1.00
H370   H     0.39089   0.63063   0.14893   0.00000  Uiso   1.00
H371   H     0.52514   0.52133   0.39619   0.00000  Uiso   1.00
H372   H     0.65713   0.53315   0.11600   0.00000  Uiso   1.00
H373   H     0.35262   0.43321   0.37373   0.00000  Uiso   1.00
H374   H     0.65750   0.40030   0.44873   0.00000  Uiso   1.00
H375   H     0.35283   0.53852   0.03621   0.00000  Uiso   1.00
H376   H     0.33455   0.53825   0.28421   0.00000  Uiso   1.00
N377   N     0.64839   0.51401   0.26212   0.00000  Uiso   1.00
N378   N     0.35161   0.48599   0.23788   0.00000  Uiso   1.00
O379   O     0.46148   0.57142   0.24686   0.00000  Uiso   1.00
O380   O     0.57613   0.44735   0.42767   0.00000  Uiso   1.00
O381   O     0.54611   0.34971   0.29148   0.00000  Uiso   1.00
O382   O     0.44355   0.65140   0.21594   0.00000  Uiso   1.00
O383   O     0.53852   0.42858   0.25314   0.00000  Uiso   1.00
O384   O     0.56163   0.58086   0.25503   0.00000  Uiso   1.00
O385   O     0.43837   0.41914   0.24498   0.00000  Uiso   1.00
O386   O     0.42185   0.49263   0.30855   0.00000  Uiso   1.00
O387   O     0.57815   0.50737   0.19146   0.00000  Uiso   1.00
O388   O     0.52199   0.50207   0.31671   0.00000  Uiso   1.00
O389   O     0.47801   0.49793   0.18329   0.00000  Uiso   1.00
O390   O     0.39342   0.44720   0.08491   0.00000  Uiso   1.00
C391   C     0.84687   0.59965   0.25344   0.00000  Uiso   1.00
C392   C     0.87120   0.50569   0.16716   0.00000  Uiso   1.00
C393   C     0.77300   0.48166   0.37974   0.00000  Uiso   1.00
C394   C     0.89155   0.51116   0.11950   0.00000  Uiso   1.00
C395   C     0.69899   0.42936   0.43795   0.00000  Uiso   1.00
C396   C     0.97069   0.52771   0.05253   0.00000  Uiso   1.00
C397   C     0.71620   0.44722   0.39508   0.00000  Uiso   1.00
C398   C     0.95432   0.52477   0.09792   0.00000  Uiso   1.00
C399   C     0.81275   0.49697   0.40811   0.00000  Uiso   1.00
C400   C     0.84562   0.50316   0.09534   0.00000  Uiso   1.00
C401   C     0.79411   0.48040   0.45183   0.00000  Uiso   1.00
C402   C     0.81935   0.40042   0.24762   0.00000  Uiso   1.00
C403   C     0.86070   0.49995   0.04987   0.00000  Uiso   1.00
C404   C     0.73509   0.44949   0.46740   0.00000  Uiso   1.00
C405   C     0.92488   0.51306   0.02834   0.00000  Uiso   1.00
C406   C     0.83607   0.48858   0.47885   0.00000  Uiso   1.00
C407   C     0.81493   0.48384   0.02463   0.00000  Uiso   1.00
C408   C     0.71665   0.39343   0.09443   0.00000  Uiso   1.00
C409   C     0.98349   0.37532   0.12082   0.00000  Uiso   1.00
C410   C     0.87671   0.39673   0.44445   0.00000  Uiso   1.00
C411   C     0.88906   0.35321   0.41160   0.00000  Uiso   1.00
C412   C     0.93744   0.33766   0.29112   0.00000  Uiso   1.00
C413   C     0.75205   0.45652   0.04100   0.00000  Uiso   1.00
C414   C     0.97674   0.38361   0.30919   0.00000  Uiso   1.00
C415   C     0.80917   0.65602   0.17172   0.00000  Uiso   1.00
C416   C     0.77039   0.62014   0.14433   0.00000  Uiso   1.00
C417   C     0.89766   0.48458   0.46037   0.00000  Uiso   1.00
C418   C     0.71416   0.43771   0.01166   0.00000  Uiso   1.00
C419   C     0.94276   0.50577   0.48327   0.00000  Uiso   1.00
C420   C     0.85059   0.65532   0.26012   0.00000  Uiso   1.00
C421   C     0.81569   0.34522   0.24145   0.00000  Uiso   1.00
C422   C     0.79533   0.49426   0.33291   0.00000  Uiso   1.00
Cu423  Cu    0.77404   0.49441   0.24517   0.00000  Uiso   1.00
Cu424  Cu    0.89263   0.50559   0.25484   0.00000  Uiso   1.00
H425   H     0.66740   0.41533   0.02391   0.00000  Uiso   1.00
H426   H     0.99887   0.46193   0.21565   0.00000  Uiso   1.00
H427   H     0.74917   0.38862   0.11453   0.00000  Uiso   1.00
H428   H     0.72480   0.36724   0.06535   0.00000  Uiso   1.00
H429   H     0.94994   0.38084   0.10177   0.00000  Uiso   1.00
H430   H     0.97501   0.66659   0.12874   0.00000  Uiso   1.00
H431   H     0.97563   0.39817   0.15167   0.00000  Uiso   1.00
H432   H     0.82554   0.39292   0.45235   0.00000  Uiso   1.00
H433   H     0.88937   0.38854   0.47498   0.00000  Uiso   1.00
H434   H     0.93955   0.35477   0.39932   0.00000  Uiso   1.00
H435   H     0.86767   0.64810   0.42750   0.00000  Uiso   1.00
H436   H     0.99132   0.51200   0.46697   0.00000  Uiso   1.00
H437   H     0.86690   0.35575   0.38425   0.00000  Uiso   1.00
H438   H     0.96421   0.66369   0.25756   0.00000  Uiso   1.00
H439   H     0.93013   0.63700   0.31266   0.00000  Uiso   1.00
H440   H     0.94777   0.40301   0.33578   0.00000  Uiso   1.00
H441   H     0.68100   0.37072   0.32014   0.00000  Uiso   1.00
H442   H     0.99771   0.41263   0.28361   0.00000  Uiso   1.00
H443   H     0.85487   0.64402   0.16637   0.00000  Uiso   1.00
H444   H     0.81695   0.36362   0.16051   0.00000  Uiso   1.00
H445   H     0.79465   0.62387   0.10931   0.00000  Uiso   1.00
H446   H     0.76327   0.57894   0.15436   0.00000  Uiso   1.00
H447   H     0.79821   0.50059   0.11273   0.00000  Uiso   1.00
H448   H     0.72423   0.63063   0.14893   0.00000  Uiso   1.00
H449   H     0.85847   0.52133   0.39619   0.00000  Uiso   1.00
H450   H     0.99046   0.53315   0.11600   0.00000  Uiso   1.00
H451   H     0.68595   0.43321   0.37373   0.00000  Uiso   1.00
H452   H     0.99084   0.40030   0.44873   0.00000  Uiso   1.00
H453   H     0.68616   0.53852   0.03621   0.00000  Uiso   1.00
H454   H     0.66788   0.53825   0.28421   0.00000  Uiso   1.00
N455   N     0.98173   0.51401   0.26212   0.00000  Uiso   1.00
N456   N     0.68494   0.48599   0.23788   0.00000  Uiso   1.00
O457   O     0.79482   0.57142   0.24686   0.00000  Uiso   1.00
O458   O     0.90946   0.44735   0.42767   0.00000  Uiso   1.00
O459   O     0.87945   0.34971   0.29148   0.00000  Uiso   1.00
O460   O     0.77688   0.65140   0.21594   0.00000  Uiso   1.00
O461   O     0.87185   0.42858   0.25314   0.00000  Uiso   1.00
O462   O     0.89496   0.58086   0.25503   0.00000  Uiso   1.00
O463   O     0.77171   0.41914   0.24498   0.00000  Uiso   1.00
O464   O     0.75518   0.49263   0.30855   0.00000  Uiso   1.00
O465   O     0.91149   0.50737   0.19146   0.00000  Uiso   1.00
O466   O     0.85532   0.50207   0.31671   0.00000  Uiso   1.00
O467   O     0.81134   0.49793   0.18329   0.00000  Uiso   1.00
O468   O     0.72675   0.44720   0.08491   0.00000  Uiso   1.00
C469   C     0.18021   0.93298   0.25344   0.00000  Uiso   1.00
C470   C     0.20453   0.83902   0.16716   0.00000  Uiso   1.00
C471   C     0.10633   0.81500   0.37974   0.00000  Uiso   1.00
C472   C     0.22489   0.84450   0.11950   0.00000  Uiso   1.00
C473   C     0.03233   0.76270   0.43795   0.00000  Uiso   1.00
C474   C     0.30402   0.86104   0.05253   0.00000  Uiso   1.00
C475   C     0.04954   0.78055   0.39508   0.00000  Uiso   1.00
C476   C     0.28766   0.85810   0.09792   0.00000  Uiso   1.00
C477   C     0.14609   0.83031   0.40811   0.00000  Uiso   1.00
C478   C     0.17895   0.83650   0.09534   0.00000  Uiso   1.00
C479   C     0.12744   0.81373   0.45183   0.00000  Uiso   1.00
C480   C     0.15269   0.73375   0.24762   0.00000  Uiso   1.00
C481   C     0.19403   0.83329   0.04987   0.00000  Uiso   1.00
C482   C     0.06843   0.78282   0.46740   0.00000  Uiso   1.00
C483   C     0.25821   0.84639   0.02834   0.00000  Uiso   1.00
C484   C     0.16941   0.82191   0.47885   0.00000  Uiso   1.00
C485   C     0.14826   0.81717   0.02463   0.00000  Uiso   1.00
C486   C     0.04999   0.72676   0.09443   0.00000  Uiso   1.00
C487   C     0.31682   0.70866   0.12082   0.00000  Uiso   1.00
C488   C     0.21004   0.73007   0.44445   0.00000  Uiso   1.00
C489   C     0.22239   0.68654   0.41160   0.00000  Uiso   1.00
C490   C     0.27077   0.67100   0.29112   0.00000  Uiso   1.00
C491   C     0.08538   0.78985   0.04100   0.00000  Uiso   1.00
C492   C     0.31007   0.71695   0.30919   0.00000  Uiso   1.00
C493   C     0.14250   0.98935   0.17172   0.00000  Uiso   1.00
C494   C     0.10373   0.95347   0.14433   0.00000  Uiso   1.00
C495   C     0.23099   0.81792   0.46037   0.00000  Uiso   1.00
C496   C     0.04750   0.77105   0.01166   0.00000  Uiso   1.00
C497   C     0.27609   0.83911   0.48327   0.00000  Uiso   1.00
C498   C     0.18392   0.98866   0.26012   0.00000  Uiso   1.00
C499   C     0.14902   0.67855   0.24145   0.00000  Uiso   1.00
C500   C     0.12866   0.82759   0.33291   0.00000  Uiso   1.00
Cu501  Cu    0.10737   0.82775   0.24517   0.00000  Uiso   1.00
Cu502  Cu    0.22596   0.83892   0.25484   0.00000  Uiso   1.00
H503   H     0.00074   0.74866   0.02391   0.00000  Uiso   1.00
H504   H     0.33220   0.79527   0.21565   0.00000  Uiso   1.00
H505   H     0.08250   0.72195   0.11453   0.00000  Uiso   1.00
H506   H     0.05813   0.70058   0.06535   0.00000  Uiso   1.00
H507   H     0.28328   0.71417   0.10177   0.00000  Uiso   1.00
H508   H     0.30834   0.99992   0.12874   0.00000  Uiso   1.00
H509   H     0.30897   0.73150   0.15167   0.00000  Uiso   1.00
H510   H     0.15887   0.72625   0.45235   0.00000  Uiso   1.00
H511   H     0.22270   0.72187   0.47498   0.00000  Uiso   1.00
H512   H     0.27289   0.68811   0.39932   0.00000  Uiso   1.00
H513   H     0.20100   0.98143   0.42750   0.00000  Uiso   1.00
H514   H     0.32466   0.84534   0.46697   0.00000  Uiso   1.00
H515   H     0.20023   0.68908   0.38425   0.00000  Uiso   1.00
H516   H     0.29754   0.99703   0.25756   0.00000  Uiso   1.00
H517   H     0.26347   0.97033   0.31266   0.00000  Uiso   1.00
H518   H     0.28110   0.73634   0.33578   0.00000  Uiso   1.00
H519   H     0.01433   0.70405   0.32014   0.00000  Uiso   1.00
H520   H     0.33104   0.74596   0.28361   0.00000  Uiso   1.00
H521   H     0.18820   0.97736   0.16637   0.00000  Uiso   1.00
H522   H     0.15028   0.69695   0.16051   0.00000  Uiso   1.00
H523   H     0.12798   0.95721   0.10931   0.00000  Uiso   1.00
H524   H     0.09660   0.91227   0.15436   0.00000  Uiso   1.00
H525   H     0.13155   0.83392   0.11273   0.00000  Uiso   1.00
H526   H     0.05756   0.96396   0.14893   0.00000  Uiso   1.00
H527   H     0.19181   0.85466   0.39619   0.00000  Uiso   1.00
H528   H     0.32380   0.86649   0.11600   0.00000  Uiso   1.00
H529   H     0.01929   0.76655   0.37373   0.00000  Uiso   1.00
H530   H     0.32417   0.73363   0.44873   0.00000  Uiso   1.00
H531   H     0.01949   0.87185   0.03621   0.00000  Uiso   1.00
H532   H     0.00121   0.87158   0.28421   0.00000  Uiso   1.00
N533   N     0.31506   0.84735   0.26212   0.00000  Uiso   1.00
N534   N     0.01827   0.81932   0.23788   0.00000  Uiso   1.00
O535   O     0.12815   0.90476   0.24686   0.00000  Uiso   1.00
O536   O     0.24279   0.78068   0.42767   0.00000  Uiso   1.00
O537   O     0.21278   0.68305   0.29148   0.00000  Uiso   1.00
O538   O     0.11022   0.98474   0.21594   0.00000  Uiso   1.00
O539   O     0.20518   0.76191   0.25314   0.00000  Uiso   1.00
O540   O     0.22829   0.91420   0.25503   0.00000  Uiso   1.00
O541   O     0.10504   0.75247   0.24498   0.00000  Uiso   1.00
O542   O     0.08851   0.82597   0.30855   0.00000  Uiso   1.00
O543   O     0.24482   0.84070   0.19146   0.00000  Uiso   1.00
O544   O     0.18866   0.83540   0.31671   0.00000  Uiso   1.00
O545   O     0.14468   0.83126   0.18329   0.00000  Uiso   1.00
O546   O     0.06008   0.78054   0.08491   0.00000  Uiso   1.00
C547   C     0.51354   0.93298   0.25344   0.00000  Uiso   1.00
C548   C     0.53786   0.83902   0.16716   0.00000  Uiso   1.00
C549   C     0.43967   0.81500   0.37974   0.00000  Uiso   1.00
C550   C     0.55822   0.84450   0.11950   0.00000  Uiso   1.00
C551   C     0.36566   0.76270   0.43795   0.00000  Uiso   1.00
C552   C     0.63736   0.86104   0.05253   0.00000  Uiso   1.00
C553   C     0.38287   0.78055   0.39508   0.00000  Uiso   1.00
C554   C     0.62099   0.85810   0.09792   0.00000  Uiso   1.00
C555   C     0.47942   0.83031   0.40811   0.00000  Uiso   1.00
C556   C     0.51228   0.83650   0.09534   0.00000  Uiso   1.00
C557   C     0.46078   0.81373   0.45183   0.00000  Uiso   1.00
C558   C     0.48602   0.73375   0.24762   0.00000  Uiso   1.00
C559   C     0.52737   0.83329   0.04987   0.00000  Uiso   1.00
C560   C     0.40176   0.78282   0.46740   0.00000  Uiso   1.00
C561   C     0.59155   0.84639   0.02834   0.00000  Uiso   1.00
C562   C     0.50274   0.82191   0.47885   0.00000  Uiso   1.00
C563   C     0.48159   0.81717   0.02463   0.00000  Uiso   1.00
C564   C     0.38332   0.72676   0.09443   0.00000  Uiso   1.00
C565   C     0.65015   0.70866   0.12082   0.00000  Uiso   1.00
C566   C     0.54338   0.73007   0.44445   0.00000  Uiso   1.00
C567   C     0.55572   0.68654   0.41160   0.00000  Uiso   1.00
C568   C     0.60411   0.67100   0.29112   0.00000  Uiso   1.00
C569   C     0.41872   0.78985   0.04100   0.00000  Uiso   1.00
C570   C     0.64340   0.71695   0.30919   0.00000  Uiso   1.00
C571   C     0.47583   0.98935   0.17172   0.00000  Uiso   1.00
C572   C     0.43706   0.95347   0.14433   0.00000  Uiso   1.00
C573   C     0.56433   0.81792   0.46037   0.00000  Uiso   1.00
C574   C     0.38083   0.77105   0.01166   0.00000  Uiso   1.00
C575   C     0.60942   0.83911   0.48327   0.00000  Uiso   1.00
C576   C     0.51726   0.98866   0.26012   0.00000  Uiso   1.00
C577   C     0.48236   0.67855   0.24145   0.00000  Uiso   1.00
C578   C     0.46199   0.82759   0.33291   0.00000  Uiso   1.00
Cu579  Cu    0.44071   0.82775   0.24517   0.00000  Uiso   1.00
Cu580  Cu    0.55929   0.83892   0.25484   0.00000  Uiso   1.00
H581   H     0.33407   0.74866   0.02391   0.00000  Uiso   1.00
H582   H     0.66554   0.79527   0.21565   0.00000  Uiso   1.00
H583   H     0.41584   0.72195   0.11453   0.00000  Uiso   1.00
H584   H     0.39147   0.70058   0.06535   0.00000  Uiso   1.00
H585   H     0.61661   0.71417   0.10177   0.00000  Uiso   1.00
H586   H     0.64167   0.99992   0.12874   0.00000  Uiso   1.00
H587   H     0.64230   0.73150   0.15167   0.00000  Uiso   1.00
H588   H     0.49221   0.72625   0.45235   0.00000  Uiso   1.00
H589   H     0.55604   0.72187   0.47498   0.00000  Uiso   1.00
H590   H     0.60622   0.68811   0.39932   0.00000  Uiso   1.00
H591   H     0.53434   0.98143   0.42750   0.00000  Uiso   1.00
H592   H     0.65799   0.84534   0.46697   0.00000  Uiso   1.00
H593   H     0.53357   0.68908   0.38425   0.00000  Uiso   1.00
H594   H     0.63087   0.99703   0.25756   0.00000  Uiso   1.00
H595   H     0.59680   0.97033   0.31266   0.00000  Uiso   1.00
H596   H     0.61444   0.73634   0.33578   0.00000  Uiso   1.00
H597   H     0.34766   0.70405   0.32014   0.00000  Uiso   1.00
H598   H     0.66438   0.74596   0.28361   0.00000  Uiso   1.00
H599   H     0.52154   0.97736   0.16637   0.00000  Uiso   1.00
H600   H     0.48362   0.69695   0.16051   0.00000  Uiso   1.00
H601   H     0.46132   0.95721   0.10931   0.00000  Uiso   1.00
H602   H     0.42994   0.91227   0.15436   0.00000  Uiso   1.00
H603   H     0.46488   0.83392   0.11273   0.00000  Uiso   1.00
H604   H     0.39089   0.96396   0.14893   0.00000  Uiso   1.00
H605   H     0.52514   0.85466   0.39619   0.00000  Uiso   1.00
H606   H     0.65713   0.86649   0.11600   0.00000  Uiso   1.00
H607   H     0.35262   0.76655   0.37373   0.00000  Uiso   1.00
H608   H     0.65750   0.73363   0.44873   0.00000  Uiso   1.00
H609   H     0.35283   0.87185   0.03621   0.00000  Uiso   1.00
H610   H     0.33455   0.87158   0.28421   0.00000  Uiso   1.00
N611   N     0.64839   0.84735   0.26212   0.00000  Uiso   1.00
N612   N     0.35161   0.81932   0.23788   0.00000  Uiso   1.00
O613   O     0.46148   0.90476   0.24686   0.00000  Uiso   1.00
O614   O     0.57613   0.78068   0.42767   0.00000  Uiso   1.00
O615   O     0.54611   0.68305   0.29148   0.00000  Uiso   1.00
O616   O     0.44355   0.98474   0.21594   0.00000  Uiso   1.00
O617   O     0.53852   0.76191   0.25314   0.00000  Uiso   1.00
O618   O     0.56163   0.91420   0.25503   0.00000  Uiso   1.00
O619   O     0.43837   0.75247   0.24498   0.00000  Uiso   1.00
O620   O     0.42185   0.82597   0.30855   0.00000  Uiso   1.00
O621   O     0.57815   0.84070   0.19146   0.00000  Uiso   1.00
O622   O     0.52199   0.83540   0.31671   0.00000  Uiso   1.00
O623   O     0.47801   0.83126   0.18329   0.00000  Uiso   1.00
O624   O     0.39342   0.78054   0.08491   0.00000  Uiso   1.00
C625   C     0.84687   0.93298   0.25344   0.00000  Uiso   1.00
C626   C     0.87120   0.83902   0.16716   0.00000  Uiso   1.00
C627   C     0.77300   0.81500   0.37974   0.00000  Uiso   1.00
C628   C     0.89155   0.84450   0.11950   0.00000  Uiso   1.00
C629   C     0.69899   0.76270   0.43795   0.00000  Uiso   1.00
C630   C     0.97069   0.86104   0.05253   0.00000  Uiso   1.00
C631   C     0.71620   0.78055   0.39508   0.00000  Uiso   1.00
C632   C     0.95432   0.85810   0.09792   0.00000  Uiso   1.00
C633   C     0.81275   0.83031   0.40811   0.00000  Uiso   1.00
C634   C     0.84562   0.83650   0.09534   0.00000  Uiso   1.00
C635   C     0.79411   0.81373   0.45183   0.00000  Uiso   1.00
C636   C     0.81935   0.73375   0.24762   0.00000  Uiso   1.00
C637   C     0.86070   0.83329   0.04987   0.00000  Uiso   1.00
C638   C     0.73509   0.78282   0.46740   0.00000  Uiso   1.00
C639   C     0.92488   0.84639   0.02834   0.00000  Uiso   1.00
C640   C     0.83607   0.82191   0.47885   0.00000  Uiso   1.00
C641   C     0.81493   0.81717   0.02463   0.00000  Uiso   1.00
C642   C     0.71665   0.72676   0.09443   0.00000  Uiso   1.00
C643   C     0.98349   0.70866   0.12082   0.00000  Uiso   1.00
C644   C     0.87671   0.73007   0.44445   0.00000  Uiso   1.00
C645   C     0.88906   0.68654   0.41160   0.00000  Uiso   1.00
C646   C     0.93744   0.67100   0.29112   0.00000  Uiso   1.00
C647   C     0.75205   0.78985   0.04100   0.00000  Uiso   1.00
C648   C     0.97674   0.71695   0.30919   0.00000  Uiso   1.00
C649   C     0.80917   0.98935   0.17172   0.00000  Uiso   1.00
C650   C     0.77039   0.95347   0.14433   0.00000  Uiso   1.00
C651   C     0.89766   0.81792   0.46037   0.00000  Uiso   1.00
C652   C     0.71416   0.77105   0.01166   0.00000  Uiso   1.00
C653   C     0.94276   0.83911   0.48327   0.00000  Uiso   1.00
C654   C     0.85059   0.98866   0.26012   0.00000  Uiso   1.00
C655   C     0.81569   0.67855   0.24145   0.00000  Uiso   1.00
C656   C     0.79533   0.82759   0.33291   0.00000  Uiso   1.00
Cu657  Cu    0.77404   0.82775   0.24517   0.00000  Uiso   1.00
Cu658  Cu    0.89263   0.83892   0.25484   0.00000  Uiso   1.00
H659   H     0.66740   0.74866   0.02391   0.00000  Uiso   1.00
H660   H     0.99887   0.79527   0.21565   0.00000  Uiso   1.00
H661   H     0.74917   0.72195   0.11453   0.00000  Uiso   1.00
H662   H     0.72480   0.70058   0.06535   0.00000  Uiso   1.00
H663   H     0.94994   0.71417   0.10177   0.00000  Uiso   1.00
H664   H     0.97501   0.99992   0.12874   0.00000  Uiso   1.00
H665   H     0.97563   0.73150   0.15167   0.00000  Uiso   1.00
H666   H     0.82554   0.72625   0.45235   0.00000  Uiso   1.00
H667   H     0.88937   0.72187   0.47498   0.00000  Uiso   1.00
H668   H     0.93955   0.68811   0.39932   0.00000  Uiso   1.00
H669   H     0.86767   0.98143   0.42750   0.00000  Uiso   1.00
H670   H     0.99132   0.84534   0.46697   0.00000  Uiso   1.00
H671   H     0.86690   0.68908   0.38425   0.00000  Uiso   1.00
H672   H     0.96421   0.99703   0.25756   0.00000  Uiso   1.00
H673   H     0.93013   0.97033   0.31266   0.00000  Uiso   1.00
H674   H     0.94777   0.73634   0.33578   0.00000  Uiso   1.00
H675   H     0.68100   0.70405   0.32014   0.00000  Uiso   1.00
H676   H     0.99771   0.74596   0.28361   0.00000  Uiso   1.00
H677   H     0.85487   0.97736   0.16637   0.00000  Uiso   1.00
H678   H     0.81695   0.69695   0.16051   0.00000  Uiso   1.00
H679   H     0.79465   0.95721   0.10931   0.00000  Uiso   1.00
H680   H     0.76327   0.91227   0.15436   0.00000  Uiso   1.00
H681   H     0.79821   0.83392   0.11273   0.00000  Uiso   1.00
H682   H     0.72423   0.96396   0.14893   0.00000  Uiso   1.00
H683   H     0.85847   0.85466   0.39619   0.00000  Uiso   1.00
H684   H     0.99046   0.86649   0.11600   0.00000  Uiso   1.00
H685   H     0.68595   0.76655   0.37373   0.00000  Uiso   1.00
H686   H     0.99084   0.73363   0.44873   0.00000  Uiso   1.00
H687   H     0.68616   0.87185   0.03621   0.00000  Uiso   1.00
H688   H     0.66788   0.87158   0.28421   0.00000  Uiso   1.00
N689   N     0.98173   0.84735   0.26212   0.00000  Uiso   1.00
N690   N     0.68494   0.81932   0.23788   0.00000  Uiso   1.00
O691   O     0.79482   0.90476   0.24686   0.00000  Uiso   1.00
O692   O     0.90946   0.78068   0.42767   0.00000  Uiso   1.00
O693   O     0.87945   0.68305   0.29148   0.00000  Uiso   1.00
O694   O     0.77688   0.98474   0.21594   0.00000  Uiso   1.00
O695   O     0.87185   0.76191   0.25314   0.00000  Uiso   1.00
O696   O     0.89496   0.91420   0.25503   0.00000  Uiso   1.00
O697   O     0.77171   0.75247   0.24498   0.00000  Uiso   1.00
O698   O     0.75518   0.82597   0.30855   0.00000  Uiso   1.00
O699   O     0.91149   0.84070   0.19146   0.00000  Uiso   1.00
O700   O     0.85532   0.83540   0.31671   0.00000  Uiso   1.00
O701   O     0.81134   0.83126   0.18329   0.00000  Uiso   1.00
O702   O     0.72675   0.78054   0.08491   0.00000  Uiso   1.00
C703   C     0.18021   0.26632   0.75344   0.00000  Uiso   1.00
C704   C     0.20453   0.17236   0.66716   0.00000  Uiso   1.00
C705   C     0.10633   0.14833   0.87974   0.00000  Uiso   1.00
C706   C     0.22489   0.17783   0.61950   0.00000  Uiso   1.00
C707   C     0.03233   0.09603   0.93795   0.00000  Uiso   1.00
C708   C     0.30402   0.19438   0.55253   0.00000  Uiso   1.00
C709   C     0.04954   0.11389   0.89508   0.00000  Uiso   1.00
C710   C     0.28766   0.19144   0.59792   0.00000  Uiso   1.00
C711   C     0.14609   0.16364   0.90811   0.00000  Uiso   1.00
C712   C     0.17895   0.16983   0.59534   0.00000  Uiso   1.00
C713   C     0.12744   0.14706   0.95183   0.00000  Uiso   1.00
C714   C     0.15269   0.06708   0.74762   0.00000  Uiso   1.00
C715   C     0.19403   0.16662   0.54987   0.00000  Uiso   1.00
C716   C     0.06843   0.11616   0.96740   0.00000  Uiso   1.00
C717   C     0.25821   0.17972   0.52834   0.00000  Uiso   1.00
C718   C     0.16941   0.15525   0.97885   0.00000  Uiso   1.00
C719   C     0.14826   0.15050   0.52463   0.00000  Uiso   1.00
C720   C     0.04999   0.06009   0.59443   0.00000  Uiso   1.00
C721   C     0.31682   0.04199   0.62082   0.00000  Uiso   1.00
C722   C     0.21004   0.06340   0.94445   0.00000  Uiso   1.00
C723   C     0.22239   0.01987   0.91160   0.00000  Uiso   1.00
C724   C     0.27077   0.00433   0.79112   0.00000  Uiso   1.00
C725   C     0.08538   0.12319   0.54100   0.00000  Uiso   1.00
C726   C     0.31007   0.05028   0.80919   0.00000  Uiso   1.00
C727   C     0.14250   0.32268   0.67172   0.00000  Uiso   1.00
C728   C     0.10373   0.28680   0.64433   0.00000  Uiso   1.00
C729   C     0.23099   0.15125   0.96037   0.00000  Uiso   1.00
C730   C     0.04750   0.10438   0.51166   0.00000  Uiso   1.00
C731   C     0.27609   0.17244   0.98327   0.00000  Uiso   1.00
C732   C     0.18392   0.32199   0.76012   0.00000  Uiso   1.00
C733   C     0.14902   0.01189   0.74145   0.00000  Uiso   1.00
C734   C     0.12866   0.16092   0.83291   0.00000  Uiso   1.00
Cu735  Cu    0.10737   0.16108   0.74517   0.00000  Uiso   1.00
Cu736  Cu    0.22596   0.17225   0.75484   0.00000  Uiso   1.00
H737   H     0.00074   0.08200   0.52391   0.00000  Uiso   1.00
H738   H     0.33220   0.12860   0.71565   0.00000  Uiso   1.00
H739   H     0.08250   0.05529   0.61453   0.00000  Uiso   1.00
H740   H     0.05813   0.03391   0.56535   0.00000  Uiso   1.00
H741   H     0.28328   0.04751   0.60177   0.00000  Uiso   1.00
H742   H     0.30834   0.33326   0.62874   0.00000  Uiso   1.00
H743   H     0.30897   0.06484   0.65167   0.00000  Uiso   1.00
H744   H     0.15887   0.05959   0.95235   0.00000  Uiso   1.00
H745   H     0.22270   0.05521   0.97498   0.00000  Uiso   1.00
H746   H     0.27289   0.02144   0.89932   0.00000  Uiso   1.00
H747   H     0.20100   0.31476   0.92750   0.00000  Uiso   1.00
H748   H     0.32466   0.17867   0.96697   0.00000  Uiso   1.00
H749   H     0.20023   0.02242   0.88425   0.00000  Uiso   1.00
H750   H     0.29754   0.33036   0.75756   0.00000  Uiso   1.00
H751   H     0.26347   0.30367   0.81266   0.00000  Uiso   1.00
H752   H     0.28110   0.06967   0.83578   0.00000  Uiso   1.00
H753   H     0.01433   0.03738   0.82014   0.00000  Uiso   1.00
H754   H     0.33104   0.07929   0.78361   0.00000  Uiso   1.00
H755   H     0.18820   0.31069   0.66637   0.00000  Uiso   1.00
H756   H     0.15028   0.03029   0.66051   0.00000  Uiso   1.00
H757   H     0.12798   0.29054   0.60931   0.00000  Uiso   1.00
H758   H     0.09660   0.24560   0.65436   0.00000  Uiso   1.00
H759   H     0.13155   0.16725   0.61273   0.00000  Uiso   1.00
H760   H     0.05756   0.29729   0.64893   0.00000  Uiso   1.00
H761   H     0.19181   0.18799   0.89619   0.00000  Uiso   1.00
H762   H     0.32380   0.19982   0.61600   0.00000  Uiso   1.00
H763   H     0.01929   0.09988   0.87373   0.00000  Uiso   1.00
H764   H     0.32417   0.06696   0.94873   0.00000  Uiso   1.00
H765   H     0.01949   0.20518   0.53621   0.00000  Uiso   1.00
H766   H     0.00121   0.20491   0.78421   0.00000  Uiso   1.00
N767   N     0.31506   0.18068   0.76212   0.00000  Uiso   1.00
N768   N     0.01827   0.15265   0.73788   0.00000  Uiso   1.00
O769   O     0.12815   0.23809   0.74686   0.00000  Uiso   1.00
O770   O     0.24279   0.11402   0.92767   0.00000  Uiso   1.00
O771   O     0.21278   0.01638   0.79148   0.00000  Uiso   1.00
O772   O     0.11022   0.31807   0.71594   0.00000  Uiso   1.00
O773   O     0.20518   0.09524   0.75314   0.00000  Uiso   1.00
O774   O     0.22829   0.24753   0.75503   0.00000  Uiso   1.00
O775   O     0.10504   0.08580   0.74498   0.00000  Uiso   1.00
O776   O     0.08851   0.15930   0.80855   0.00000  Uiso   1.00
O777   O     0.24482   0.17403   0.69146   0.00000  Uiso   1.00
O778   O     0.18866   0.16874   0.81671   0.00000  Uiso   1.00
O779   O     0.14468   0.16460   0.68329   0.00000  Uiso   1.00
O780   O     0.06008   0.11387   0.58491   0.00000  Uiso   1.00
C781   C     0.51354   0.26632   0.75344   0.00000  Uiso   1.00
C782   C     0.53786   0.17236   0.66716   0.00000  Uiso   1.00
C783   C     0.43967   0.14833   0.87974   0.00000  Uiso   1.00
C784   C     0.55822   0.17783   0.61950   0.00000  Uiso   1.00
C785   C     0.36566   0.09603   0.93795   0.00000  Uiso   1.00
C786   C     0.63736   0.19438   0.55253   0.00000  Uiso   1.00
C787   C     0.38287   0.11389   0.89508   0.00000  Uiso   1.00
C788   C     0.62099   0.19144   0.59792   0.00000  Uiso   1.00
C789   C     0.47942   0.16364   0.90811   0.00000  Uiso   1.00
C790   C     0.51228   0.16983   0.59534   0.00000  Uiso   1.00
C791   C     0.46078   0.14706   0.95183   0.00000  Uiso   1.00
C792   C     0.48602   0.06708   0.74762   0.00000  Uiso   1.00
C793   C     0.52737   0.16662   0.54987   0.00000  Uiso   1.00
C794   C     0.40176   0.11616   0.96740   0.00000  Uiso   1.00
C795   C     0.59155   0.17972   0.52834   0.00000  Uiso   1.00
C796   C     0.50274   0.15525   0.97885   0.00000  Uiso   1.00
C797   C     0.48159   0.15050   0.52463   0.00000  Uiso   1.00
C798   C     0.38332   0.06009   0.59443   0.00000  Uiso   1.00
C799   C     0.65015   0.04199   0.62082   0.00000  Uiso   1.00
C800   C     0.54338   0.06340   0.94445   0.00000  Uiso   1.00
C801   C     0.55572   0.01987   0.91160   0.00000  Uiso   1.00
C802   C     0.60411   0.00433   0.79112   0.00000  Uiso   1.00
C803   C     0.41872   0.12319   0.54100   0.00000  Uiso   1.00
C804   C     0.64340   0.05028   0.80919   0.00000  Uiso   1.00
C805   C     0.47583   0.32268   0.67172   0.00000  Uiso   1.00
C806   C     0.43706   0.28680   0.64433   0.00000  Uiso   1.00
C807   C     0.56433   0.15125   0.96037   0.00000  Uiso   1.00
C808   C     0.38083   0.10438   0.51166   0.00000  Uiso   1.00
C809   C     0.60942   0.17244   0.98327   0.00000  Uiso   1.00
C810   C     0.51726   0.32199   0.76012   0.00000  Uiso   1.00
C811   C     0.48236   0.01189   0.74145   0.00000  Uiso   1.00
C812   C     0.46199   0.16092   0.83291   0.00000  Uiso   1.00
Cu813  Cu    0.44071   0.16108   0.74517   0.00000  Uiso   1.00
Cu814  Cu    0.55929   0.17225   0.75484   0.00000  Uiso   1.00
H815   H     0.33407   0.08200   0.52391   0.00000  Uiso   1.00
H816   H     0.66554   0.12860   0.71565   0.00000  Uiso   1.00
H817   H     0.41584   0.05529   0.61453   0.00000  Uiso   1.00
H818   H     0.39147   0.03391   0.56535   0.00000  Uiso   1.00
H819   H     0.61661   0.04751   0.60177   0.00000  Uiso   1.00
H820   H     0.64167   0.33326   0.62874   0.00000  Uiso   1.00
H821   H     0.64230   0.06484   0.65167   0.00000  Uiso   1.00
H822   H     0.49221   0.05959   0.95235   0.00000  Uiso   1.00
H823   H     0.55604   0.05521   0.97498   0.00000  Uiso   1.00
H824   H     0.60622   0.02144   0.89932   0.00000  Uiso   1.00
H825   H     0.53434   0.31476   0.92750   0.00000  Uiso   1.00
H826   H     0.65799   0.17867   0.96697   0.00000  Uiso   1.00
H827   H     0.53357   0.02242   0.88425   0.00000  Uiso   1.00
H828   H     0.63087   0.33036   0.75756   0.00000  Uiso   1.00
H829   H     0.59680   0.30367   0.81266   0.00000  Uiso   1.00
H830   H     0.61444   0.06967   0.83578   0.00000  Uiso   1.00
H831   H     0.34766   0.03738   0.82014   0.00000  Uiso   1.00
H832   H     0.66438   0.07929   0.78361   0.00000  Uiso   1.00
H833   H     0.52154   0.31069   0.66637   0.00000  Uiso   1.00
H834   H     0.48362   0.03029   0.66051   0.00000  Uiso   1.00
H835   H     0.46132   0.29054   0.60931   0.00000  Uiso   1.00
H836   H     0.42994   0.24560   0.65436   0.00000  Uiso   1.00
H837   H     0.46488   0.16725   0.61273   0.00000  Uiso   1.00
H838   H     0.39089   0.29729   0.64893   0.00000  Uiso   1.00
H839   H     0.52514   0.18799   0.89619   0.00000  Uiso   1.00
H840   H     0.65713   0.19982   0.61600   0.00000  Uiso   1.00
H841   H     0.35262   0.09988   0.87373   0.00000  Uiso   1.00
H842   H     0.65750   0.06696   0.94873   0.00000  Uiso   1.00
H843   H     0.35283   0.20518   0.53621   0.00000  Uiso   1.00
H844   H     0.33455   0.20491   0.78421   0.00000  Uiso   1.00
N845   N     0.64839   0.18068   0.76212   0.00000  Uiso   1.00
N846   N     0.35161   0.15265   0.73788   0.00000  Uiso   1.00
O847   O     0.46148   0.23809   0.74686   0.00000  Uiso   1.00
O848   O     0.57613   0.11402   0.92767   0.00000  Uiso   1.00
O849   O     0.54611   0.01638   0.79148   0.00000  Uiso   1.00
O850   O     0.44355   0.31807   0.71594   0.00000  Uiso   1.00
O851   O     0.53852   0.09524   0.75314   0.00000  Uiso   1.00
O852   O     0.56163   0.24753   0.75503   0.00000  Uiso   1.00
O853   O     0.43837   0.08580   0.74498   0.00000  Uiso   1.00
O854   O     0.42185   0.15930   0.80855   0.00000  Uiso   1.00
O855   O     0.57815   0.17403   0.69146   0.00000  Uiso   1.00
O856   O     0.52199   0.16874   0.81671   0.00000  Uiso   1.00
O857   O     0.47801   0.16460   0.68329   0.00000  Uiso   1.00
O858   O     0.39342   0.11387   0.58491   0.00000  Uiso   1.00
C859   C     0.84687   0.26632   0.75344   0.00000  Uiso   1.00
C860   C     0.87120   0.17236   0.66716   0.00000  Uiso   1.00
C861   C     0.77300   0.14833   0.87974   0.00000  Uiso   1.00
C862   C     0.89155   0.17783   0.61950   0.00000  Uiso   1.00
C863   C     0.69899   0.09603   0.93795   0.00000  Uiso   1.00
C864   C     0.97069   0.19438   0.55253   0.00000  Uiso   1.00
C865   C     0.71620   0.11389   0.89508   0.00000  Uiso   1.00
C866   C     0.95432   0.19144   0.59792   0.00000  Uiso   1.00
C867   C     0.81275   0.16364   0.90811   0.00000  Uiso   1.00
C868   C     0.84562   0.16983   0.59534   0.00000  Uiso   1.00
C869   C     0.79411   0.14706   0.95183   0.00000  Uiso   1.00
C870   C     0.81935   0.06708   0.74762   0.00000  Uiso   1.00
C871   C     0.86070   0.16662   0.54987   0.00000  Uiso   1.00
C872   C     0.73509   0.11616   0.96740   0.00000  Uiso   1.00
C873   C     0.92488   0.17972   0.52834   0.00000  Uiso   1.00
C874   C     0.83607   0.15525   0.97885   0.00000  Uiso   1.00
C875   C     0.81493   0.15050   0.52463   0.00000  Uiso   1.00
C876   C     0.71665   0.06009   0.59443   0.00000  Uiso   1.00
C877   C     0.98349   0.04199   0.62082   0.00000  Uiso   1.00
C878   C     0.87671   0.06340   0.94445   0.00000  Uiso   1.00
C879   C     0.88906   0.01987   0.91160   0.00000  Uiso   1.00
C880   C     0.93744   0.00433   0.79112   0.00000  Uiso   1.00
C881   C     0.75205   0.12319   0.54100   0.00000  Uiso   1.00
C882   C     0.97674   0.05028   0.80919   0.00000  Uiso   1.00
C883   C     0.80917   0.32268   0.67172   0.00000  Uiso   1.00
C884   C     0.77039   0.28680   0.64433   0.00000  Uiso   1.00
C885   C     0.89766   0.15125   0.96037   0.00000  Uiso   1.00
C886   C     0.71416   0.10438   0.51166   0.00000  Uiso   1.00
C887   C     0.94276   0.17244   0.98327   0.00000  Uiso   1.00
C888   C     0.85059   0.32199   0.76012   0.00000  Uiso   1.00
C889   C     0.81569   0.01189   0.74145   0.00000  Uiso   1.00
C890   C     0.79533   0.16092   0.83291   0.00000  Uiso   1.00
Cu891  Cu    0.77404   0.16108   0.74517   0.00000  Uiso   1.00
Cu892  Cu    0.89263   0.17225   0.75484   0.00000  Uiso   1.00
H893   H     0.66740   0.08200   0.52391   0.00000  Uiso   1.00
H894   H     0.99887   0.12860   0.71565   0.00000  Uiso   1.00
H895   H     0.74917   0.05529   0.61453   0.00000  Uiso   1.00
H896   H     0.72480   0.03391   0.56535   0.00000  Uiso   1.00
H897   H     0.94994   0.04751   0.60177   0.00000  Uiso   1.00
H898   H     0.97501   0.33326   0.62874   0.00000  Uiso   1.00
H899   H     0.97563   0.06484   0.65167   0.00000  Uiso   1.00
H900   H     0.82554   0.05959   0.95235   0.00000  Uiso   1.00
H901   H     0.88937   0.05521   0.97498   0.00000  Uiso   1.00
H902   H     0.93955   0.02144   0.89932   0.00000  Uiso   1.00
H903   H     0.86767   0.31476   0.92750   0.00000  Uiso   1.00
H904   H     0.99132   0.17867   0.96697   0.00000  Uiso   1.00
H905   H     0.86690   0.02242   0.88425   0.00000  Uiso   1.00
H906   H     0.96421   0.33036   0.75756   0.00000  Uiso   1.00
H907   H     0.93013   0.30367   0.81266   0.00000  Uiso   1.00
H908   H     0.94777   0.06967   0.83578   0.00000  Uiso   1.00
H909   H     0.68100   0.03738   0.82014   0.00000  Uiso   1.00
H910   H     0.99771   0.07929   0.78361   0.00000  Uiso   1.00
H911   H     0.85487   0.31069   0.66637   0.00000  Uiso   1.00
H912   H     0.81695   0.03029   0.66051   0.00000  Uiso   1.00
H913   H     0.79465   0.29054   0.60931   0.00000  Uiso   1.00
H914   H     0.76327   0.24560   0.65436   0.00000  Uiso   1.00
H915   H     0.79821   0.16725   0.61273   0.00000  Uiso   1.00
H916   H     0.72423   0.29729   0.64893   0.00000  Uiso   1.00
H917   H     0.85847   0.18799   0.89619   0.00000  Uiso   1.00
H918   H     0.99046   0.19982   0.61600   0.00000  Uiso   1.00
H919   H     0.68595   0.09988   0.87373   0.00000  Uiso   1.00
H920   H     0.99084   0.06696   0.94873   0.00000  Uiso   1.00
H921   H     0.68616   0.20518   0.53621   0.00000  Uiso   1.00
H922   H     0.66788   0.20491   0.78421   0.00000  Uiso   1.00
N923   N     0.98173   0.18068   0.76212   0.00000  Uiso   1.00
N924   N     0.68494   0.15265   0.73788   0.00000  Uiso   1.00
O925   O     0.79482   0.23809   0.74686   0.00000  Uiso   1.00
O926   O     0.90946   0.11402   0.92767   0.00000  Uiso   1.00
O927   O     0.87945   0.01638   0.79148   0.00000  Uiso   1.00
O928   O     0.77688   0.31807   0.71594   0.00000  Uiso   1.00
O929   O     0.87185   0.09524   0.75314   0.00000  Uiso   1.00
O930   O     0.89496   0.24753   0.75503   0.00000  Uiso   1.00
O931   O     0.77171   0.08580   0.74498   0.00000  Uiso   1.00
O932   O     0.75518   0.15930   0.80855   0.00000  Uiso   1.00
O933   O     0.91149   0.17403   0.69146   0.00000  Uiso   1.00
O934   O     0.85532   0.16874   0.81671   0.00000  Uiso   1.00
O935   O     0.81134   0.16460   0.68329   0.00000  Uiso   1.00
O936   O     0.72675   0.11387   0.58491   0.00000  Uiso   1.00
C937   C     0.18021   0.59965   0.75344   0.00000  Uiso   1.00
C938   C     0.20453   0.50569   0.66716   0.00000  Uiso   1.00
C939   C     0.10633   0.48166   0.87974   0.00000  Uiso   1.00
C940   C     0.22489   0.51116   0.61950   0.00000  Uiso   1.00
C941   C     0.03233   0.42936   0.93795   0.00000  Uiso   1.00
C942   C     0.30402   0.52771   0.55253   0.00000  Uiso   1.00
C943   C     0.04954   0.44722   0.89508   0.00000  Uiso   1.00
C944   C     0.28766   0.52477   0.59792   0.00000  Uiso   1.00
C945   C     0.14609   0.49697   0.90811   0.00000  Uiso   1.00
C946   C     0.17895   0.50316   0.59534   0.00000  Uiso   1.00
C947   C     0.12744   0.48040   0.95183   0.00000  Uiso   1.00
C948   C     0.15269   0.40042   0.74762   0.00000  Uiso   1.00
C949   C     0.19403   0.49995   0.54987   0.00000  Uiso   1.00
C950   C     0.06843   0.44949   0.96740   0.00000  Uiso   1.00
C951   C     0.25821   0.51306   0.52834   0.00000  Uiso   1.00
C952   C     0.16941   0.48858   0.97885   0.00000  Uiso   1.00
C953   C     0.14826   0.48384   0.52463   0.00000  Uiso   1.00
C954   C     0.04999   0.39343   0.59443   0.00000  Uiso   1.00
C955   C     0.31682   0.37532   0.62082   0.00000  Uiso   1.00
C956   C     0.21004   0.39673   0.94445   0.00000  Uiso   1.00
C957   C     0.22239   0.35321   0.91160   0.00000  Uiso   1.00
C958   C     0.27077   0.33766   0.79112   0.00000  Uiso   1.00
C959   C     0.08538   0.45652   0.54100   0.00000  Uiso   1.00
C960   C     0.31007   0.38361   0.80919   0.00000  Uiso   1.00
C961   C     0.14250   0.65602   0.67172   0.00000  Uiso   1.00
C962   C     0.10373   0.62014   0.64433   0.00000  Uiso   1.00
C963   C     0.23099   0.48458   0.96037   0.00000  Uiso   1.00
C964   C     0.04750   0.43771   0.51166   0.00000  Uiso   1.00
C965   C     0.27609   0.50577   0.98327   0.00000  Uiso   1.00
C966   C     0.18392   0.65532   0.76012   0.00000  Uiso   1.00
C967   C     0.14902   0.34522   0.74145   0.00000  Uiso   1.00
C968   C     0.12866   0.49426   0.83291   0.00000  Uiso   1.00
Cu969  Cu    0.10737   0.49441   0.74517   0.00000  Uiso   1.00
Cu970  Cu    0.22596   0.50559   0.75484   0.00000  Uiso   1.00
H971   H     0.00074   0.41533   0.52391   0.00000  Uiso   1.00
H972   H     0.33220   0.46193   0.71565   0.00000  Uiso   1.00
H973   H     0.08250   0.38862   0.61453   0.00000  Uiso   1.00
H974   H     0.05813   0.36724   0.56535   0.00000  Uiso   1.00
H975   H     0.28328   0.38084   0.60177   0.00000  Uiso   1.00
H976   H     0.30834   0.66659   0.62874   0.00000  Uiso   1.00
H977   H     0.30897   0.39817   0.65167   0.00000  Uiso   1.00
H978   H     0.15887   0.39292   0.95235   0.00000  Uiso   1.00
H979   H     0.22270   0.38854   0.97498   0.00000  Uiso   1.00
H980   H     0.27289   0.35477   0.89932   0.00000  Uiso   1.00
H981   H     0.20100   0.64810   0.92750   0.00000  Uiso   1.00
H982   H     0.32466   0.51200   0.96697   0.00000  Uiso   1.00
H983   H     0.20023   0.35575   0.88425   0.00000  Uiso   1.00
H984   H     0.29754   0.66369   0.75756   0.00000  Uiso   1.00
H985   H     0.26347   0.63700   0.81266   0.00000  Uiso   1.00
H986   H     0.28110   0.40301   0.83578   0.00000  Uiso   1.00
H987   H     0.01433   0.37072   0.82014   0.00000  Uiso   1.00
H988   H     0.33104   0.41263   0.78361   0.00000  Uiso   1.00
H989   H     0.18820   0.64402   0.66637   0.00000  Uiso   1.00
H990   H     0.15028   0.36362   0.66051   0.00000  Uiso   1.00
H991   H     0.12798   0.62387   0.60931   0.00000  Uiso   1.00
H992   H     0.09660   0.57894   0.65436   0.00000  Uiso   1.00
H993   H     0.13155   0.50059   0.61273   0.00000  Uiso   1.00
H994   H     0.05756   0.63063   0.64893   0.00000  Uiso   1.00
H995   H     0.19181   0.52133   0.89619   0.00000  Uiso   1.00
H996   H     0.32380   0.53315   0.61600   0.00000  Uiso   1.00
H997   H     0.01929   0.43321   0.87373   0.00000  Uiso   1.00
H998   H     0.32417   0.40030   0.94873   0.00000  Uiso   1.00
H999   H     0.01949   0.53852   0.53621   0.00000  Uiso   1.00
H1000  H     0.00121   0.53825   0.78421   0.00000  Uiso   1.00
N1001  N     0.31506   0.51401   0.76212   0.00000  Uiso   1.00
N1002  N     0.01827   0.48599   0.73788   0.00000  Uiso   1.00
O1003  O     0.12815   0.57142   0.74686   0.00000  Uiso   1.00
O1004  O     0.24279   0.44735   0.92767   0.00000  Uiso   1.00
O1005  O     0.21278   0.34971   0.79148   0.00000  Uiso   1.00
O1006  O     0.11022   0.65140   0.71594   0.00000  Uiso   1.00
O1007  O     0.20518   0.42858   0.75314   0.00000  Uiso   1.00
O1008  O     0.22829   0.58086   0.75503   0.00000  Uiso   1.00
O1009  O     0.10504   0.41914   0.74498   0.00000  Uiso   1.00
O1010  O     0.08851   0.49263   0.80855   0.00000  Uiso   1.00
O1011  O     0.24482   0.50737   0.69146   0.00000  Uiso   1.00
O1012  O     0.18866   0.50207   0.81671   0.00000  Uiso   1.00
O1013  O     0.14468   0.49793   0.68329   0.00000  Uiso   1.00
O1014  O     0.06008   0.44720   0.58491   0.00000  Uiso   1.00
C1015  C     0.51354   0.59965   0.75344   0.00000  Uiso   1.00
C1016  C     0.53786   0.50569   0.66716   0.00000  Uiso   1.00
C1017  C     0.43967   0.48166   0.87974   0.00000  Uiso   1.00
C1018  C     0.55822   0.51116   0.61950   0.00000  Uiso   1.00
C1019  C     0.36566   0.42936   0.93795   0.00000  Uiso   1.00
C1020  C     0.63736   0.52771   0.55253   0.00000  Uiso   1.00
C1021  C     0.38287   0.44722   0.89508   0.00000  Uiso   1.00
C1022  C     0.62099   0.52477   0.59792   0.00000  Uiso   1.00
C1023  C     0.47942   0.49697   0.90811   0.00000  Uiso   1.00
C1024  C     0.51228   0.50316   0.59534   0.00000  Uiso   1.00
C1025  C     0.46078   0.48040   0.95183   0.00000  Uiso   1.00
C1026  C     0.48602   0.40042   0.74762   0.00000  Uiso   1.00
C1027  C     0.52737   0.49995   0.54987   0.00000  Uiso   1.00
C1028  C     0.40176   0.44949   0.96740   0.00000  Uiso   1.00
C1029  C     0.59155   0.51306   0.52834   0.00000  Uiso   1.00
C1030  C     0.50274   0.48858   0.97885   0.00000  Uiso   1.00
C1031  C     0.48159   0.48384   0.52463   0.00000  Uiso   1.00
C1032  C     0.38332   0.39343   0.59443   0.00000  Uiso   1.00
C1033  C     0.65015   0.37532   0.62082   0.00000  Uiso   1.00
C1034  C     0.54338   0.39673   0.94445   0.00000  Uiso   1.00
C1035  C     0.55572   0.35321   0.91160   0.00000  Uiso   1.00
C1036  C     0.60411   0.33766   0.79112   0.00000  Uiso   1.00
C1037  C     0.41872   0.45652   0.54100   0.00000  Uiso   1.00
C1038  C     0.64340   0.38361   0.80919   0.00000  Uiso   1.00
C1039  C     0.47583   0.65602   0.67172   0.00000  Uiso   1.00
C1040  C     0.43706   0.62014   0.64433   0.00000  Uiso   1.00
C1041  C     0.56433   0.48458   0.96037   0.00000  Uiso   1.00
C1042  C     0.38083   0.43771   0.51166   0.00000  Uiso   1.00
C1043  C     0.60942   0.50577   0.98327   0.00000  Uiso   1.00
C1044  C     0.51726   0.65532   0.76012   0.00000  Uiso   1.00
C1045  C     0.48236   0.34522   0.74145   0.00000  Uiso   1.00
C1046  C     0.46199   0.49426   0.83291   0.00000  Uiso   1.00
Cu1047 Cu    0.44071   0.49441   0.74517   0.00000  Uiso   1.00
Cu1048 Cu    0.55929   0.50559   0.75484   0.00000  Uiso   1.00
H1049  H     0.33407   0.41533   0.52391   0.00000  Uiso   1.00
H1050  H     0.66554   0.46193   0.71565   0.00000  Uiso   1.00
H1051  H     0.41584   0.38862   0.61453   0.00000  Uiso   1.00
H1052  H     0.39147   0.36724   0.56535   0.00000  Uiso   1.00
H1053  H     0.61661   0.38084   0.60177   0.00000  Uiso   1.00
H1054  H     0.64167   0.66659   0.62874   0.00000  Uiso   1.00
H1055  H     0.64230   0.39817   0.65167   0.00000  Uiso   1.00
H1056  H     0.49221   0.39292   0.95235   0.00000  Uiso   1.00
H1057  H     0.55604   0.38854   0.97498   0.00000  Uiso   1.00
H1058  H     0.60622   0.35477   0.89932   0.00000  Uiso   1.00
H1059  H     0.53434   0.64810   0.92750   0.00000  Uiso   1.00
H1060  H     0.65799   0.51200   0.96697   0.00000  Uiso   1.00
H1061  H     0.53357   0.35575   0.88425   0.00000  Uiso   1.00
H1062  H     0.63087   0.66369   0.75756   0.00000  Uiso   1.00
H1063  H     0.59680   0.63700   0.81266   0.00000  Uiso   1.00
H1064  H     0.61444   0.40301   0.83578   0.00000  Uiso   1.00
H1065  H     0.34766   0.37072   0.82014   0.00000  Uiso   1.00
H1066  H     0.66438   0.41263   0.78361   0.00000  Uiso   1.00
H1067  H     0.52154   0.64402   0.66637   0.00000  Uiso   1.00
H1068  H     0.48362   0.36362   0.66051   0.00000  Uiso   1.00
H1069  H     0.46132   0.62387   0.60931   0.00000  Uiso   1.00
H1070  H     0.42994   0.57894   0.65436   0.00000  Uiso   1.00
H1071  H     0.46488   0.50059   0.61273   0.00000  Uiso   1.00
H1072  H     0.39089   0.63063   0.64893   0.00000  Uiso   1.00
H1073  H     0.52514   0.52133   0.89619   0.00000  Uiso   1.00
H1074  H     0.65713   0.53315   0.61600   0.00000  Uiso   1.00
H1075  H     0.35262   0.43321   0.87373   0.00000  Uiso   1.00
H1076  H     0.65750   0.40030   0.94873   0.00000  Uiso   1.00
H1077  H     0.35283   0.53852   0.53621   0.00000  Uiso   1.00
H1078  H     0.33455   0.53825   0.78421   0.00000  Uiso   1.00
N1079  N     0.64839   0.51401   0.76212   0.00000  Uiso   1.00
N1080  N     0.35161   0.48599   0.73788   0.00000  Uiso   1.00
O1081  O     0.46148   0.57142   0.74686   0.00000  Uiso   1.00
O1082  O     0.57613   0.44735   0.92767   0.00000  Uiso   1.00
O1083  O     0.54611   0.34971   0.79148   0.00000  Uiso   1.00
O1084  O     0.44355   0.65140   0.71594   0.00000  Uiso   1.00
O1085  O     0.53852   0.42858   0.75314   0.00000  Uiso   1.00
O1086  O     0.56163   0.58086   0.75503   0.00000  Uiso   1.00
O1087  O     0.43837   0.41914   0.74498   0.00000  Uiso   1.00
O1088  O     0.42185   0.49263   0.80855   0.00000  Uiso   1.00
O1089  O     0.57815   0.50737   0.69146   0.00000  Uiso   1.00
O1090  O     0.52199   0.50207   0.81671   0.00000  Uiso   1.00
O1091  O     0.47801   0.49793   0.68329   0.00000  Uiso   1.00
O1092  O     0.39342   0.44720   0.58491   0.00000  Uiso   1.00
C1093  C     0.84687   0.59965   0.75344   0.00000  Uiso   1.00
C1094  C     0.87120   0.50569   0.66716   0.00000  Uiso   1.00
C1095  C     0.77300   0.48166   0.87974   0.00000  Uiso   1.00
C1096  C     0.89155   0.51116   0.61950   0.00000  Uiso   1.00
C1097  C     0.69899   0.42936   0.93795   0.00000  Uiso   1.00
C1098  C     0.97069   0.52771   0.55253   0.00000  Uiso   1.00
C1099  C     0.71620   0.44722   0.89508   0.00000  Uiso   1.00
C1100  C     0.95432   0.52477   0.59792   0.00000  Uiso   1.00
C1101  C     0.81275   0.49697   0.90811   0.00000  Uiso   1.00
C1102  C     0.84562   0.50316   0.59534   0.00000  Uiso   1.00
C1103  C     0.79411   0.48040   0.95183   0.00000  Uiso   1.00
C1104  C     0.81935   0.40042   0.74762   0.00000  Uiso   1.00
C1105  C     0.86070   0.49995   0.54987   0.00000  Uiso   1.00
C1106  C     0.73509   0.44949   0.96740   0.00000  Uiso   1.00
C1107  C     0.92488   0.51306   0.52834   0.00000  Uiso   1.00
C1108  C     0.83607   0.48858   0.97885   0.00000  Uiso   1.00
C1109  C     0.81493   0.48384   0.52463   0.00000  Uiso   1.00
C1110  C     0.71665   0.39343   0.59443   0.00000  Uiso   1.00
C1111  C     0.98349   0.37532   0.62082   0.00000  Uiso   1.00
C1112  C     0.87671   0.39673   0.94445   0.00000  Uiso   1.00
C1113  C     0.88906   0.35321   0.91160   0.00000  Uiso   1.00
C1114  C     0.93744   0.33766   0.79112   0.00000  Uiso   1.00
C1115  C     0.75205   0.45652   0.54100   0.00000  Uiso   1.00
C1116  C     0.97674   0.38361   0.80919   0.00000  Uiso   1.00
C1117  C     0.80917   0.65602   0.67172   0.00000  Uiso   1.00
C1118  C     0.77039   0.62014   0.64433   0.00000  Uiso   1.00
C1119  C     0.89766   0.48458   0.96037   0.00000  Uiso   1.00
C1120  C     0.71416   0.43771   0.51166   0.00000  Uiso   1.00
C1121  C     0.94276   0.50577   0.98327   0.00000  Uiso   1.00
C1122  C     0.85059   0.65532   0.76012   0.00000  Uiso   1.00
C1123  C     0.81569   0.34522   0.74145   0.00000  Uiso   1.00
C1124  C     0.79533   0.49426   0.83291   0.00000  Uiso   1.00
Cu1125 Cu    0.77404   0.49441   0.74517   0.00000  Uiso   1.00
Cu1126 Cu    0.89263   0.50559   0.75484   0.00000  Uiso   1.00
H1127  H     0.66740   0.41533   0.52391   0.00000  Uiso   1.00
H1128  H     0.99887   0.46193   0.71565   0.00000  Uiso   1.00
H1129  H     0.74917   0.38862   0.61453   0.00000  Uiso   1.00
H1130  H     0.72480   0.36724   0.56535   0.00000  Uiso   1.00
H1131  H     0.94994   0.38084   0.60177   0.00000  Uiso   1.00
H1132  H     0.97501   0.66659   0.62874   0.00000  Uiso   1.00
H1133  H     0.97563   0.39817   0.65167   0.00000  Uiso   1.00
H1134  H     0.82554   0.39292   0.95235   0.00000  Uiso   1.00
H1135  H     0.88937   0.38854   0.97498   0.00000  Uiso   1.00
H1136  H     0.93955   0.35477   0.89932   0.00000  Uiso   1.00
H1137  H     0.86767   0.64810   0.92750   0.00000  Uiso   1.00
H1138  H     0.99132   0.51200   0.96697   0.00000  Uiso   1.00
H1139  H     0.86690   0.35575   0.88425   0.00000  Uiso   1.00
H1140  H     0.96421   0.66369   0.75756   0.00000  Uiso   1.00
H1141  H     0.93013   0.63700   0.81266   0.00000  Uiso   1.00
H1142  H     0.94777   0.40301   0.83578   0.00000  Uiso   1.00
H1143  H     0.68100   0.37072   0.82014   0.00000  Uiso   1.00
H1144  H     0.99771   0.41263   0.78361   0.00000  Uiso   1.00
H1145  H     0.85487   0.64402   0.66637   0.00000  Uiso   1.00
H1146  H     0.81695   0.36362   0.66051   0.00000  Uiso   1.00
H1147  H     0.79465   0.62387   0.60931   0.00000  Uiso   1.00
H1148  H     0.76327   0.57894   0.65436   0.00000  Uiso   1.00
H1149  H     0.79821   0.50059   0.61273   0.00000  Uiso   1.00
H1150  H     0.72423   0.63063   0.64893   0.00000  Uiso   1.00
H1151  H     0.85847   0.52133   0.89619   0.00000  Uiso   1.00
H1152  H     0.99046   0.53315   0.61600   0.00000  Uiso   1.00
H1153  H     0.68595   0.43321   0.87373   0.00000  Uiso   1.00
H1154  H     0.99084   0.40030   0.94873   0.00000  Uiso   1.00
H1155  H     0.68616   0.53852   0.53621   0.00000  Uiso   1.00
H1156  H     0.66788   0.53825   0.78421   0.00000  Uiso   1.00
N1157  N     0.98173   0.51401   0.76212   0.00000  Uiso   1.00
N1158  N     0.68494   0.48599   0.73788   0.00000  Uiso   1.00
O1159  O     0.79482   0.57142   0.74686   0.00000  Uiso   1.00
O1160  O     0.90946   0.44735   0.92767   0.00000  Uiso   1.00
O1161  O     0.87945   0.34971   0.79148   0.00000  Uiso   1.00
O1162  O     0.77688   0.65140   0.71594   0.00000  Uiso   1.00
O1163  O     0.87185   0.42858   0.75314   0.00000  Uiso   1.00
O1164  O     0.89496   0.58086   0.75503   0.00000  Uiso   1.00
O1165  O     0.77171   0.41914   0.74498   0.00000  Uiso   1.00
O1166  O     0.75518   0.49263   0.80855   0.00000  Uiso   1.00
O1167  O     0.91149   0.50737   0.69146   0.00000  Uiso   1.00
O1168  O     0.85532   0.50207   0.81671   0.00000  Uiso   1.00
O1169  O     0.81134   0.49793   0.68329   0.00000  Uiso   1.00
O1170  O     0.72675   0.44720   0.58491   0.00000  Uiso   1.00
C1171  C     0.18021   0.93298   0.75344   0.00000  Uiso   1.00
C1172  C     0.20453   0.83902   0.66716   0.00000  Uiso   1.00
C1173  C     0.10633   0.81500   0.87974   0.00000  Uiso   1.00
C1174  C     0.22489   0.84450   0.61950   0.00000  Uiso   1.00
C1175  C     0.03233   0.76270   0.93795   0.00000  Uiso   1.00
C1176  C     0.30402   0.86104   0.55253   0.00000  Uiso   1.00
C1177  C     0.04954   0.78055   0.89508   0.00000  Uiso   1.00
C1178  C     0.28766   0.85810   0.59792   0.00000  Uiso   1.00
C1179  C     0.14609   0.83031   0.90811   0.00000  Uiso   1.00
C1180  C     0.17895   0.83650   0.59534   0.00000  Uiso   1.00
C1181  C     0.12744   0.81373   0.95183   0.00000  Uiso   1.00
C1182  C     0.15269   0.73375   0.74762   0.00000  Uiso   1.00
C1183  C     0.19403   0.83329   0.54987   0.00000  Uiso   1.00
C1184  C     0.06843   0.78282   0.96740   0.00000  Uiso   1.00
C1185  C     0.25821   0.84639   0.52834   0.00000  Uiso   1.00
C1186  C     0.16941   0.82191   0.97885   0.00000  Uiso   1.00
C1187  C     0.14826   0.81717   0.52463   0.00000  Uiso   1.00
C1188  C     0.04999   0.72676   0.59443   0.00000  Uiso   1.00
C1189  C     0.31682   0.70866   0.62082   0.00000  Uiso   1.00
C1190  C     0.21004   0.73007   0.94445   0.00000  Uiso   1.00
C1191  C     0.22239   0.68654   0.91160   0.00000  Uiso   1.00
C1192  C     0.27077   0.67100   0.79112   0.00000  Uiso   1.00
C1193  C     0.08538   0.78985   0.54100   0.00000  Uiso   1.00
C1194  C     0.31007   0.71695   0.80919   0.00000  Uiso   1.00
C1195  C     0.14250   0.98935   0.67172   0.00000  Uiso   1.00
C1196  C     0.10373   0.95347   0.64433   0.00000  Uiso   1.00
C1197  C     0.23099   0.81792   0.96037   0.00000  Uiso   1.00
C1198  C     0.04750   0.77105   0.51166   0.00000  Uiso   1.00
C1199  C     0.27609   0.83911   0.98327   0.00000  Uiso   1.00
C1200  C     0.18392   0.98866   0.76012   0.00000  Uiso   1.00
C1201  C     0.14902   0.67855   0.74145   0.00000  Uiso   1.00
C1202  C     0.12866   0.82759   0.83291   0.00000  Uiso   1.00
Cu1203 Cu    0.10737   0.82775   0.74517   0.00000  Uiso   1.00
Cu1204 Cu    0.22596   0.83892   0.75484   0.00000  Uiso   1.00
H1205  H     0.00074   0.74866   0.52391   0.00000  Uiso   1.00
H1206  H     0.33220   0.79527   0.71565   0.00000  Uiso   1.00
H1207  H     0.08250   0.72195   0.61453   0.00000  Uiso   1.00
H1208  H     0.05813   0.70058   0.56535   0.00000  Uiso   1.00
H1209  H     0.28328   0.71417   0.60177   0.00000  Uiso   1.00
H1210  H     0.30834   0.99992   0.62874   0.00000  Uiso   1.00
H1211  H     0.30897   0.73150   0.65167   0.00000  Uiso   1.00
H1212  H     0.15887   0.72625   0.95235   0.00000  Uiso   1.00
H1213  H     0.22270   0.72187   0.97498   0.00000  Uiso   1.00
H1214  H     0.27289   0.68811   0.89932   0.00000  Uiso   1.00
H1215  H     0.20100   0.98143   0.92750   0.00000  Uiso   1.00
H1216  H     0.32466   0.84534   0.96697   0.00000  Uiso   1.00
H1217  H     0.20023   0.68908   0.88425   0.00000  Uiso   1.00
H1218  H     0.29754   0.99703   0.75756   0.00000  Uiso   1.00
H1219  H     0.26347   0.97033   0.81266   0.00000  Uiso   1.00
H1220  H     0.28110   0.73634   0.83578   0.00000  Uiso   1.00
H1221  H     0.01433   0.70405   0.82014   0.00000  Uiso   1.00
H1222  H     0.33104   0.74596   0.78361   0.00000  Uiso   1.00
H1223  H     0.18820   0.97736   0.66637   0.00000  Uiso   1.00
H1224  H     0.15028   0.69695   0.66051   0.00000  Uiso   1.00
H1225  H     0.12798   0.95721   0.60931   0.00000  Uiso   1.00
H1226  H     0.09660   0.91227   0.65436   0.00000  Uiso   1.00
H1227  H     0.13155   0.83392   0.61273   0.00000  Uiso   1.00
H1228  H     0.05756   0.96396   0.64893   0.00000  Uiso   1.00
H1229  H     0.19181   0.85466   0.89619   0.00000  Uiso   1.00
H1230  H     0.32380   0.86649   0.61600   0.00000  Uiso   1.00
H1231  H     0.01929   0.76655   0.87373   0.00000  Uiso   1.00
H1232  H     0.32417   0.73363   0.94873   0.00000  Uiso   1.00
H1233  H     0.01949   0.87185   0.53621   0.00000  Uiso   1.00
H1234  H     0.00121   0.87158   0.78421   0.00000  Uiso   1.00
N1235  N     0.31506   0.84735   0.76212   0.00000  Uiso   1.00
N1236  N     0.01827   0.81932   0.73788   0.00000  Uiso   1.00
O1237  O     0.12815   0.90476   0.74686   0.00000  Uiso   1.00
O1238  O     0.24279   0.78068   0.92767   0.00000  Uiso   1.00
O1239  O     0.21278   0.68305   0.79148   0.00000  Uiso   1.00
O1240  O     0.11022   0.98474   0.71594   0.00000  Uiso   1.00
O1241  O     0.20518   0.76191   0.75314   0.00000  Uiso   1.00
O1242  O     0.22829   0.91420   0.75503   0.00000  Uiso   1.00
O1243  O     0.10504   0.75247   0.74498   0.00000  Uiso   1.00
O1244  O     0.08851   0.82597   0.80855   0.00000  Uiso   1.00
O1245  O     0.24482   0.84070   0.69146   0.00000  Uiso   1.00
O1246  O     0.18866   0.83540   0.81671   0.00000  Uiso   1.00
O1247  O     0.14468   0.83126   0.68329   0.00000  Uiso   1.00
O1248  O     0.06008   0.78054   0.58491   0.00000  Uiso   1.00
C1249  C     0.51354   0.93298   0.75344   0.00000  Uiso   1.00
C1250  C     0.53786   0.83902   0.66716   0.00000  Uiso   1.00
C1251  C     0.43967   0.81500   0.87974   0.00000  Uiso   1.00
C1252  C     0.55822   0.84450   0.61950   0.00000  Uiso   1.00
C1253  C     0.36566   0.76270   0.93795   0.00000  Uiso   1.00
C1254  C     0.63736   0.86104   0.55253   0.00000  Uiso   1.00
C1255  C     0.38287   0.78055   0.89508   0.00000  Uiso   1.00
C1256  C     0.62099   0.85810   0.59792   0.00000  Uiso   1.00
C1257  C     0.47942   0.83031   0.90811   0.00000  Uiso   1.00
C1258  C     0.51228   0.83650   0.59534   0.00000  Uiso   1.00
C1259  C     0.46078   0.81373   0.95183   0.00000  Uiso   1.00
C1260  C     0.48602   0.73375   0.74762   0.00000  Uiso   1.00
C1261  C     0.52737   0.83329   0.54987   0.00000  Uiso   1.00
C1262  C     0.40176   0.78282   0.96740   0.00000  Uiso   1.00
C1263  C     0.59155   0.84639   0.52834   0.00000  Uiso   1.00
C1264  C     0.50274   0.82191   0.97885   0.00000  Uiso   1.00
C1265  C     0.48159   0.81717   0.52463   0.00000  Uiso   1.00
C1266  C     0.38332   0.72676   0.59443   0.00000  Uiso   1.00
C1267  C     0.65015   0.70866   0.62082   0.00000  Uiso   1.00
C1268  C     0.54338   0.73007   0.94445   0.00000  Uiso   1.00
C1269  C     0.55572   0.68654   0.91160   0.00000  Uiso   1.00
C1270  C     0.60411   0.67100   0.79112   0.00000  Uiso   1.00
C1271  C     0.41872   0.78985   0.54100   0.00000  Uiso   1.00
C1272  C     0.64340   0.71695   0.80919   0.00000  Uiso   1.00
C1273  C     0.47583   0.98935   0.67172   0.00000  Uiso   1.00
C1274  C     0.43706   0.95347   0.64433   0.00000  Uiso   1.00
C1275  C     0.56433   0.81792   0.96037   0.00000  Uiso   1.00
C1276  C     0.38083   0.77105   0.51166   0.00000  Uiso   1.00
C1277  C     0.60942   0.83911   0.98327   0.00000  Uiso   1.00
C1278  C     0.51726   0.98866   0.76012   0.00000  Uiso   1.00
C1279  C     0.48236   0.67855   0.74145   0.00000  Uiso   1.00
C1280  C     0.46199   0.82759   0.83291   0.00000  Uiso   1.00
Cu1281 Cu    0.44071   0.82775   0.74517   0.00000  Uiso   1.00
Cu1282 Cu    0.55929   0.83892   0.75484   0.00000  Uiso   1.00
H1283  H     0.33407   0.74866   0.52391   0.00000  Uiso   1.00
H1284  H     0.66554   0.79527   0.71565   0.00000  Uiso   1.00
H1285  H     0.41584   0.72195   0.61453   0.00000  Uiso   1.00
H1286  H     0.39147   0.70058   0.56535   0.00000  Uiso   1.00
H1287  H     0.61661   0.71417   0.60177   0.00000  Uiso   1.00
H1288  H     0.64167   0.99992   0.62874   0.00000  Uiso   1.00
H1289  H     0.64230   0.73150   0.65167   0.00000  Uiso   1.00
H1290  H     0.49221   0.72625   0.95235   0.00000  Uiso   1.00
H1291  H     0.55604   0.72187   0.97498   0.00000  Uiso   1.00
H1292  H     0.60622   0.68811   0.89932   0.00000  Uiso   1.00
H1293  H     0.53434   0.98143   0.92750   0.00000  Uiso   1.00
H1294  H     0.65799   0.84534   0.96697   0.00000  Uiso   1.00
H1295  H     0.53357   0.68908   0.88425   0.00000  Uiso   1.00
H1296  H     0.63087   0.99703   0.75756   0.00000  Uiso   1.00
H1297  H     0.59680   0.97033   0.81266   0.00000  Uiso   1.00
H1298  H     0.61444   0.73634   0.83578   0.00000  Uiso   1.00
H1299  H     0.34766   0.70405   0.82014   0.00000  Uiso   1.00
H1300  H     0.66438   0.74596   0.78361   0.00000  Uiso   1.00
H1301  H     0.52154   0.97736   0.66637   0.00000  Uiso   1.00
H1302  H     0.48362   0.69695   0.66051   0.00000  Uiso   1.00
H1303  H     0.46132   0.95721   0.60931   0.00000  Uiso   1.00
H1304  H     0.42994   0.91227   0.65436   0.00000  Uiso   1.00
H1305  H     0.46488   0.83392   0.61273   0.00000  Uiso   1.00
H1306  H     0.39089   0.96396   0.64893   0.00000  Uiso   1.00
H1307  H     0.52514   0.85466   0.89619   0.00000  Uiso   1.00
H1308  H     0.65713   0.86649   0.61600   0.00000  Uiso   1.00
H1309  H     0.35262   0.76655   0.87373   0.00000  Uiso   1.00
H1310  H     0.65750   0.73363   0.94873   0.00000  Uiso   1.00
H1311  H     0.35283   0.87185   0.53621   0.00000  Uiso   1.00
H1312  H     0.33455   0.87158   0.78421   0.00000  Uiso   1.00
N1313  N     0.64839   0.84735   0.76212   0.00000  Uiso   1.00
N1314  N     0.35161   0.81932   0.73788   0.00000  Uiso   1.00
O1315  O     0.46148   0.90476   0.74686   0.00000  Uiso   1.00
O1316  O     0.57613   0.78068   0.92767   0.00000  Uiso   1.00
O1317  O     0.54611   0.68305   0.79148   0.00000  Uiso   1.00
O1318  O     0.44355   0.98474   0.71594   0.00000  Uiso   1.00
O1319  O     0.53852   0.76191   0.75314   0.00000  Uiso   1.00
O1320  O     0.56163   0.91420   0.75503   0.00000  Uiso   1.00
O1321  O     0.43837   0.75247   0.74498   0.00000  Uiso   1.00
O1322  O     0.42185   0.82597   0.80855   0.00000  Uiso   1.00
O1323  O     0.57815   0.84070   0.69146   0.00000  Uiso   1.00
O1324  O     0.52199   0.83540   0.81671   0.00000  Uiso   1.00
O1325  O     0.47801   0.83126   0.68329   0.00000  Uiso   1.00
O1326  O     0.39342   0.78054   0.58491   0.00000  Uiso   1.00
C1327  C     0.84687   0.93298   0.75344   0.00000  Uiso   1.00
C1328  C     0.87120   0.83902   0.66716   0.00000  Uiso   1.00
C1329  C     0.77300   0.81500   0.87974   0.00000  Uiso   1.00
C1330  C     0.89155   0.84450   0.61950   0.00000  Uiso   1.00
C1331  C     0.69899   0.76270   0.93795   0.00000  Uiso   1.00
C1332  C     0.97069   0.86104   0.55253   0.00000  Uiso   1.00
C1333  C     0.71620   0.78055   0.89508   0.00000  Uiso   1.00
C1334  C     0.95432   0.85810   0.59792   0.00000  Uiso   1.00
C1335  C     0.81275   0.83031   0.90811   0.00000  Uiso   1.00
C1336  C     0.84562   0.83650   0.59534   0.00000  Uiso   1.00
C1337  C     0.79411   0.81373   0.95183   0.00000  Uiso   1.00
C1338  C     0.81935   0.73375   0.74762   0.00000  Uiso   1.00
C1339  C     0.86070   0.83329   0.54987   0.00000  Uiso   1.00
C1340  C     0.73509   0.78282   0.96740   0.00000  Uiso   1.00
C1341  C     0.92488   0.84639   0.52834   0.00000  Uiso   1.00
C1342  C     0.83607   0.82191   0.97885   0.00000  Uiso   1.00
C1343  C     0.81493   0.81717   0.52463   0.00000  Uiso   1.00
C1344  C     0.71665   0.72676   0.59443   0.00000  Uiso   1.00
C1345  C     0.98349   0.70866   0.62082   0.00000  Uiso   1.00
C1346  C     0.87671   0.73007   0.94445   0.00000  Uiso   1.00
C1347  C     0.88906   0.68654   0.91160   0.00000  Uiso   1.00
C1348  C     0.93744   0.67100   0.79112   0.00000  Uiso   1.00
C1349  C     0.75205   0.78985   0.54100   0.00000  Uiso   1.00
C1350  C     0.97674   0.71695   0.80919   0.00000  Uiso   1.00
C1351  C     0.80917   0.98935   0.67172   0.00000  Uiso   1.00
C1352  C     0.77039   0.95347   0.64433   0.00000  Uiso   1.00
C1353  C     0.89766   0.81792   0.96037   0.00000  Uiso   1.00
C1354  C     0.71416   0.77105   0.51166   0.00000  Uiso   1.00
C1355  C     0.94276   0.83911   0.98327   0.00000  Uiso   1.00
C1356  C     0.85059   0.98866   0.76012   0.00000  Uiso   1.00
C1357  C     0.81569   0.67855   0.74145   0.00000  Uiso   1.00
C1358  C     0.79533   0.82759   0.83291   0.00000  Uiso   1.00
Cu1359 Cu    0.77404   0.82775   0.74517   0.00000  Uiso   1.00
Cu1360 Cu    0.89263   0.83892   0.75484   0.00000  Uiso   1.00
H1361  H     0.66740   0.74866   0.52391   0.00000  Uiso   1.00
H1362  H     0.99887   0.79527   0.71565   0.00000  Uiso   1.00
H1363  H     0.74917   0.72195   0.61453   0.00000  Uiso   1.00
H1364  H     0.72480   0.70058   0.56535   0.00000  Uiso   1.00
H1365  H     0.94994   0.71417   0.60177   0.00000  Uiso   1.00
H1366  H     0.97501   0.99992   0.62874   0.00000  Uiso   1.00
H1367  H     0.97563   0.73150   0.65167   0.00000  Uiso   1.00
H1368  H     0.82554   0.72625   0.95235   0.00000  Uiso   1.00
H1369  H     0.88937   0.72187   0.97498   0.00000  Uiso   1.00
H1370  H     0.93955   0.68811   0.89932   0.00000  Uiso   1.00
H1371  H     0.86767   0.98143   0.92750   0.00000  Uiso   1.00
H1372  H     0.99132   0.84534   0.96697   0.00000  Uiso   1.00
H1373  H     0.86690   0.68908   0.88425   0.00000  Uiso   1.00
H1374  H     0.96421   0.99703   0.75756   0.00000  Uiso   1.00
H1375  H     0.93013   0.97033   0.81266   0.00000  Uiso   1.00
H1376  H     0.94777   0.73634   0.83578   0.00000  Uiso   1.00
H1377  H     0.68100   0.70405   0.82014   0.00000  Uiso   1.00
H1378  H     0.99771   0.74596   0.78361   0.00000  Uiso   1.00
H1379  H     0.85487   0.97736   0.66637   0.00000  Uiso   1.00
H1380  H     0.81695   0.69695   0.66051   0.00000  Uiso   1.00
H1381  H     0.79465   0.95721   0.60931   0.00000  Uiso   1.00
H1382  H     0.76327   0.91227   0.65436   0.00000  Uiso   1.00
H1383  H     0.79821   0.83392   0.61273   0.00000  Uiso   1.00
H1384  H     0.72423   0.96396   0.64893   0.00000  Uiso   1.00
H1385  H     0.85847   0.85466   0.89619   0.00000  Uiso   1.00
H1386  H     0.99046   0.86649   0.61600   0.00000  Uiso   1.00
H1387  H     0.68595   0.76655   0.87373   0.00000  Uiso   1.00
H1388  H     0.99084   0.73363   0.94873   0.00000  Uiso   1.00
H1389  H     0.68616   0.87185   0.53621   0.00000  Uiso   1.00
H1390  H     0.66788   0.87158   0.78421   0.00000  Uiso   1.00
N1391  N     0.98173   0.84735   0.76212   0.00000  Uiso   1.00
N1392  N     0.68494   0.81932   0.73788   0.00000  Uiso   1.00
O1393  O     0.79482   0.90476   0.74686   0.00000  Uiso   1.00
O1394  O     0.90946   0.78068   0.92767   0.00000  Uiso   1.00
O1395  O     0.87945   0.68305   0.79148   0.00000  Uiso   1.00
O1396  O     0.77688   0.98474   0.71594   0.00000  Uiso   1.00
O1397  O     0.87185   0.76191   0.75314   0.00000  Uiso   1.00
O1398  O     0.89496   0.91420   0.75503   0.00000  Uiso   1.00
O1399  O     0.77171   0.75247   0.74498   0.00000  Uiso   1.00
O1400  O     0.75518   0.82597   0.80855   0.00000  Uiso   1.00
O1401  O     0.91149   0.84070   0.69146   0.00000  Uiso   1.00
O1402  O     0.85532   0.83540   0.81671   0.00000  Uiso   1.00
O1403  O     0.81134   0.83126   0.68329   0.00000  Uiso   1.00
O1404  O     0.72675   0.78054   0.58491   0.00000  Uiso   1.00
loop_
_geom_bond_atom_site_label_1
_geom_bond_atom_site_label_2
_geom_bond_distance
_geom_bond_site_symmetry_2
_ccdc_geom_bond_type
C1     O72     1.298   .     A
C1     C30     1.449   .     S
C1     O67     1.304   .     A
C2     C4      1.471   .     S
C2     O77     1.302   .     A
C2     O75     1.317   .     A
C3     C7      1.398   .     A
C3     C9      1.400   .     A
C3     C32     1.477   .     S
C4     C8      1.398   .     A
C4     C10     1.404   .     A
C5     C7      1.396   .     A
C5     C14     1.389   .     A
C5     H218    1.071   1_455 S
C6     C15     1.406   .     A
C6     C8      1.395   .     A
C6     H141    1.083   .     S
C7     H61     1.068   .     S
C8     H60     1.083   .     S
C9     H59     1.084   .     S
C9     C11     1.410   .     A
C10    H57     1.070   .     S
C10    C13     1.397   .     A
C11    C14     1.395   .     A
C11    C16     1.397   .     A
C12    O73     1.297   .     A
C12    O71     1.300   .     A
C12    C31     1.435   .     S
C13    C15     1.423   .     A
C13    C17     1.433   .     A
C14    C730    1.395   .     S
C15    C731    1.397   1_554 S
C16    C27     1.398   .     A
C16    C719    1.414   .     S
C17    C23     1.433   .     A
C17    C718    1.414   1_554 S
C18    H37     1.110   .     S
C18    O78     1.416   .     S
C18    H38     1.117   .     S
C18    C175    1.523   1_455 S
C19    H39     1.111   .     S
C19    H41     1.111   .     S
C19    C96     1.523   .     S
C19    H508    1.110   1_545 S
C20    H43     1.114   .     S
C20    O68     1.435   .     S
C20    H42     1.107   .     S
C20    C21     1.521   .     S
C21    H44     1.107   .     S
C21    H47     1.109   .     S
C21    H513    1.111   1_545 S
C22    O69     1.410   .     S
C22    C24     1.506   .     S
C22    H516    1.116   1_545 S
C22    H517    1.112   1_545 S
C23    C28     1.407   .     A
C23    O78     1.382   .     S
C24    H52     1.091   .     S
C24    H50     1.105   .     S
C24    H129    1.111   .     S
C25    H53     1.115   .     S
C25    C26     1.521   .     S
C25    O70     1.412   .     S
C25    H288    1.114   .     S
C26    H55     1.111   .     S
C26    H58     1.110   .     S
C26    H56     1.110   .     S
C27    C29     1.391   .     A
C27    O68     1.397   .     S
C28    H35     1.084   .     S
C28    C716    1.395   1_554 S
C29    H46     1.077   .     S
C29    C717    1.397   .     S
C30    C265    1.346   .     S
C30    O303    1.398   .     S
C31    C498    1.346   1_545 S
C31    O538    1.388   1_545 S
C32    O74     1.316   .     A
C32    O76     1.305   .     A
Cu33   N66     2.045   .     S
Cu33   Cu34    2.722   .     S
Cu33   O73     1.961   .     S
Cu33   O67     1.971   .     S
Cu33   O77     1.934   .     S
Cu33   O74     1.946   .     S
Cu34   O75     1.946   .     S
Cu34   N65     2.045   .     S
Cu34   O72     1.961   .     S
Cu34   O71     1.971   .     S
Cu34   O76     1.934   .     S
H36    N144    1.029   .     S
H40    C253    1.110   .     S
H45    C255    1.111   .     S
H48    C256    1.116   .     S
H49    C256    1.112   .     S
H51    C180    1.111   1_455 S
H54    C493    1.114   1_545 S
H62    C83     1.071   .     S
H63    C162    1.083   1_455 S
H64    N221    1.029   1_455 S
N65    H142    1.029   .     S
N65    N144    1.304   .     S
N66    H192    1.029   1_455 S
N66    N221    1.304   1_455 S
O69    C498    1.398   1_545 S
O70    C265    1.388   .     S
C79    O150    1.298   .     A
C79    C108    1.449   .     S
C79    O145    1.304   .     A
C80    C82     1.471   .     S
C80    O155    1.302   .     A
C80    O153    1.317   .     A
C81    C85     1.398   .     A
C81    C87     1.400   .     A
C81    C110    1.477   .     S
C82    C86     1.398   .     A
C82    C88     1.404   .     A
C83    C85     1.396   .     A
C83    C92     1.389   .     A
C84    C93     1.406   .     A
C84    C86     1.395   .     A
C84    H219    1.083   .     S
C85    H139    1.068   .     S
C86    H138    1.083   .     S
C87    H137    1.084   .     S
C87    C89     1.410   .     A
C88    H135    1.070   .     S
C88    C91     1.397   .     A
C89    C92     1.395   .     A
C89    C94     1.397   .     A
C90    O151    1.297   .     A
C90    O149    1.300   .     A
C90    C109    1.435   .     S
C91    C93     1.423   .     A
C91    C95     1.433   .     A
C92    C808    1.395   .     S
C93    C809    1.397   1_554 S
C94    C105    1.398   .     A
C94    C797    1.414   .     S
C95    C101    1.433   .     A
C95    C796    1.414   1_554 S
C96    H115    1.110   .     S
C96    O156    1.416   .     S
C96    H116    1.117   .     S
C97    H117    1.111   .     S
C97    H119    1.111   .     S
C97    C174    1.523   .     S
C97    H586    1.110   1_545 S
C98    H121    1.114   .     S
C98    O146    1.435   .     S
C98    H120    1.107   .     S
C98    C99     1.521   .     S
C99    H122    1.107   .     S
C99    H125    1.109   .     S
C99    H591    1.111   1_545 S
C100   O147    1.410   .     S
C100   C102    1.506   .     S
C100   H594    1.116   1_545 S
C100   H595    1.112   1_545 S
C101   C106    1.407   .     A
C101   O156    1.382   .     S
C102   H130    1.091   .     S
C102   H128    1.105   .     S
C102   H207    1.111   .     S
C103   H131    1.115   .     S
C103   C104    1.521   .     S
C103   O148    1.412   .     S
C103   H366    1.114   .     S
C104   H133    1.111   .     S
C104   H136    1.110   .     S
C104   H134    1.110   .     S
C105   C107    1.391   .     A
C105   O146    1.397   .     S
C106   H113    1.084   .     S
C106   C794    1.395   1_554 S
C107   H124    1.077   .     S
C107   C795    1.397   .     S
C108   C343    1.346   .     S
C108   O381    1.398   .     S
C109   C576    1.346   1_545 S
C109   O616    1.388   1_545 S
C110   O152    1.316   .     A
C110   O154    1.305   .     A
Cu111  N144    2.045   .     S
Cu111  Cu112   2.722   .     S
Cu111  O151    1.961   .     S
Cu111  O145    1.971   .     S
Cu111  O155    1.934   .     S
Cu111  O152    1.946   .     S
Cu112  O153    1.946   .     S
Cu112  N143    2.045   .     S
Cu112  O150    1.961   .     S
Cu112  O149    1.971   .     S
Cu112  O154    1.934   .     S
H114   N222    1.029   .     S
H118   C331    1.110   .     S
H123   C333    1.111   .     S
H126   C334    1.116   .     S
H127   C334    1.112   .     S
H132   C571    1.114   1_545 S
H140   C161    1.071   .     S
N143   H220    1.029   .     S
N143   N222    1.304   .     S
O147   C576    1.398   1_545 S
O148   C343    1.388   .     S
C157   O228    1.298   .     A
C157   C186    1.449   .     S
C157   O223    1.304   .     A
C158   C160    1.471   .     S
C158   O233    1.302   .     A
C158   O231    1.317   .     A
C159   C163    1.398   .     A
C159   C165    1.400   .     A
C159   C188    1.477   .     S
C160   C164    1.398   .     A
C160   C166    1.404   .     A
C161   C163    1.396   .     A
C161   C170    1.389   .     A
C162   C171    1.406   .     A
C162   C164    1.395   .     A
C162   H63     1.083   1_655 S
C163   H217    1.068   .     S
C164   H216    1.083   .     S
C165   H215    1.084   .     S
C165   C167    1.410   .     A
C166   H213    1.070   .     S
C166   C169    1.397   .     A
C167   C170    1.395   .     A
C167   C172    1.397   .     A
C168   O229    1.297   .     A
C168   O227    1.300   .     A
C168   C187    1.435   .     S
C169   C171    1.423   .     A
C169   C173    1.433   .     A
C170   C886    1.395   .     S
C171   C887    1.397   1_554 S
C172   C183    1.398   .     A
C172   C875    1.414   .     S
C173   C179    1.433   .     A
C173   C874    1.414   1_554 S
C174   H193    1.110   .     S
C174   O234    1.416   .     S
C174   H194    1.117   .     S
C175   H195    1.111   .     S
C175   H197    1.111   .     S
C175   C18     1.523   1_655 S
C175   H664    1.110   1_545 S
C176   H199    1.114   .     S
C176   O224    1.435   .     S
C176   H198    1.107   .     S
C176   C177    1.521   .     S
C177   H200    1.107   .     S
C177   H203    1.109   .     S
C177   H669    1.111   1_545 S
C178   O225    1.410   .     S
C178   C180    1.506   .     S
C178   H672    1.116   1_545 S
C178   H673    1.112   1_545 S
C179   C184    1.407   .     A
C179   O234    1.382   .     S
C180   H208    1.091   .     S
C180   H206    1.105   .     S
C180   H51     1.111   1_655 S
C181   H209    1.115   .     S
C181   C182    1.521   .     S
C181   O226    1.412   .     S
C181   H444    1.114   .     S
C182   H211    1.111   .     S
C182   H214    1.110   .     S
C182   H212    1.110   .     S
C183   C185    1.391   .     A
C183   O224    1.397   .     S
C184   H191    1.084   .     S
C184   C872    1.395   1_554 S
C185   H202    1.077   .     S
C185   C873    1.397   .     S
C186   C421    1.346   .     S
C186   O459    1.398   .     S
C187   C654    1.346   1_545 S
C187   O694    1.388   1_545 S
C188   O230    1.316   .     A
C188   O232    1.305   .     A
Cu189  N222    2.045   .     S
Cu189  Cu190   2.722   .     S
Cu189  O229    1.961   .     S
Cu189  O223    1.971   .     S
Cu189  O233    1.934   .     S
Cu189  O230    1.946   .     S
Cu190  O231    1.946   .     S
Cu190  N221    2.045   .     S
Cu190  O228    1.961   .     S
Cu190  O227    1.971   .     S
Cu190  O232    1.934   .     S
H192   N66     1.029   1_655 S
H196   C409    1.110   .     S
H201   C411    1.111   .     S
H204   C412    1.116   .     S
H205   C412    1.112   .     S
H210   C649    1.114   1_545 S
H218   C5      1.071   1_655 S
N221   H64     1.029   1_655 S
N221   N66     1.304   1_655 S
O225   C654    1.398   1_545 S
O226   C421    1.388   .     S
C235   O306    1.298   .     A
C235   C264    1.449   .     S
C235   O301    1.304   .     A
C236   C238    1.471   .     S
C236   O311    1.302   .     A
C236   O309    1.317   .     A
C237   C241    1.398   .     A
C237   C243    1.400   .     A
C237   C266    1.477   .     S
C238   C242    1.398   .     A
C238   C244    1.404   .     A
C239   C241    1.396   .     A
C239   C248    1.389   .     A
C239   H452    1.071   1_455 S
C240   C249    1.406   .     A
C240   C242    1.395   .     A
C240   H375    1.083   .     S
C241   H295    1.068   .     S
C242   H294    1.083   .     S
C243   H293    1.084   .     S
C243   C245    1.410   .     A
C244   H291    1.070   .     S
C244   C247    1.397   .     A
C245   C248    1.395   .     A
C245   C250    1.397   .     A
C246   O307    1.297   .     A
C246   O305    1.300   .     A
C246   C265    1.435   .     S
C247   C249    1.423   .     A
C247   C251    1.433   .     A
C248   C964    1.395   .     S
C249   C965    1.397   1_554 S
C250   C261    1.398   .     A
C250   C953    1.414   .     S
C251   C257    1.433   .     A
C251   C952    1.414   1_554 S
C252   H271    1.110   .     S
C252   O312    1.416   .     S
C252   H272    1.117   .     S
C252   C409    1.523   1_455 S
C253   H273    1.111   .     S
C253   H275    1.111   .     S
C253   C330    1.523   .     S
C254   H277    1.114   .     S
C254   O302    1.435   .     S
C254   H276    1.107   .     S
C254   C255    1.521   .     S
C255   H278    1.107   .     S
C255   H281    1.109   .     S
C256   O303    1.410   .     S
C256   C258    1.506   .     S
C257   C262    1.407   .     A
C257   O312    1.382   .     S
C258   H286    1.091   .     S
C258   H284    1.105   .     S
C258   H363    1.111   .     S
C259   H287    1.115   .     S
C259   C260    1.521   .     S
C259   O304    1.412   .     S
C259   H522    1.114   .     S
C260   H289    1.111   .     S
C260   H292    1.110   .     S
C260   H290    1.110   .     S
C261   C263    1.391   .     A
C261   O302    1.397   .     S
C262   H269    1.084   .     S
C262   C950    1.395   1_554 S
C263   H280    1.077   .     S
C263   C951    1.397   .     S
C264   C499    1.346   .     S
C264   O537    1.398   .     S
C266   O308    1.316   .     A
C266   O310    1.305   .     A
Cu267  N300    2.045   .     S
Cu267  Cu268   2.722   .     S
Cu267  O307    1.961   .     S
Cu267  O301    1.971   .     S
Cu267  O311    1.934   .     S
Cu267  O308    1.946   .     S
Cu268  O309    1.946   .     S
Cu268  N299    2.045   .     S
Cu268  O306    1.961   .     S
Cu268  O305    1.971   .     S
Cu268  O310    1.934   .     S
H270   N378    1.029   .     S
H274   C487    1.110   .     S
H279   C489    1.111   .     S
H282   C490    1.116   .     S
H283   C490    1.112   .     S
H285   C414    1.111   1_455 S
H296   C317    1.071   .     S
H297   C396    1.083   1_455 S
H298   N455    1.029   1_455 S
N299   H376    1.029   .     S
N299   N378    1.304   .     S
N300   H426    1.029   1_455 S
N300   N455    1.304   1_455 S
O304   C499    1.388   .     S
C313   O384    1.298   .     A
C313   C342    1.449   .     S
C313   O379    1.304   .     A
C314   C316    1.471   .     S
C314   O389    1.302   .     A
C314   O387    1.317   .     A
C315   C319    1.398   .     A
C315   C321    1.400   .     A
C315   C344    1.477   .     S
C316   C320    1.398   .     A
C316   C322    1.404   .     A
C317   C319    1.396   .     A
C317   C326    1.389   .     A
C318   C327    1.406   .     A
C318   C320    1.395   .     A
C318   H453    1.083   .     S
C319   H373    1.068   .     S
C320   H372    1.083   .     S
C321   H371    1.084   .     S
C321   C323    1.410   .     A
C322   H369    1.070   .     S
C322   C325    1.397   .     A
C323   C326    1.395   .     A
C323   C328    1.397   .     A
C324   O385    1.297   .     A
C324   O383    1.300   .     A
C324   C343    1.435   .     S
C325   C327    1.423   .     A
C325   C329    1.433   .     A
C326   C1042   1.395   .     S
C327   C1043   1.397   1_554 S
C328   C339    1.398   .     A
C328   C1031   1.414   .     S
C329   C335    1.433   .     A
C329   C1030   1.414   1_554 S
C330   H349    1.110   .     S
C330   O390    1.416   .     S
C330   H350    1.117   .     S
C331   H351    1.111   .     S
C331   H353    1.111   .     S
C331   C408    1.523   .     S
C332   H355    1.114   .     S
C332   O380    1.435   .     S
C332   H354    1.107   .     S
C332   C333    1.521   .     S
C333   H356    1.107   .     S
C333   H359    1.109   .     S
C334   O381    1.410   .     S
C334   C336    1.506   .     S
C335   C340    1.407   .     A
C335   O390    1.382   .     S
C336   H364    1.091   .     S
C336   H362    1.105   .     S
C336   H441    1.111   .     S
C337   H365    1.115   .     S
C337   C338    1.521   .     S
C337   O382    1.412   .     S
C337   H600    1.114   .     S
C338   H367    1.111   .     S
C338   H370    1.110   .     S
C338   H368    1.110   .     S
C339   C341    1.391   .     A
C339   O380    1.397   .     S
C340   H347    1.084   .     S
C340   C1028   1.395   1_554 S
C341   H358    1.077   .     S
C341   C1029   1.397   .     S
C342   C577    1.346   .     S
C342   O615    1.398   .     S
C344   O386    1.316   .     A
C344   O388    1.305   .     A
Cu345  N378    2.045   .     S
Cu345  Cu346   2.722   .     S
Cu345  O385    1.961   .     S
Cu345  O379    1.971   .     S
Cu345  O389    1.934   .     S
Cu345  O386    1.946   .     S
Cu346  O387    1.946   .     S
Cu346  N377    2.045   .     S
Cu346  O384    1.961   .     S
Cu346  O383    1.971   .     S
Cu346  O388    1.934   .     S
H348   N456    1.029   .     S
H352   C565    1.110   .     S
H357   C567    1.111   .     S
H360   C568    1.116   .     S
H361   C568    1.112   .     S
H374   C395    1.071   .     S
N377   H454    1.029   .     S
N377   N456    1.304   .     S
O382   C577    1.388   .     S
C391   O462    1.298   .     A
C391   C420    1.449   .     S
C391   O457    1.304   .     A
C392   C394    1.471   .     S
C392   O467    1.302   .     A
C392   O465    1.317   .     A
C393   C397    1.398   .     A
C393   C399    1.400   .     A
C393   C422    1.477   .     S
C394   C398    1.398   .     A
C394   C400    1.404   .     A
C395   C397    1.396   .     A
C395   C404    1.389   .     A
C396   C405    1.406   .     A
C396   C398    1.395   .     A
C396   H297    1.083   1_655 S
C397   H451    1.068   .     S
C398   H450    1.083   .     S
C399   H449    1.084   .     S
C399   C401    1.410   .     A
C400   H447    1.070   .     S
C400   C403    1.397   .     A
C401   C404    1.395   .     A
C401   C406    1.397   .     A
C402   O463    1.297   .     A
C402   O461    1.300   .     A
C402   C421    1.435   .     S
C403   C405    1.423   .     A
C403   C407    1.433   .     A
C404   C1120   1.395   .     S
C405   C1121   1.397   1_554 S
C406   C417    1.398   .     A
C406   C1109   1.414   .     S
C407   C413    1.433   .     A
C407   C1108   1.414   1_554 S
C408   H427    1.110   .     S
C408   O468    1.416   .     S
C408   H428    1.117   .     S
C409   H429    1.111   .     S
C409   H431    1.111   .     S
C409   C252    1.523   1_655 S
C410   H433    1.114   .     S
C410   O458    1.435   .     S
C410   H432    1.107   .     S
C410   C411    1.521   .     S
C411   H434    1.107   .     S
C411   H437    1.109   .     S
C412   O459    1.410   .     S
C412   C414    1.506   .     S
C413   C418    1.407   .     A
C413   O468    1.382   .     S
C414   H442    1.091   .     S
C414   H440    1.105   .     S
C414   H285    1.111   1_655 S
C415   H443    1.115   .     S
C415   C416    1.521   .     S
C415   O460    1.412   .     S
C415   H678    1.114   .     S
C416   H445    1.111   .     S
C416   H448    1.110   .     S
C416   H446    1.110   .     S
C417   C419    1.391   .     A
C417   O458    1.397   .     S
C418   H425    1.084   .     S
C418   C1106   1.395   1_554 S
C419   H436    1.077   .     S
C419   C1107   1.397   .     S
C420   C655    1.346   .     S
C420   O693    1.398   .     S
C422   O464    1.316   .     A
C422   O466    1.305   .     A
Cu423  N456    2.045   .     S
Cu423  Cu424   2.722   .     S
Cu423  O463    1.961   .     S
Cu423  O457    1.971   .     S
Cu423  O467    1.934   .     S
Cu423  O464    1.946   .     S
Cu424  O465    1.946   .     S
Cu424  N455    2.045   .     S
Cu424  O462    1.961   .     S
Cu424  O461    1.971   .     S
Cu424  O466    1.934   .     S
H426   N300    1.029   1_655 S
H430   C643    1.110   .     S
H435   C645    1.111   .     S
H438   C646    1.116   .     S
H439   C646    1.112   .     S
H452   C239    1.071   1_655 S
N455   H298    1.029   1_655 S
N455   N300    1.304   1_655 S
O460   C655    1.388   .     S
C469   O540    1.298   .     A
C469   C498    1.449   .     S
C469   O535    1.304   .     A
C470   C472    1.471   .     S
C470   O545    1.302   .     A
C470   O543    1.317   .     A
C471   C475    1.398   .     A
C471   C477    1.400   .     A
C471   C500    1.477   .     S
C472   C476    1.398   .     A
C472   C478    1.404   .     A
C473   C475    1.396   .     A
C473   C482    1.389   .     A
C473   H686    1.071   1_455 S
C474   C483    1.406   .     A
C474   C476    1.395   .     A
C474   H609    1.083   .     S
C475   H529    1.068   .     S
C476   H528    1.083   .     S
C477   H527    1.084   .     S
C477   C479    1.410   .     A
C478   H525    1.070   .     S
C478   C481    1.397   .     A
C479   C482    1.395   .     A
C479   C484    1.397   .     A
C480   O541    1.297   .     A
C480   O539    1.300   .     A
C480   C499    1.435   .     S
C481   C483    1.423   .     A
C481   C485    1.433   .     A
C482   C1198   1.395   .     S
C483   C1199   1.397   1_554 S
C484   C495    1.398   .     A
C484   C1187   1.414   .     S
C485   C491    1.433   .     A
C485   C1186   1.414   1_554 S
C486   H505    1.110   .     S
C486   O546    1.416   .     S
C486   H506    1.117   .     S
C486   C643    1.523   1_455 S
C487   H507    1.111   .     S
C487   H509    1.111   .     S
C487   C564    1.523   .     S
C488   H511    1.114   .     S
C488   O536    1.435   .     S
C488   H510    1.107   .     S
C488   C489    1.521   .     S
C489   H512    1.107   .     S
C489   H515    1.109   .     S
C490   O537    1.410   .     S
C490   C492    1.506   .     S
C491   C496    1.407   .     A
C491   O546    1.382   .     S
C492   H520    1.091   .     S
C492   H518    1.105   .     S
C492   H597    1.111   .     S
C493   H521    1.115   .     S
C493   C494    1.521   .     S
C493   O538    1.412   .     S
C493   H54     1.114   1_565 S
C494   H523    1.111   .     S
C494   H526    1.110   .     S
C494   H524    1.110   .     S
C495   C497    1.391   .     A
C495   O536    1.397   .     S
C496   H503    1.084   .     S
C496   C1184   1.395   1_554 S
C497   H514    1.077   .     S
C497   C1185   1.397   .     S
C498   C31     1.346   1_565 S
C498   O69     1.398   1_565 S
C500   O542    1.316   .     A
C500   O544    1.305   .     A
Cu501  N534    2.045   .     S
Cu501  Cu502   2.722   .     S
Cu501  O541    1.961   .     S
Cu501  O535    1.971   .     S
Cu501  O545    1.934   .     S
Cu501  O542    1.946   .     S
Cu502  O543    1.946   .     S
Cu502  N533    2.045   .     S
Cu502  O540    1.961   .     S
Cu502  O539    1.971   .     S
Cu502  O544    1.934   .     S
H504   N612    1.029   .     S
H508   C19     1.110   1_565 S
H513   C21     1.111   1_565 S
H516   C22     1.116   1_565 S
H517   C22     1.112   1_565 S
H519   C648    1.111   1_455 S
H530   C551    1.071   .     S
H531   C630    1.083   1_455 S
H532   N689    1.029   1_455 S
N533   H610    1.029   .     S
N533   N612    1.304   .     S
N534   H660    1.029   1_455 S
N534   N689    1.304   1_455 S
O538   C31     1.388   1_565 S
C547   O618    1.298   .     A
C547   C576    1.449   .     S
C547   O613    1.304   .     A
C548   C550    1.471   .     S
C548   O623    1.302   .     A
C548   O621    1.317   .     A
C549   C553    1.398   .     A
C549   C555    1.400   .     A
C549   C578    1.477   .     S
C550   C554    1.398   .     A
C550   C556    1.404   .     A
C551   C553    1.396   .     A
C551   C560    1.389   .     A
C552   C561    1.406   .     A
C552   C554    1.395   .     A
C552   H687    1.083   .     S
C553   H607    1.068   .     S
C554   H606    1.083   .     S
C555   H605    1.084   .     S
C555   C557    1.410   .     A
C556   H603    1.070   .     S
C556   C559    1.397   .     A
C557   C560    1.395   .     A
C557   C562    1.397   .     A
C558   O619    1.297   .     A
C558   O617    1.300   .     A
C558   C577    1.435   .     S
C559   C561    1.423   .     A
C559   C563    1.433   .     A
C560   C1276   1.395   .     S
C561   C1277   1.397   1_554 S
C562   C573    1.398   .     A
C562   C1265   1.414   .     S
C563   C569    1.433   .     A
C563   C1264   1.414   1_554 S
C564   H583    1.110   .     S
C564   O624    1.416   .     S
C564   H584    1.117   .     S
C565   H585    1.111   .     S
C565   H587    1.111   .     S
C565   C642    1.523   .     S
C566   H589    1.114   .     S
C566   O614    1.435   .     S
C566   H588    1.107   .     S
C566   C567    1.521   .     S
C567   H590    1.107   .     S
C567   H593    1.109   .     S
C568   O615    1.410   .     S
C568   C570    1.506   .     S
C569   C574    1.407   .     A
C569   O624    1.382   .     S
C570   H598    1.091   .     S
C570   H596    1.105   .     S
C570   H675    1.111   .     S
C571   H599    1.115   .     S
C571   C572    1.521   .     S
C571   O616    1.412   .     S
C571   H132    1.114   1_565 S
C572   H601    1.111   .     S
C572   H604    1.110   .     S
C572   H602    1.110   .     S
C573   C575    1.391   .     A
C573   O614    1.397   .     S
C574   H581    1.084   .     S
C574   C1262   1.395   1_554 S
C575   H592    1.077   .     S
C575   C1263   1.397   .     S
C576   C109    1.346   1_565 S
C576   O147    1.398   1_565 S
C578   O620    1.316   .     A
C578   O622    1.305   .     A
Cu579  N612    2.045   .     S
Cu579  Cu580   2.722   .     S
Cu579  O619    1.961   .     S
Cu579  O613    1.971   .     S
Cu579  O623    1.934   .     S
Cu579  O620    1.946   .     S
Cu580  O621    1.946   .     S
Cu580  N611    2.045   .     S
Cu580  O618    1.961   .     S
Cu580  O617    1.971   .     S
Cu580  O622    1.934   .     S
H582   N690    1.029   .     S
H586   C97     1.110   1_565 S
H591   C99     1.111   1_565 S
H594   C100    1.116   1_565 S
H595   C100    1.112   1_565 S
H608   C629    1.071   .     S
N611   H688    1.029   .     S
N611   N690    1.304   .     S
O616   C109    1.388   1_565 S
C625   O696    1.298   .     A
C625   C654    1.449   .     S
C625   O691    1.304   .     A
C626   C628    1.471   .     S
C626   O701    1.302   .     A
C626   O699    1.317   .     A
C627   C631    1.398   .     A
C627   C633    1.400   .     A
C627   C656    1.477   .     S
C628   C632    1.398   .     A
C628   C634    1.404   .     A
C629   C631    1.396   .     A
C629   C638    1.389   .     A
C630   C639    1.406   .     A
C630   C632    1.395   .     A
C630   H531    1.083   1_655 S
C631   H685    1.068   .     S
C632   H684    1.083   .     S
C633   H683    1.084   .     S
C633   C635    1.410   .     A
C634   H681    1.070   .     S
C634   C637    1.397   .     A
C635   C638    1.395   .     A
C635   C640    1.397   .     A
C636   O697    1.297   .     A
C636   O695    1.300   .     A
C636   C655    1.435   .     S
C637   C639    1.423   .     A
C637   C641    1.433   .     A
C638   C1354   1.395   .     S
C639   C1355   1.397   1_554 S
C640   C651    1.398   .     A
C640   C1343   1.414   .     S
C641   C647    1.433   .     A
C641   C1342   1.414   1_554 S
C642   H661    1.110   .     S
C642   O702    1.416   .     S
C642   H662    1.117   .     S
C643   H663    1.111   .     S
C643   H665    1.111   .     S
C643   C486    1.523   1_655 S
C644   H667    1.114   .     S
C644   O692    1.435   .     S
C644   H666    1.107   .     S
C644   C645    1.521   .     S
C645   H668    1.107   .     S
C645   H671    1.109   .     S
C646   O693    1.410   .     S
C646   C648    1.506   .     S
C647   C652    1.407   .     A
C647   O702    1.382   .     S
C648   H676    1.091   .     S
C648   H674    1.105   .     S
C648   H519    1.111   1_655 S
C649   H677    1.115   .     S
C649   C650    1.521   .     S
C649   O694    1.412   .     S
C649   H210    1.114   1_565 S
C650   H679    1.111   .     S
C650   H682    1.110   .     S
C650   H680    1.110   .     S
C651   C653    1.391   .     A
C651   O692    1.397   .     S
C652   H659    1.084   .     S
C652   C1340   1.395   1_554 S
C653   H670    1.077   .     S
C653   C1341   1.397   .     S
C654   C187    1.346   1_565 S
C654   O225    1.398   1_565 S
C656   O698    1.316   .     A
C656   O700    1.305   .     A
Cu657  N690    2.045   .     S
Cu657  Cu658   2.722   .     S
Cu657  O697    1.961   .     S
Cu657  O691    1.971   .     S
Cu657  O701    1.934   .     S
Cu657  O698    1.946   .     S
Cu658  O699    1.946   .     S
Cu658  N689    2.045   .     S
Cu658  O696    1.961   .     S
Cu658  O695    1.971   .     S
Cu658  O700    1.934   .     S
H660   N534    1.029   1_655 S
H664   C175    1.110   1_565 S
H669   C177    1.111   1_565 S
H672   C178    1.116   1_565 S
H673   C178    1.112   1_565 S
H686   C473    1.071   1_655 S
N689   H532    1.029   1_655 S
N689   N534    1.304   1_655 S
O694   C187    1.388   1_565 S
C703   O774    1.298   .     A
C703   C732    1.449   .     S
C703   O769    1.304   .     A
C704   C706    1.471   .     S
C704   O779    1.302   .     A
C704   O777    1.317   .     A
C705   C709    1.398   .     A
C705   C711    1.400   .     A
C705   C734    1.477   .     S
C706   C710    1.398   .     A
C706   C712    1.404   .     A
C707   C709    1.396   .     A
C707   C716    1.389   .     A
C707   H920    1.071   1_455 S
C708   C717    1.406   .     A
C708   C710    1.395   .     A
C708   H843    1.083   .     S
C709   H763    1.068   .     S
C710   H762    1.083   .     S
C711   H761    1.084   .     S
C711   C713    1.410   .     A
C712   H759    1.070   .     S
C712   C715    1.397   .     A
C713   C716    1.395   .     A
C713   C718    1.397   .     A
C714   O775    1.297   .     A
C714   O773    1.300   .     A
C714   C733    1.435   .     S
C715   C717    1.423   .     A
C715   C719    1.433   .     A
C716   C28     1.395   1_556 S
C718   C729    1.398   .     A
C718   C17     1.414   1_556 S
C719   C725    1.433   .     A
C720   H739    1.110   .     S
C720   O780    1.416   .     S
C720   H740    1.117   .     S
C720   C877    1.523   1_455 S
C721   H741    1.111   .     S
C721   H743    1.111   .     S
C721   C798    1.523   .     S
C721   H1210   1.110   1_545 S
C722   H745    1.114   .     S
C722   O770    1.435   .     S
C722   H744    1.107   .     S
C722   C723    1.521   .     S
C723   H746    1.107   .     S
C723   H749    1.109   .     S
C723   H1215   1.111   1_545 S
C724   O771    1.410   .     S
C724   C726    1.506   .     S
C724   H1218   1.116   1_545 S
C724   H1219   1.112   1_545 S
C725   C730    1.407   .     A
C725   O780    1.382   .     S
C726   H754    1.091   .     S
C726   H752    1.105   .     S
C726   H831    1.111   .     S
C727   H755    1.115   .     S
C727   C728    1.521   .     S
C727   O772    1.412   .     S
C727   H990    1.114   .     S
C728   H757    1.111   .     S
C728   H760    1.110   .     S
C728   H758    1.110   .     S
C729   C731    1.391   .     A
C729   O770    1.397   .     S
C730   H737    1.084   .     S
C731   H748    1.077   .     S
C731   C15     1.397   1_556 S
C732   C967    1.346   .     S
C732   O1005   1.398   .     S
C733   C1200   1.346   1_545 S
C733   O1240   1.388   1_545 S
C734   O776    1.316   .     A
C734   O778    1.305   .     A
Cu735  N768    2.045   .     S
Cu735  Cu736   2.722   .     S
Cu735  O775    1.961   .     S
Cu735  O769    1.971   .     S
Cu735  O779    1.934   .     S
Cu735  O776    1.946   .     S
Cu736  O777    1.946   .     S
Cu736  N767    2.045   .     S
Cu736  O774    1.961   .     S
Cu736  O773    1.971   .     S
Cu736  O778    1.934   .     S
H738   N846    1.029   .     S
H742   C955    1.110   .     S
H747   C957    1.111   .     S
H750   C958    1.116   .     S
H751   C958    1.112   .     S
H753   C882    1.111   1_455 S
H756   C1195   1.114   1_545 S
H764   C785    1.071   .     S
H765   C864    1.083   1_455 S
H766   N923    1.029   1_455 S
N767   H844    1.029   .     S
N767   N846    1.304   .     S
N768   H894    1.029   1_455 S
N768   N923    1.304   1_455 S
O771   C1200   1.398   1_545 S
O772   C967    1.388   .     S
C781   O852    1.298   .     A
C781   C810    1.449   .     S
C781   O847    1.304   .     A
C782   C784    1.471   .     S
C782   O857    1.302   .     A
C782   O855    1.317   .     A
C783   C787    1.398   .     A
C783   C789    1.400   .     A
C783   C812    1.477   .     S
C784   C788    1.398   .     A
C784   C790    1.404   .     A
C785   C787    1.396   .     A
C785   C794    1.389   .     A
C786   C795    1.406   .     A
C786   C788    1.395   .     A
C786   H921    1.083   .     S
C787   H841    1.068   .     S
C788   H840    1.083   .     S
C789   H839    1.084   .     S
C789   C791    1.410   .     A
C790   H837    1.070   .     S
C790   C793    1.397   .     A
C791   C794    1.395   .     A
C791   C796    1.397   .     A
C792   O853    1.297   .     A
C792   O851    1.300   .     A
C792   C811    1.435   .     S
C793   C795    1.423   .     A
C793   C797    1.433   .     A
C794   C106    1.395   1_556 S
C796   C807    1.398   .     A
C796   C95     1.414   1_556 S
C797   C803    1.433   .     A
C798   H817    1.110   .     S
C798   O858    1.416   .     S
C798   H818    1.117   .     S
C799   H819    1.111   .     S
C799   H821    1.111   .     S
C799   C876    1.523   .     S
C799   H1288   1.110   1_545 S
C800   H823    1.114   .     S
C800   O848    1.435   .     S
C800   H822    1.107   .     S
C800   C801    1.521   .     S
C801   H824    1.107   .     S
C801   H827    1.109   .     S
C801   H1293   1.111   1_545 S
C802   O849    1.410   .     S
C802   C804    1.506   .     S
C802   H1296   1.116   1_545 S
C802   H1297   1.112   1_545 S
C803   C808    1.407   .     A
C803   O858    1.382   .     S
C804   H832    1.091   .     S
C804   H830    1.105   .     S
C804   H909    1.111   .     S
C805   H833    1.115   .     S
C805   C806    1.521   .     S
C805   O850    1.412   .     S
C805   H1068   1.114   .     S
C806   H835    1.111   .     S
C806   H838    1.110   .     S
C806   H836    1.110   .     S
C807   C809    1.391   .     A
C807   O848    1.397   .     S
C808   H815    1.084   .     S
C809   H826    1.077   .     S
C809   C93     1.397   1_556 S
C810   C1045   1.346   .     S
C810   O1083   1.398   .     S
C811   C1278   1.346   1_545 S
C811   O1318   1.388   1_545 S
C812   O854    1.316   .     A
C812   O856    1.305   .     A
Cu813  N846    2.045   .     S
Cu813  Cu814   2.722   .     S
Cu813  O853    1.961   .     S
Cu813  O847    1.971   .     S
Cu813  O857    1.934   .     S
Cu813  O854    1.946   .     S
Cu814  O855    1.946   .     S
Cu814  N845    2.045   .     S
Cu814  O852    1.961   .     S
Cu814  O851    1.971   .     S
Cu814  O856    1.934   .     S
H816   N924    1.029   .     S
H820   C1033   1.110   .     S
H825   C1035   1.111   .     S
H828   C1036   1.116   .     S
H829   C1036   1.112   .     S
H834   C1273   1.114   1_545 S
H842   C863    1.071   .     S
N845   H922    1.029   .     S
N845   N924    1.304   .     S
O849   C1278   1.398   1_545 S
O850   C1045   1.388   .     S
C859   O930    1.298   .     A
C859   C888    1.449   .     S
C859   O925    1.304   .     A
C860   C862    1.471   .     S
C860   O935    1.302   .     A
C860   O933    1.317   .     A
C861   C865    1.398   .     A
C861   C867    1.400   .     A
C861   C890    1.477   .     S
C862   C866    1.398   .     A
C862   C868    1.404   .     A
C863   C865    1.396   .     A
C863   C872    1.389   .     A
C864   C873    1.406   .     A
C864   C866    1.395   .     A
C864   H765    1.083   1_655 S
C865   H919    1.068   .     S
C866   H918    1.083   .     S
C867   H917    1.084   .     S
C867   C869    1.410   .     A
C868   H915    1.070   .     S
C868   C871    1.397   .     A
C869   C872    1.395   .     A
C869   C874    1.397   .     A
C870   O931    1.297   .     A
C870   O929    1.300   .     A
C870   C889    1.435   .     S
C871   C873    1.423   .     A
C871   C875    1.433   .     A
C872   C184    1.395   1_556 S
C874   C885    1.398   .     A
C874   C173    1.414   1_556 S
C875   C881    1.433   .     A
C876   H895    1.110   .     S
C876   O936    1.416   .     S
C876   H896    1.117   .     S
C877   H897    1.111   .     S
C877   H899    1.111   .     S
C877   C720    1.523   1_655 S
C877   H1366   1.110   1_545 S
C878   H901    1.114   .     S
C878   O926    1.435   .     S
C878   H900    1.107   .     S
C878   C879    1.521   .     S
C879   H902    1.107   .     S
C879   H905    1.109   .     S
C879   H1371   1.111   1_545 S
C880   O927    1.410   .     S
C880   C882    1.506   .     S
C880   H1374   1.116   1_545 S
C880   H1375   1.112   1_545 S
C881   C886    1.407   .     A
C881   O936    1.382   .     S
C882   H910    1.091   .     S
C882   H908    1.105   .     S
C882   H753    1.111   1_655 S
C883   H911    1.115   .     S
C883   C884    1.521   .     S
C883   O928    1.412   .     S
C883   H1146   1.114   .     S
C884   H913    1.111   .     S
C884   H916    1.110   .     S
C884   H914    1.110   .     S
C885   C887    1.391   .     A
C885   O926    1.397   .     S
C886   H893    1.084   .     S
C887   H904    1.077   .     S
C887   C171    1.397   1_556 S
C888   C1123   1.346   .     S
C888   O1161   1.398   .     S
C889   C1356   1.346   1_545 S
C889   O1396   1.388   1_545 S
C890   O932    1.316   .     A
C890   O934    1.305   .     A
Cu891  N924    2.045   .     S
Cu891  Cu892   2.722   .     S
Cu891  O931    1.961   .     S
Cu891  O925    1.971   .     S
Cu891  O935    1.934   .     S
Cu891  O932    1.946   .     S
Cu892  O933    1.946   .     S
Cu892  N923    2.045   .     S
Cu892  O930    1.961   .     S
Cu892  O929    1.971   .     S
Cu892  O934    1.934   .     S
H894   N768    1.029   1_655 S
H898   C1111   1.110   .     S
H903   C1113   1.111   .     S
H906   C1114   1.116   .     S
H907   C1114   1.112   .     S
H912   C1351   1.114   1_545 S
H920   C707    1.071   1_655 S
N923   H766    1.029   1_655 S
N923   N768    1.304   1_655 S
O927   C1356   1.398   1_545 S
O928   C1123   1.388   .     S
C937   O1008   1.298   .     A
C937   C966    1.449   .     S
C937   O1003   1.304   .     A
C938   C940    1.471   .     S
C938   O1013   1.302   .     A
C938   O1011   1.317   .     A
C939   C943    1.398   .     A
C939   C945    1.400   .     A
C939   C968    1.477   .     S
C940   C944    1.398   .     A
C940   C946    1.404   .     A
C941   C943    1.396   .     A
C941   C950    1.389   .     A
C941   H1154   1.071   1_455 S
C942   C951    1.406   .     A
C942   C944    1.395   .     A
C942   H1077   1.083   .     S
C943   H997    1.068   .     S
C944   H996    1.083   .     S
C945   H995    1.084   .     S
C945   C947    1.410   .     A
C946   H993    1.070   .     S
C946   C949    1.397   .     A
C947   C950    1.395   .     A
C947   C952    1.397   .     A
C948   O1009   1.297   .     A
C948   O1007   1.300   .     A
C948   C967    1.435   .     S
C949   C951    1.423   .     A
C949   C953    1.433   .     A
C950   C262    1.395   1_556 S
C952   C963    1.398   .     A
C952   C251    1.414   1_556 S
C953   C959    1.433   .     A
C954   H973    1.110   .     S
C954   O1014   1.416   .     S
C954   H974    1.117   .     S
C954   C1111   1.523   1_455 S
C955   H975    1.111   .     S
C955   H977    1.111   .     S
C955   C1032   1.523   .     S
C956   H979    1.114   .     S
C956   O1004   1.435   .     S
C956   H978    1.107   .     S
C956   C957    1.521   .     S
C957   H980    1.107   .     S
C957   H983    1.109   .     S
C958   O1005   1.410   .     S
C958   C960    1.506   .     S
C959   C964    1.407   .     A
C959   O1014   1.382   .     S
C960   H988    1.091   .     S
C960   H986    1.105   .     S
C960   H1065   1.111   .     S
C961   H989    1.115   .     S
C961   C962    1.521   .     S
C961   O1006   1.412   .     S
C961   H1224   1.114   .     S
C962   H991    1.111   .     S
C962   H994    1.110   .     S
C962   H992    1.110   .     S
C963   C965    1.391   .     A
C963   O1004   1.397   .     S
C964   H971    1.084   .     S
C965   H982    1.077   .     S
C965   C249    1.397   1_556 S
C966   C1201   1.346   .     S
C966   O1239   1.398   .     S
C968   O1010   1.316   .     A
C968   O1012   1.305   .     A
Cu969  N1002   2.045   .     S
Cu969  Cu970   2.722   .     S
Cu969  O1009   1.961   .     S
Cu969  O1003   1.971   .     S
Cu969  O1013   1.934   .     S
Cu969  O1010   1.946   .     S
Cu970  O1011   1.946   .     S
Cu970  N1001   2.045   .     S
Cu970  O1008   1.961   .     S
Cu970  O1007   1.971   .     S
Cu970  O1012   1.934   .     S
H972   N1080   1.029   .     S
H976   C1189   1.110   .     S
H981   C1191   1.111   .     S
H984   C1192   1.116   .     S
H985   C1192   1.112   .     S
H987   C1116   1.111   1_455 S
H998   C1019   1.071   .     S
H999   C1098   1.083   1_455 S
H1000  N1157   1.029   1_455 S
N1001  H1078   1.029   .     S
N1001  N1080   1.304   .     S
N1002  H1128   1.029   1_455 S
N1002  N1157   1.304   1_455 S
O1006  C1201   1.388   .     S
C1015  O1086   1.298   .     A
C1015  C1044   1.449   .     S
C1015  O1081   1.304   .     A
C1016  C1018   1.471   .     S
C1016  O1091   1.302   .     A
C1016  O1089   1.317   .     A
C1017  C1021   1.398   .     A
C1017  C1023   1.400   .     A
C1017  C1046   1.477   .     S
C1018  C1022   1.398   .     A
C1018  C1024   1.404   .     A
C1019  C1021   1.396   .     A
C1019  C1028   1.389   .     A
C1020  C1029   1.406   .     A
C1020  C1022   1.395   .     A
C1020  H1155   1.083   .     S
C1021  H1075   1.068   .     S
C1022  H1074   1.083   .     S
C1023  H1073   1.084   .     S
C1023  C1025   1.410   .     A
C1024  H1071   1.070   .     S
C1024  C1027   1.397   .     A
C1025  C1028   1.395   .     A
C1025  C1030   1.397   .     A
C1026  O1087   1.297   .     A
C1026  O1085   1.300   .     A
C1026  C1045   1.435   .     S
C1027  C1029   1.423   .     A
C1027  C1031   1.433   .     A
C1028  C340    1.395   1_556 S
C1030  C1041   1.398   .     A
C1030  C329    1.414   1_556 S
C1031  C1037   1.433   .     A
C1032  H1051   1.110   .     S
C1032  O1092   1.416   .     S
C1032  H1052   1.117   .     S
C1033  H1053   1.111   .     S
C1033  H1055   1.111   .     S
C1033  C1110   1.523   .     S
C1034  H1057   1.114   .     S
C1034  O1082   1.435   .     S
C1034  H1056   1.107   .     S
C1034  C1035   1.521   .     S
C1035  H1058   1.107   .     S
C1035  H1061   1.109   .     S
C1036  O1083   1.410   .     S
C1036  C1038   1.506   .     S
C1037  C1042   1.407   .     A
C1037  O1092   1.382   .     S
C1038  H1066   1.091   .     S
C1038  H1064   1.105   .     S
C1038  H1143   1.111   .     S
C1039  H1067   1.115   .     S
C1039  C1040   1.521   .     S
C1039  O1084   1.412   .     S
C1039  H1302   1.114   .     S
C1040  H1069   1.111   .     S
C1040  H1072   1.110   .     S
C1040  H1070   1.110   .     S
C1041  C1043   1.391   .     A
C1041  O1082   1.397   .     S
C1042  H1049   1.084   .     S
C1043  H1060   1.077   .     S
C1043  C327    1.397   1_556 S
C1044  C1279   1.346   .     S
C1044  O1317   1.398   .     S
C1046  O1088   1.316   .     A
C1046  O1090   1.305   .     A
Cu1047 N1080   2.045   .     S
Cu1047 Cu1048  2.722   .     S
Cu1047 O1087   1.961   .     S
Cu1047 O1081   1.971   .     S
Cu1047 O1091   1.934   .     S
Cu1047 O1088   1.946   .     S
Cu1048 O1089   1.946   .     S
Cu1048 N1079   2.045   .     S
Cu1048 O1086   1.961   .     S
Cu1048 O1085   1.971   .     S
Cu1048 O1090   1.934   .     S
H1050  N1158   1.029   .     S
H1054  C1267   1.110   .     S
H1059  C1269   1.111   .     S
H1062  C1270   1.116   .     S
H1063  C1270   1.112   .     S
H1076  C1097   1.071   .     S
N1079  H1156   1.029   .     S
N1079  N1158   1.304   .     S
O1084  C1279   1.388   .     S
C1093  O1164   1.298   .     A
C1093  C1122   1.449   .     S
C1093  O1159   1.304   .     A
C1094  C1096   1.471   .     S
C1094  O1169   1.302   .     A
C1094  O1167   1.317   .     A
C1095  C1099   1.398   .     A
C1095  C1101   1.400   .     A
C1095  C1124   1.477   .     S
C1096  C1100   1.398   .     A
C1096  C1102   1.404   .     A
C1097  C1099   1.396   .     A
C1097  C1106   1.389   .     A
C1098  C1107   1.406   .     A
C1098  C1100   1.395   .     A
C1098  H999    1.083   1_655 S
C1099  H1153   1.068   .     S
C1100  H1152   1.083   .     S
C1101  H1151   1.084   .     S
C1101  C1103   1.410   .     A
C1102  H1149   1.070   .     S
C1102  C1105   1.397   .     A
C1103  C1106   1.395   .     A
C1103  C1108   1.397   .     A
C1104  O1165   1.297   .     A
C1104  O1163   1.300   .     A
C1104  C1123   1.435   .     S
C1105  C1107   1.423   .     A
C1105  C1109   1.433   .     A
C1106  C418    1.395   1_556 S
C1108  C1119   1.398   .     A
C1108  C407    1.414   1_556 S
C1109  C1115   1.433   .     A
C1110  H1129   1.110   .     S
C1110  O1170   1.416   .     S
C1110  H1130   1.117   .     S
C1111  H1131   1.111   .     S
C1111  H1133   1.111   .     S
C1111  C954    1.523   1_655 S
C1112  H1135   1.114   .     S
C1112  O1160   1.435   .     S
C1112  H1134   1.107   .     S
C1112  C1113   1.521   .     S
C1113  H1136   1.107   .     S
C1113  H1139   1.109   .     S
C1114  O1161   1.410   .     S
C1114  C1116   1.506   .     S
C1115  C1120   1.407   .     A
C1115  O1170   1.382   .     S
C1116  H1144   1.091   .     S
C1116  H1142   1.105   .     S
C1116  H987    1.111   1_655 S
C1117  H1145   1.115   .     S
C1117  C1118   1.521   .     S
C1117  O1162   1.412   .     S
C1117  H1380   1.114   .     S
C1118  H1147   1.111   .     S
C1118  H1150   1.110   .     S
C1118  H1148   1.110   .     S
C1119  C1121   1.391   .     A
C1119  O1160   1.397   .     S
C1120  H1127   1.084   .     S
C1121  H1138   1.077   .     S
C1121  C405    1.397   1_556 S
C1122  C1357   1.346   .     S
C1122  O1395   1.398   .     S
C1124  O1166   1.316   .     A
C1124  O1168   1.305   .     A
Cu1125 N1158   2.045   .     S
Cu1125 Cu1126  2.722   .     S
Cu1125 O1165   1.961   .     S
Cu1125 O1159   1.971   .     S
Cu1125 O1169   1.934   .     S
Cu1125 O1166   1.946   .     S
Cu1126 O1167   1.946   .     S
Cu1126 N1157   2.045   .     S
Cu1126 O1164   1.961   .     S
Cu1126 O1163   1.971   .     S
Cu1126 O1168   1.934   .     S
H1128  N1002   1.029   1_655 S
H1132  C1345   1.110   .     S
H1137  C1347   1.111   .     S
H1140  C1348   1.116   .     S
H1141  C1348   1.112   .     S
H1154  C941    1.071   1_655 S
N1157  H1000   1.029   1_655 S
N1157  N1002   1.304   1_655 S
O1162  C1357   1.388   .     S
C1171  O1242   1.298   .     A
C1171  C1200   1.449   .     S
C1171  O1237   1.304   .     A
C1172  C1174   1.471   .     S
C1172  O1247   1.302   .     A
C1172  O1245   1.317   .     A
C1173  C1177   1.398   .     A
C1173  C1179   1.400   .     A
C1173  C1202   1.477   .     S
C1174  C1178   1.398   .     A
C1174  C1180   1.404   .     A
C1175  C1177   1.396   .     A
C1175  C1184   1.389   .     A
C1175  H1388   1.071   1_455 S
C1176  C1185   1.406   .     A
C1176  C1178   1.395   .     A
C1176  H1311   1.083   .     S
C1177  H1231   1.068   .     S
C1178  H1230   1.083   .     S
C1179  H1229   1.084   .     S
C1179  C1181   1.410   .     A
C1180  H1227   1.070   .     S
C1180  C1183   1.397   .     A
C1181  C1184   1.395   .     A
C1181  C1186   1.397   .     A
C1182  O1243   1.297   .     A
C1182  O1241   1.300   .     A
C1182  C1201   1.435   .     S
C1183  C1185   1.423   .     A
C1183  C1187   1.433   .     A
C1184  C496    1.395   1_556 S
C1186  C1197   1.398   .     A
C1186  C485    1.414   1_556 S
C1187  C1193   1.433   .     A
C1188  H1207   1.110   .     S
C1188  O1248   1.416   .     S
C1188  H1208   1.117   .     S
C1188  C1345   1.523   1_455 S
C1189  H1209   1.111   .     S
C1189  H1211   1.111   .     S
C1189  C1266   1.523   .     S
C1190  H1213   1.114   .     S
C1190  O1238   1.435   .     S
C1190  H1212   1.107   .     S
C1190  C1191   1.521   .     S
C1191  H1214   1.107   .     S
C1191  H1217   1.109   .     S
C1192  O1239   1.410   .     S
C1192  C1194   1.506   .     S
C1193  C1198   1.407   .     A
C1193  O1248   1.382   .     S
C1194  H1222   1.091   .     S
C1194  H1220   1.105   .     S
C1194  H1299   1.111   .     S
C1195  H1223   1.115   .     S
C1195  C1196   1.521   .     S
C1195  O1240   1.412   .     S
C1195  H756    1.114   1_565 S
C1196  H1225   1.111   .     S
C1196  H1228   1.110   .     S
C1196  H1226   1.110   .     S
C1197  C1199   1.391   .     A
C1197  O1238   1.397   .     S
C1198  H1205   1.084   .     S
C1199  H1216   1.077   .     S
C1199  C483    1.397   1_556 S
C1200  C733    1.346   1_565 S
C1200  O771    1.398   1_565 S
C1202  O1244   1.316   .     A
C1202  O1246   1.305   .     A
Cu1203 N1236   2.045   .     S
Cu1203 Cu1204  2.722   .     S
Cu1203 O1243   1.961   .     S
Cu1203 O1237   1.971   .     S
Cu1203 O1247   1.934   .     S
Cu1203 O1244   1.946   .     S
Cu1204 O1245   1.946   .     S
Cu1204 N1235   2.045   .     S
Cu1204 O1242   1.961   .     S
Cu1204 O1241   1.971   .     S
Cu1204 O1246   1.934   .     S
H1206  N1314   1.029   .     S
H1210  C721    1.110   1_565 S
H1215  C723    1.111   1_565 S
H1218  C724    1.116   1_565 S
H1219  C724    1.112   1_565 S
H1221  C1350   1.111   1_455 S
H1232  C1253   1.071   .     S
H1233  C1332   1.083   1_455 S
H1234  N1391   1.029   1_455 S
N1235  H1312   1.029   .     S
N1235  N1314   1.304   .     S
N1236  H1362   1.029   1_455 S
N1236  N1391   1.304   1_455 S
O1240  C733    1.388   1_565 S
C1249  O1320   1.298   .     A
C1249  C1278   1.449   .     S
C1249  O1315   1.304   .     A
C1250  C1252   1.471   .     S
C1250  O1325   1.302   .     A
C1250  O1323   1.317   .     A
C1251  C1255   1.398   .     A
C1251  C1257   1.400   .     A
C1251  C1280   1.477   .     S
C1252  C1256   1.398   .     A
C1252  C1258   1.404   .     A
C1253  C1255   1.396   .     A
C1253  C1262   1.389   .     A
C1254  C1263   1.406   .     A
C1254  C1256   1.395   .     A
C1254  H1389   1.083   .     S
C1255  H1309   1.068   .     S
C1256  H1308   1.083   .     S
C1257  H1307   1.084   .     S
C1257  C1259   1.410   .     A
C1258  H1305   1.070   .     S
C1258  C1261   1.397   .     A
C1259  C1262   1.395   .     A
C1259  C1264   1.397   .     A
C1260  O1321   1.297   .     A
C1260  O1319   1.300   .     A
C1260  C1279   1.435   .     S
C1261  C1263   1.423   .     A
C1261  C1265   1.433   .     A
C1262  C574    1.395   1_556 S
C1264  C1275   1.398   .     A
C1264  C563    1.414   1_556 S
C1265  C1271   1.433   .     A
C1266  H1285   1.110   .     S
C1266  O1326   1.416   .     S
C1266  H1286   1.117   .     S
C1267  H1287   1.111   .     S
C1267  H1289   1.111   .     S
C1267  C1344   1.523   .     S
C1268  H1291   1.114   .     S
C1268  O1316   1.435   .     S
C1268  H1290   1.107   .     S
C1268  C1269   1.521   .     S
C1269  H1292   1.107   .     S
C1269  H1295   1.109   .     S
C1270  O1317   1.410   .     S
C1270  C1272   1.506   .     S
C1271  C1276   1.407   .     A
C1271  O1326   1.382   .     S
C1272  H1300   1.091   .     S
C1272  H1298   1.105   .     S
C1272  H1377   1.111   .     S
C1273  H1301   1.115   .     S
C1273  C1274   1.521   .     S
C1273  O1318   1.412   .     S
C1273  H834    1.114   1_565 S
C1274  H1303   1.111   .     S
C1274  H1306   1.110   .     S
C1274  H1304   1.110   .     S
C1275  C1277   1.391   .     A
C1275  O1316   1.397   .     S
C1276  H1283   1.084   .     S
C1277  H1294   1.077   .     S
C1277  C561    1.397   1_556 S
C1278  C811    1.346   1_565 S
C1278  O849    1.398   1_565 S
C1280  O1322   1.316   .     A
C1280  O1324   1.305   .     A
Cu1281 N1314   2.045   .     S
Cu1281 Cu1282  2.722   .     S
Cu1281 O1321   1.961   .     S
Cu1281 O1315   1.971   .     S
Cu1281 O1325   1.934   .     S
Cu1281 O1322   1.946   .     S
Cu1282 O1323   1.946   .     S
Cu1282 N1313   2.045   .     S
Cu1282 O1320   1.961   .     S
Cu1282 O1319   1.971   .     S
Cu1282 O1324   1.934   .     S
H1284  N1392   1.029   .     S
H1288  C799    1.110   1_565 S
H1293  C801    1.111   1_565 S
H1296  C802    1.116   1_565 S
H1297  C802    1.112   1_565 S
H1310  C1331   1.071   .     S
N1313  H1390   1.029   .     S
N1313  N1392   1.304   .     S
O1318  C811    1.388   1_565 S
C1327  O1398   1.298   .     A
C1327  C1356   1.449   .     S
C1327  O1393   1.304   .     A
C1328  C1330   1.471   .     S
C1328  O1403   1.302   .     A
C1328  O1401   1.317   .     A
C1329  C1333   1.398   .     A
C1329  C1335   1.400   .     A
C1329  C1358   1.477   .     S
C1330  C1334   1.398   .     A
C1330  C1336   1.404   .     A
C1331  C1333   1.396   .     A
C1331  C1340   1.389   .     A
C1332  C1341   1.406   .     A
C1332  C1334   1.395   .     A
C1332  H1233   1.083   1_655 S
C1333  H1387   1.068   .     S
C1334  H1386   1.083   .     S
C1335  H1385   1.084   .     S
C1335  C1337   1.410   .     A
C1336  H1383   1.070   .     S
C1336  C1339   1.397   .     A
C1337  C1340   1.395   .     A
C1337  C1342   1.397   .     A
C1338  O1399   1.297   .     A
C1338  O1397   1.300   .     A
C1338  C1357   1.435   .     S
C1339  C1341   1.423   .     A
C1339  C1343   1.433   .     A
C1340  C652    1.395   1_556 S
C1342  C1353   1.398   .     A
C1342  C641    1.414   1_556 S
C1343  C1349   1.433   .     A
C1344  H1363   1.110   .     S
C1344  O1404   1.416   .     S
C1344  H1364   1.117   .     S
C1345  H1365   1.111   .     S
C1345  H1367   1.111   .     S
C1345  C1188   1.523   1_655 S
C1346  H1369   1.114   .     S
C1346  O1394   1.435   .     S
C1346  H1368   1.107   .     S
C1346  C1347   1.521   .     S
C1347  H1370   1.107   .     S
C1347  H1373   1.109   .     S
C1348  O1395   1.410   .     S
C1348  C1350   1.506   .     S
C1349  C1354   1.407   .     A
C1349  O1404   1.382   .     S
C1350  H1378   1.091   .     S
C1350  H1376   1.105   .     S
C1350  H1221   1.111   1_655 S
C1351  H1379   1.115   .     S
C1351  C1352   1.521   .     S
C1351  O1396   1.412   .     S
C1351  H912    1.114   1_565 S
C1352  H1381   1.111   .     S
C1352  H1384   1.110   .     S
C1352  H1382   1.110   .     S
C1353  C1355   1.391   .     A
C1353  O1394   1.397   .     S
C1354  H1361   1.084   .     S
C1355  H1372   1.077   .     S
C1355  C639    1.397   1_556 S
C1356  C889    1.346   1_565 S
C1356  O927    1.398   1_565 S
C1358  O1400   1.316   .     A
C1358  O1402   1.305   .     A
Cu1359 N1392   2.045   .     S
Cu1359 Cu1360  2.722   .     S
Cu1359 O1399   1.961   .     S
Cu1359 O1393   1.971   .     S
Cu1359 O1403   1.934   .     S
Cu1359 O1400   1.946   .     S
Cu1360 O1401   1.946   .     S
Cu1360 N1391   2.045   .     S
Cu1360 O1398   1.961   .     S
Cu1360 O1397   1.971   .     S
Cu1360 O1402   1.934   .     S
H1362  N1236   1.029   1_655 S
H1366  C877    1.110   1_565 S
H1371  C879    1.111   1_565 S
H1374  C880    1.116   1_565 S
H1375  C880    1.112   1_565 S
H1388  C1175   1.071   1_655 S
N1391  H1234   1.029   1_655 S
N1391  N1236   1.304   1_655 S
O1396  C889    1.388   1_565 S
