data_str_m2_o2_o10_pcu_sym.90
_audit_creation_date              2020-01-03
_audit_creation_method            'Materials Studio'
_symmetry_space_group_name_H-M    'P1'
_symmetry_Int_Tables_number       1
_symmetry_cell_setting            triclinic
loop_
_symmetry_equiv_pos_as_xyz
  x,y,z
_cell_length_a                    26.1257
_cell_length_b                    30.1882
_cell_length_c                    27.9310
_cell_angle_alpha                 92.0474
_cell_angle_beta                  98.8122
_cell_angle_gamma                 91.7025
loop_
_atom_site_label
_atom_site_type_symbol
_atom_site_fract_x
_atom_site_fract_y
_atom_site_fract_z
_atom_site_U_iso_or_equiv
_atom_site_adp_type
_atom_site_occupancy
C1     C     0.16793   0.16497   0.24956   0.00000  Uiso   1.00
C2     C     0.19319   0.28086   0.45311   0.00000  Uiso   1.00
C3     C     0.17237   0.24516   0.02790   0.00000  Uiso   1.00
C4     C     0.17213   0.24470   0.47347   0.00000  Uiso   1.00
C5     C     0.06788   0.25007   0.23742   0.00000  Uiso   1.00
C6     C     0.26546   0.25006   0.26260   0.00000  Uiso   1.00
C7     C     0.01235   0.25037   0.23072   0.00000  Uiso   1.00
C8     C     0.32099   0.25016   0.26939   0.00000  Uiso   1.00
C9     C     0.21331   0.05150   0.28808   0.00000  Uiso   1.00
C10    C     0.21691   0.45183   0.23632   0.00000  Uiso   1.00
C11    C     0.21217   0.09813   0.28397   0.00000  Uiso   1.00
C12    C     0.16754   0.33487   0.25092   0.00000  Uiso   1.00
C13    C     0.21528   0.40500   0.23754   0.00000  Uiso   1.00
C14    C     0.17325   0.11655   0.24978   0.00000  Uiso   1.00
C15    C     0.17237   0.38318   0.25351   0.00000  Uiso   1.00
C16    C     0.13810   0.08843   0.21821   0.00000  Uiso   1.00
C17    C     0.13344   0.40769   0.27097   0.00000  Uiso   1.00
C18    C     0.14157   0.04275   0.22107   0.00000  Uiso   1.00
C19    C     0.13759   0.45376   0.27256   0.00000  Uiso   1.00
C20    C     0.17825   0.02427   0.25539   0.00000  Uiso   1.00
C21    C     0.17851   0.47571   0.25550   0.00000  Uiso   1.00
C22    C     0.25007   0.03135   0.32819   0.00000  Uiso   1.00
C23    C     0.21108   0.26772   0.06183   0.00000  Uiso   1.00
C24    C     0.25822   0.47689   0.21428   0.00000  Uiso   1.00
C25    C     0.25222   0.12852   0.31538   0.00000  Uiso   1.00
C26    C     0.26003   0.37901   0.22361   0.00000  Uiso   1.00
C27    C     0.09654   0.10606   0.18126   0.00000  Uiso   1.00
C28    C     0.08647   0.38537   0.28651   0.00000  Uiso   1.00
C29    C     0.08348   0.20140   0.11063   0.00000  Uiso   1.00
C30    C     0.03337   0.22666   0.09995   0.00000  Uiso   1.00
C31    C     0.21282   0.32785   0.38763   0.00000  Uiso   1.00
C32    C     0.26481   0.32422   0.36910   0.00000  Uiso   1.00
C33    C     0.14785   0.21077   0.44092   0.00000  Uiso   1.00
C34    C     0.20722   0.27010   0.11186   0.00000  Uiso   1.00
C35    C     0.14554   0.21407   0.39017   0.00000  Uiso   1.00
C36    C     0.12882   0.22709   0.09647   0.00000  Uiso   1.00
C37    C     0.19047   0.28401   0.40250   0.00000  Uiso   1.00
C38    C     0.13127   0.22537   0.04640   0.00000  Uiso   1.00
Cu39   Cu    0.16667   0.25000   0.29821   0.00000  Uiso   1.00
Cu40   Cu    0.16667   0.25001   0.20178   0.00000  Uiso   1.00
H41    H     0.32504   0.25075   0.19390   0.00000  Uiso   1.00
H42    H     0.21051   0.30801   0.47707   0.00000  Uiso   1.00
H43    H     0.24573   0.04736   0.36369   0.00000  Uiso   1.00
H44    H     0.24263   0.49531   0.33129   0.00000  Uiso   1.00
H45    H     0.29068   0.03613   0.32168   0.00000  Uiso   1.00
H46    H     0.23980   0.00094   0.18839   0.00000  Uiso   1.00
H47    H     0.28537   0.49514   0.24319   0.00000  Uiso   1.00
H48    H     0.28120   0.45535   0.19346   0.00000  Uiso   1.00
H49    H     0.23473   0.14439   0.34517   0.00000  Uiso   1.00
H50    H     0.28697   0.11125   0.33179   0.00000  Uiso   1.00
H51    H     0.26667   0.15449   0.29313   0.00000  Uiso   1.00
H52    H     0.00823   0.24992   0.30628   0.00000  Uiso   1.00
H53    H     0.25975   0.34418   0.23466   0.00000  Uiso   1.00
H54    H     0.25915   0.37898   0.18375   0.00000  Uiso   1.00
H55    H     0.29738   0.39414   0.24227   0.00000  Uiso   1.00
H56    H     0.11516   0.12019   0.15191   0.00000  Uiso   1.00
H57    H     0.06835   0.07954   0.16455   0.00000  Uiso   1.00
H58    H     0.07448   0.13142   0.19843   0.00000  Uiso   1.00
H59    H     0.06615   0.36321   0.25651   0.00000  Uiso   1.00
H60    H     0.09830   0.36561   0.31883   0.00000  Uiso   1.00
H61    H     0.05841   0.40985   0.29613   0.00000  Uiso   1.00
H62    H     0.03824   0.26062   0.11698   0.00000  Uiso   1.00
H63    H     0.11514   0.02099   0.19642   0.00000  Uiso   1.00
H64    H     0.02187   0.22935   0.06023   0.00000  Uiso   1.00
H65    H     0.00172   0.20856   0.11428   0.00000  Uiso   1.00
H66    H     0.07786   0.16925   0.08943   0.00000  Uiso   1.00
H67    H     0.09063   0.19173   0.14827   0.00000  Uiso   1.00
H68    H     0.28367   0.29277   0.37961   0.00000  Uiso   1.00
H69    H     0.25988   0.32732   0.32932   0.00000  Uiso   1.00
H70    H     0.29168   0.35201   0.38492   0.00000  Uiso   1.00
H71    H     0.18393   0.34652   0.36439   0.00000  Uiso   1.00
H72    H     0.22077   0.35151   0.41955   0.00000  Uiso   1.00
H73    H     0.10806   0.47300   0.28614   0.00000  Uiso   1.00
H74    H     0.24460   0.28334   0.05014   0.00000  Uiso   1.00
H75    H     0.13088   0.18149   0.45434   0.00000  Uiso   1.00
H76    H     0.23749   0.28769   0.13672   0.00000  Uiso   1.00
H77    H     0.12663   0.18737   0.36654   0.00000  Uiso   1.00
H78    H     0.10013   0.20853   0.02175   0.00000  Uiso   1.00
N79    N     0.16667   0.25001   0.12934   0.00000  Uiso   1.00
N80    N     0.16667   0.24999   0.37065   0.00000  Uiso   1.00
O81    O     0.16667   0.18573   0.29071   0.00000  Uiso   1.00
O82    O     0.16666   0.31428   0.20928   0.00000  Uiso   1.00
O83    O     0.16667   0.18573   0.20928   0.00000  Uiso   1.00
O84    O     0.16666   0.31427   0.29072   0.00000  Uiso   1.00
O85    O     0.09161   0.25000   0.28132   0.00000  Uiso   1.00
O86    O     0.24172   0.25001   0.21868   0.00000  Uiso   1.00
O87    O     0.09161   0.25000   0.19988   0.00000  Uiso   1.00
O88    O     0.24172   0.25000   0.30011   0.00000  Uiso   1.00
C89    C     0.50126   0.16497   0.24956   0.00000  Uiso   1.00
C90    C     0.52653   0.28086   0.45311   0.00000  Uiso   1.00
C91    C     0.50571   0.24516   0.02790   0.00000  Uiso   1.00
C92    C     0.50546   0.24470   0.47347   0.00000  Uiso   1.00
C93    C     0.40121   0.25007   0.23742   0.00000  Uiso   1.00
C94    C     0.59879   0.25006   0.26260   0.00000  Uiso   1.00
C95    C     0.34568   0.25037   0.23072   0.00000  Uiso   1.00
C96    C     0.65433   0.25016   0.26939   0.00000  Uiso   1.00
C97    C     0.54665   0.05150   0.28808   0.00000  Uiso   1.00
C98    C     0.55024   0.45183   0.23632   0.00000  Uiso   1.00
C99    C     0.54550   0.09813   0.28397   0.00000  Uiso   1.00
C100   C     0.50088   0.33487   0.25092   0.00000  Uiso   1.00
C101   C     0.54861   0.40500   0.23754   0.00000  Uiso   1.00
C102   C     0.50658   0.11655   0.24978   0.00000  Uiso   1.00
C103   C     0.50570   0.38318   0.25351   0.00000  Uiso   1.00
C104   C     0.47144   0.08843   0.21821   0.00000  Uiso   1.00
C105   C     0.46677   0.40769   0.27097   0.00000  Uiso   1.00
C106   C     0.47490   0.04275   0.22107   0.00000  Uiso   1.00
C107   C     0.47093   0.45376   0.27256   0.00000  Uiso   1.00
C108   C     0.51158   0.02427   0.25539   0.00000  Uiso   1.00
C109   C     0.51185   0.47571   0.25550   0.00000  Uiso   1.00
C110   C     0.58341   0.03135   0.32819   0.00000  Uiso   1.00
C111   C     0.54442   0.26772   0.06183   0.00000  Uiso   1.00
C112   C     0.59156   0.47689   0.21428   0.00000  Uiso   1.00
C113   C     0.58555   0.12852   0.31538   0.00000  Uiso   1.00
C114   C     0.59337   0.37901   0.22361   0.00000  Uiso   1.00
C115   C     0.42988   0.10606   0.18126   0.00000  Uiso   1.00
C116   C     0.41980   0.38537   0.28651   0.00000  Uiso   1.00
C117   C     0.41681   0.20140   0.11063   0.00000  Uiso   1.00
C118   C     0.36671   0.22666   0.09995   0.00000  Uiso   1.00
C119   C     0.54615   0.32785   0.38763   0.00000  Uiso   1.00
C120   C     0.59814   0.32422   0.36910   0.00000  Uiso   1.00
C121   C     0.48118   0.21077   0.44092   0.00000  Uiso   1.00
C122   C     0.54056   0.27010   0.11186   0.00000  Uiso   1.00
C123   C     0.47887   0.21407   0.39017   0.00000  Uiso   1.00
C124   C     0.46216   0.22709   0.09647   0.00000  Uiso   1.00
C125   C     0.52380   0.28401   0.40250   0.00000  Uiso   1.00
C126   C     0.46460   0.22537   0.04640   0.00000  Uiso   1.00
Cu127  Cu    0.50000   0.25000   0.29821   0.00000  Uiso   1.00
Cu128  Cu    0.50000   0.25001   0.20178   0.00000  Uiso   1.00
H129   H     0.65837   0.25075   0.19390   0.00000  Uiso   1.00
H130   H     0.54384   0.30801   0.47707   0.00000  Uiso   1.00
H131   H     0.57906   0.04736   0.36369   0.00000  Uiso   1.00
H132   H     0.57597   0.49531   0.33129   0.00000  Uiso   1.00
H133   H     0.62402   0.03613   0.32168   0.00000  Uiso   1.00
H134   H     0.57314   0.00094   0.18839   0.00000  Uiso   1.00
H135   H     0.61870   0.49514   0.24319   0.00000  Uiso   1.00
H136   H     0.61453   0.45535   0.19346   0.00000  Uiso   1.00
H137   H     0.56806   0.14439   0.34517   0.00000  Uiso   1.00
H138   H     0.62031   0.11125   0.33179   0.00000  Uiso   1.00
H139   H     0.60001   0.15449   0.29313   0.00000  Uiso   1.00
H140   H     0.34156   0.24992   0.30628   0.00000  Uiso   1.00
H141   H     0.59309   0.34418   0.23466   0.00000  Uiso   1.00
H142   H     0.59249   0.37898   0.18375   0.00000  Uiso   1.00
H143   H     0.63071   0.39414   0.24227   0.00000  Uiso   1.00
H144   H     0.44849   0.12019   0.15191   0.00000  Uiso   1.00
H145   H     0.40168   0.07954   0.16455   0.00000  Uiso   1.00
H146   H     0.40782   0.13142   0.19843   0.00000  Uiso   1.00
H147   H     0.39948   0.36321   0.25651   0.00000  Uiso   1.00
H148   H     0.43164   0.36561   0.31883   0.00000  Uiso   1.00
H149   H     0.39174   0.40985   0.29613   0.00000  Uiso   1.00
H150   H     0.37158   0.26062   0.11698   0.00000  Uiso   1.00
H151   H     0.44847   0.02099   0.19642   0.00000  Uiso   1.00
H152   H     0.35521   0.22935   0.06023   0.00000  Uiso   1.00
H153   H     0.33505   0.20856   0.11428   0.00000  Uiso   1.00
H154   H     0.41119   0.16925   0.08943   0.00000  Uiso   1.00
H155   H     0.42397   0.19173   0.14827   0.00000  Uiso   1.00
H156   H     0.61700   0.29277   0.37961   0.00000  Uiso   1.00
H157   H     0.59321   0.32732   0.32932   0.00000  Uiso   1.00
H158   H     0.62501   0.35201   0.38492   0.00000  Uiso   1.00
H159   H     0.51727   0.34652   0.36439   0.00000  Uiso   1.00
H160   H     0.55410   0.35151   0.41955   0.00000  Uiso   1.00
H161   H     0.44140   0.47300   0.28614   0.00000  Uiso   1.00
H162   H     0.57794   0.28334   0.05014   0.00000  Uiso   1.00
H163   H     0.46421   0.18149   0.45434   0.00000  Uiso   1.00
H164   H     0.57082   0.28769   0.13672   0.00000  Uiso   1.00
H165   H     0.45996   0.18737   0.36654   0.00000  Uiso   1.00
H166   H     0.43346   0.20853   0.02175   0.00000  Uiso   1.00
N167   N     0.50000   0.25001   0.12934   0.00000  Uiso   1.00
N168   N     0.50000   0.24999   0.37065   0.00000  Uiso   1.00
O169   O     0.50000   0.18573   0.29071   0.00000  Uiso   1.00
O170   O     0.50000   0.31428   0.20928   0.00000  Uiso   1.00
O171   O     0.50000   0.18573   0.20928   0.00000  Uiso   1.00
O172   O     0.50000   0.31427   0.29072   0.00000  Uiso   1.00
O173   O     0.42495   0.25000   0.28132   0.00000  Uiso   1.00
O174   O     0.57505   0.25001   0.21868   0.00000  Uiso   1.00
O175   O     0.42495   0.25000   0.19988   0.00000  Uiso   1.00
O176   O     0.57505   0.25000   0.30011   0.00000  Uiso   1.00
C177   C     0.83459   0.16497   0.24956   0.00000  Uiso   1.00
C178   C     0.85986   0.28086   0.45311   0.00000  Uiso   1.00
C179   C     0.83904   0.24516   0.02790   0.00000  Uiso   1.00
C180   C     0.83879   0.24470   0.47347   0.00000  Uiso   1.00
C181   C     0.73454   0.25007   0.23742   0.00000  Uiso   1.00
C182   C     0.93212   0.25006   0.26260   0.00000  Uiso   1.00
C183   C     0.67902   0.25037   0.23072   0.00000  Uiso   1.00
C184   C     0.98766   0.25016   0.26939   0.00000  Uiso   1.00
C185   C     0.87998   0.05150   0.28808   0.00000  Uiso   1.00
C186   C     0.88357   0.45183   0.23632   0.00000  Uiso   1.00
C187   C     0.87884   0.09813   0.28397   0.00000  Uiso   1.00
C188   C     0.83421   0.33487   0.25092   0.00000  Uiso   1.00
C189   C     0.88195   0.40500   0.23754   0.00000  Uiso   1.00
C190   C     0.83992   0.11655   0.24978   0.00000  Uiso   1.00
C191   C     0.83903   0.38318   0.25351   0.00000  Uiso   1.00
C192   C     0.80477   0.08843   0.21821   0.00000  Uiso   1.00
C193   C     0.80010   0.40769   0.27097   0.00000  Uiso   1.00
C194   C     0.80823   0.04275   0.22107   0.00000  Uiso   1.00
C195   C     0.80426   0.45376   0.27256   0.00000  Uiso   1.00
C196   C     0.84492   0.02427   0.25539   0.00000  Uiso   1.00
C197   C     0.84518   0.47571   0.25550   0.00000  Uiso   1.00
C198   C     0.91674   0.03135   0.32819   0.00000  Uiso   1.00
C199   C     0.87775   0.26772   0.06183   0.00000  Uiso   1.00
C200   C     0.92489   0.47689   0.21428   0.00000  Uiso   1.00
C201   C     0.91889   0.12852   0.31538   0.00000  Uiso   1.00
C202   C     0.92670   0.37901   0.22361   0.00000  Uiso   1.00
C203   C     0.76321   0.10606   0.18126   0.00000  Uiso   1.00
C204   C     0.75313   0.38537   0.28651   0.00000  Uiso   1.00
C205   C     0.75015   0.20140   0.11063   0.00000  Uiso   1.00
C206   C     0.70004   0.22666   0.09995   0.00000  Uiso   1.00
C207   C     0.87948   0.32785   0.38763   0.00000  Uiso   1.00
C208   C     0.93147   0.32422   0.36910   0.00000  Uiso   1.00
C209   C     0.81452   0.21077   0.44092   0.00000  Uiso   1.00
C210   C     0.87389   0.27010   0.11186   0.00000  Uiso   1.00
C211   C     0.81221   0.21407   0.39017   0.00000  Uiso   1.00
C212   C     0.79549   0.22709   0.09647   0.00000  Uiso   1.00
C213   C     0.85713   0.28401   0.40250   0.00000  Uiso   1.00
C214   C     0.79794   0.22537   0.04640   0.00000  Uiso   1.00
Cu215  Cu    0.83333   0.25000   0.29821   0.00000  Uiso   1.00
Cu216  Cu    0.83333   0.25001   0.20178   0.00000  Uiso   1.00
H217   H     0.99171   0.25075   0.19390   0.00000  Uiso   1.00
H218   H     0.87717   0.30801   0.47707   0.00000  Uiso   1.00
H219   H     0.91240   0.04736   0.36369   0.00000  Uiso   1.00
H220   H     0.90930   0.49531   0.33129   0.00000  Uiso   1.00
H221   H     0.95735   0.03613   0.32168   0.00000  Uiso   1.00
H222   H     0.90647   0.00094   0.18839   0.00000  Uiso   1.00
H223   H     0.95204   0.49514   0.24319   0.00000  Uiso   1.00
H224   H     0.94787   0.45535   0.19346   0.00000  Uiso   1.00
H225   H     0.90140   0.14439   0.34517   0.00000  Uiso   1.00
H226   H     0.95364   0.11125   0.33179   0.00000  Uiso   1.00
H227   H     0.93334   0.15449   0.29313   0.00000  Uiso   1.00
H228   H     0.67489   0.24992   0.30628   0.00000  Uiso   1.00
H229   H     0.92642   0.34418   0.23466   0.00000  Uiso   1.00
H230   H     0.92582   0.37898   0.18375   0.00000  Uiso   1.00
H231   H     0.96405   0.39414   0.24227   0.00000  Uiso   1.00
H232   H     0.78183   0.12019   0.15191   0.00000  Uiso   1.00
H233   H     0.73501   0.07954   0.16455   0.00000  Uiso   1.00
H234   H     0.74115   0.13142   0.19843   0.00000  Uiso   1.00
H235   H     0.73282   0.36321   0.25651   0.00000  Uiso   1.00
H236   H     0.76497   0.36561   0.31883   0.00000  Uiso   1.00
H237   H     0.72508   0.40985   0.29613   0.00000  Uiso   1.00
H238   H     0.70491   0.26062   0.11698   0.00000  Uiso   1.00
H239   H     0.78180   0.02099   0.19642   0.00000  Uiso   1.00
H240   H     0.68854   0.22935   0.06023   0.00000  Uiso   1.00
H241   H     0.66838   0.20856   0.11428   0.00000  Uiso   1.00
H242   H     0.74452   0.16925   0.08943   0.00000  Uiso   1.00
H243   H     0.75730   0.19173   0.14827   0.00000  Uiso   1.00
H244   H     0.95034   0.29277   0.37961   0.00000  Uiso   1.00
H245   H     0.92655   0.32732   0.32932   0.00000  Uiso   1.00
H246   H     0.95834   0.35201   0.38492   0.00000  Uiso   1.00
H247   H     0.85060   0.34652   0.36439   0.00000  Uiso   1.00
H248   H     0.88744   0.35151   0.41955   0.00000  Uiso   1.00
H249   H     0.77473   0.47300   0.28614   0.00000  Uiso   1.00
H250   H     0.91127   0.28334   0.05014   0.00000  Uiso   1.00
H251   H     0.79755   0.18149   0.45434   0.00000  Uiso   1.00
H252   H     0.90415   0.28769   0.13672   0.00000  Uiso   1.00
H253   H     0.79330   0.18737   0.36654   0.00000  Uiso   1.00
H254   H     0.76679   0.20853   0.02175   0.00000  Uiso   1.00
N255   N     0.83333   0.25001   0.12934   0.00000  Uiso   1.00
N256   N     0.83333   0.24999   0.37065   0.00000  Uiso   1.00
O257   O     0.83334   0.18573   0.29071   0.00000  Uiso   1.00
O258   O     0.83333   0.31428   0.20928   0.00000  Uiso   1.00
O259   O     0.83334   0.18573   0.20928   0.00000  Uiso   1.00
O260   O     0.83333   0.31427   0.29072   0.00000  Uiso   1.00
O261   O     0.75828   0.25000   0.28132   0.00000  Uiso   1.00
O262   O     0.90839   0.25001   0.21868   0.00000  Uiso   1.00
O263   O     0.75828   0.25000   0.19988   0.00000  Uiso   1.00
O264   O     0.90839   0.25000   0.30011   0.00000  Uiso   1.00
C265   C     0.16793   0.66497   0.24956   0.00000  Uiso   1.00
C266   C     0.19319   0.78086   0.45311   0.00000  Uiso   1.00
C267   C     0.17237   0.74516   0.02790   0.00000  Uiso   1.00
C268   C     0.17213   0.74470   0.47347   0.00000  Uiso   1.00
C269   C     0.06788   0.75007   0.23742   0.00000  Uiso   1.00
C270   C     0.26546   0.75006   0.26260   0.00000  Uiso   1.00
C271   C     0.01235   0.75037   0.23072   0.00000  Uiso   1.00
C272   C     0.32099   0.75016   0.26939   0.00000  Uiso   1.00
C273   C     0.21331   0.55150   0.28808   0.00000  Uiso   1.00
C274   C     0.21691   0.95183   0.23632   0.00000  Uiso   1.00
C275   C     0.21217   0.59813   0.28397   0.00000  Uiso   1.00
C276   C     0.16754   0.83487   0.25092   0.00000  Uiso   1.00
C277   C     0.21528   0.90500   0.23754   0.00000  Uiso   1.00
C278   C     0.17325   0.61655   0.24978   0.00000  Uiso   1.00
C279   C     0.17237   0.88318   0.25351   0.00000  Uiso   1.00
C280   C     0.13810   0.58843   0.21821   0.00000  Uiso   1.00
C281   C     0.13344   0.90769   0.27097   0.00000  Uiso   1.00
C282   C     0.14157   0.54275   0.22107   0.00000  Uiso   1.00
C283   C     0.13759   0.95376   0.27256   0.00000  Uiso   1.00
C284   C     0.17825   0.52427   0.25539   0.00000  Uiso   1.00
C285   C     0.17851   0.97571   0.25550   0.00000  Uiso   1.00
C286   C     0.25007   0.53135   0.32819   0.00000  Uiso   1.00
C287   C     0.21108   0.76772   0.06183   0.00000  Uiso   1.00
C288   C     0.25822   0.97689   0.21428   0.00000  Uiso   1.00
C289   C     0.25222   0.62852   0.31538   0.00000  Uiso   1.00
C290   C     0.26003   0.87901   0.22361   0.00000  Uiso   1.00
C291   C     0.09654   0.60606   0.18126   0.00000  Uiso   1.00
C292   C     0.08647   0.88537   0.28651   0.00000  Uiso   1.00
C293   C     0.08348   0.70140   0.11063   0.00000  Uiso   1.00
C294   C     0.03337   0.72666   0.09995   0.00000  Uiso   1.00
C295   C     0.21282   0.82785   0.38763   0.00000  Uiso   1.00
C296   C     0.26481   0.82422   0.36910   0.00000  Uiso   1.00
C297   C     0.14785   0.71077   0.44092   0.00000  Uiso   1.00
C298   C     0.20722   0.77010   0.11186   0.00000  Uiso   1.00
C299   C     0.14554   0.71407   0.39017   0.00000  Uiso   1.00
C300   C     0.12882   0.72709   0.09647   0.00000  Uiso   1.00
C301   C     0.19047   0.78401   0.40250   0.00000  Uiso   1.00
C302   C     0.13127   0.72537   0.04640   0.00000  Uiso   1.00
Cu303  Cu    0.16667   0.75000   0.29821   0.00000  Uiso   1.00
Cu304  Cu    0.16667   0.75001   0.20178   0.00000  Uiso   1.00
H305   H     0.32504   0.75075   0.19390   0.00000  Uiso   1.00
H306   H     0.21051   0.80801   0.47707   0.00000  Uiso   1.00
H307   H     0.24573   0.54736   0.36369   0.00000  Uiso   1.00
H308   H     0.24263   0.99531   0.33129   0.00000  Uiso   1.00
H309   H     0.29068   0.53613   0.32168   0.00000  Uiso   1.00
H310   H     0.23980   0.50094   0.18839   0.00000  Uiso   1.00
H311   H     0.28537   0.99514   0.24319   0.00000  Uiso   1.00
H312   H     0.28120   0.95535   0.19346   0.00000  Uiso   1.00
H313   H     0.23473   0.64439   0.34517   0.00000  Uiso   1.00
H314   H     0.28697   0.61125   0.33179   0.00000  Uiso   1.00
H315   H     0.26667   0.65449   0.29313   0.00000  Uiso   1.00
H316   H     0.00823   0.74992   0.30628   0.00000  Uiso   1.00
H317   H     0.25975   0.84418   0.23466   0.00000  Uiso   1.00
H318   H     0.25915   0.87898   0.18375   0.00000  Uiso   1.00
H319   H     0.29738   0.89414   0.24227   0.00000  Uiso   1.00
H320   H     0.11516   0.62019   0.15191   0.00000  Uiso   1.00
H321   H     0.06835   0.57954   0.16455   0.00000  Uiso   1.00
H322   H     0.07448   0.63142   0.19843   0.00000  Uiso   1.00
H323   H     0.06615   0.86321   0.25651   0.00000  Uiso   1.00
H324   H     0.09830   0.86561   0.31883   0.00000  Uiso   1.00
H325   H     0.05841   0.90985   0.29613   0.00000  Uiso   1.00
H326   H     0.03824   0.76062   0.11698   0.00000  Uiso   1.00
H327   H     0.11514   0.52099   0.19642   0.00000  Uiso   1.00
H328   H     0.02187   0.72935   0.06023   0.00000  Uiso   1.00
H329   H     0.00172   0.70856   0.11428   0.00000  Uiso   1.00
H330   H     0.07786   0.66925   0.08943   0.00000  Uiso   1.00
H331   H     0.09063   0.69173   0.14827   0.00000  Uiso   1.00
H332   H     0.28367   0.79277   0.37961   0.00000  Uiso   1.00
H333   H     0.25988   0.82732   0.32932   0.00000  Uiso   1.00
H334   H     0.29168   0.85201   0.38492   0.00000  Uiso   1.00
H335   H     0.18393   0.84652   0.36439   0.00000  Uiso   1.00
H336   H     0.22077   0.85151   0.41955   0.00000  Uiso   1.00
H337   H     0.10806   0.97300   0.28614   0.00000  Uiso   1.00
H338   H     0.24460   0.78334   0.05014   0.00000  Uiso   1.00
H339   H     0.13088   0.68149   0.45434   0.00000  Uiso   1.00
H340   H     0.23749   0.78769   0.13672   0.00000  Uiso   1.00
H341   H     0.12663   0.68737   0.36654   0.00000  Uiso   1.00
H342   H     0.10013   0.70853   0.02175   0.00000  Uiso   1.00
N343   N     0.16667   0.75001   0.12934   0.00000  Uiso   1.00
N344   N     0.16667   0.74999   0.37065   0.00000  Uiso   1.00
O345   O     0.16667   0.68573   0.29071   0.00000  Uiso   1.00
O346   O     0.16666   0.81428   0.20928   0.00000  Uiso   1.00
O347   O     0.16667   0.68573   0.20928   0.00000  Uiso   1.00
O348   O     0.16666   0.81427   0.29072   0.00000  Uiso   1.00
O349   O     0.09161   0.75000   0.28132   0.00000  Uiso   1.00
O350   O     0.24172   0.75001   0.21868   0.00000  Uiso   1.00
O351   O     0.09161   0.75000   0.19988   0.00000  Uiso   1.00
O352   O     0.24172   0.75000   0.30011   0.00000  Uiso   1.00
C353   C     0.50126   0.66497   0.24956   0.00000  Uiso   1.00
C354   C     0.52653   0.78086   0.45311   0.00000  Uiso   1.00
C355   C     0.50571   0.74516   0.02790   0.00000  Uiso   1.00
C356   C     0.50546   0.74470   0.47347   0.00000  Uiso   1.00
C357   C     0.40121   0.75007   0.23742   0.00000  Uiso   1.00
C358   C     0.59879   0.75006   0.26260   0.00000  Uiso   1.00
C359   C     0.34568   0.75037   0.23072   0.00000  Uiso   1.00
C360   C     0.65433   0.75016   0.26939   0.00000  Uiso   1.00
C361   C     0.54665   0.55150   0.28808   0.00000  Uiso   1.00
C362   C     0.55024   0.95183   0.23632   0.00000  Uiso   1.00
C363   C     0.54550   0.59813   0.28397   0.00000  Uiso   1.00
C364   C     0.50088   0.83487   0.25092   0.00000  Uiso   1.00
C365   C     0.54861   0.90500   0.23754   0.00000  Uiso   1.00
C366   C     0.50658   0.61655   0.24978   0.00000  Uiso   1.00
C367   C     0.50570   0.88318   0.25351   0.00000  Uiso   1.00
C368   C     0.47144   0.58843   0.21821   0.00000  Uiso   1.00
C369   C     0.46677   0.90769   0.27097   0.00000  Uiso   1.00
C370   C     0.47490   0.54275   0.22107   0.00000  Uiso   1.00
C371   C     0.47093   0.95376   0.27256   0.00000  Uiso   1.00
C372   C     0.51158   0.52427   0.25539   0.00000  Uiso   1.00
C373   C     0.51185   0.97571   0.25550   0.00000  Uiso   1.00
C374   C     0.58341   0.53135   0.32819   0.00000  Uiso   1.00
C375   C     0.54442   0.76772   0.06183   0.00000  Uiso   1.00
C376   C     0.59156   0.97689   0.21428   0.00000  Uiso   1.00
C377   C     0.58555   0.62852   0.31538   0.00000  Uiso   1.00
C378   C     0.59337   0.87901   0.22361   0.00000  Uiso   1.00
C379   C     0.42988   0.60606   0.18126   0.00000  Uiso   1.00
C380   C     0.41980   0.88537   0.28651   0.00000  Uiso   1.00
C381   C     0.41681   0.70140   0.11063   0.00000  Uiso   1.00
C382   C     0.36671   0.72666   0.09995   0.00000  Uiso   1.00
C383   C     0.54615   0.82785   0.38763   0.00000  Uiso   1.00
C384   C     0.59814   0.82422   0.36910   0.00000  Uiso   1.00
C385   C     0.48118   0.71077   0.44092   0.00000  Uiso   1.00
C386   C     0.54056   0.77010   0.11186   0.00000  Uiso   1.00
C387   C     0.47887   0.71407   0.39017   0.00000  Uiso   1.00
C388   C     0.46216   0.72709   0.09647   0.00000  Uiso   1.00
C389   C     0.52380   0.78401   0.40250   0.00000  Uiso   1.00
C390   C     0.46460   0.72537   0.04640   0.00000  Uiso   1.00
Cu391  Cu    0.50000   0.75000   0.29821   0.00000  Uiso   1.00
Cu392  Cu    0.50000   0.75001   0.20178   0.00000  Uiso   1.00
H393   H     0.65837   0.75075   0.19390   0.00000  Uiso   1.00
H394   H     0.54384   0.80801   0.47707   0.00000  Uiso   1.00
H395   H     0.57906   0.54736   0.36369   0.00000  Uiso   1.00
H396   H     0.57597   0.99531   0.33129   0.00000  Uiso   1.00
H397   H     0.62402   0.53613   0.32168   0.00000  Uiso   1.00
H398   H     0.57314   0.50094   0.18839   0.00000  Uiso   1.00
H399   H     0.61870   0.99514   0.24319   0.00000  Uiso   1.00
H400   H     0.61453   0.95535   0.19346   0.00000  Uiso   1.00
H401   H     0.56806   0.64439   0.34517   0.00000  Uiso   1.00
H402   H     0.62031   0.61125   0.33179   0.00000  Uiso   1.00
H403   H     0.60001   0.65449   0.29313   0.00000  Uiso   1.00
H404   H     0.34156   0.74992   0.30628   0.00000  Uiso   1.00
H405   H     0.59309   0.84418   0.23466   0.00000  Uiso   1.00
H406   H     0.59249   0.87898   0.18375   0.00000  Uiso   1.00
H407   H     0.63071   0.89414   0.24227   0.00000  Uiso   1.00
H408   H     0.44849   0.62019   0.15191   0.00000  Uiso   1.00
H409   H     0.40168   0.57954   0.16455   0.00000  Uiso   1.00
H410   H     0.40782   0.63142   0.19843   0.00000  Uiso   1.00
H411   H     0.39948   0.86321   0.25651   0.00000  Uiso   1.00
H412   H     0.43164   0.86561   0.31883   0.00000  Uiso   1.00
H413   H     0.39174   0.90985   0.29613   0.00000  Uiso   1.00
H414   H     0.37158   0.76062   0.11698   0.00000  Uiso   1.00
H415   H     0.44847   0.52099   0.19642   0.00000  Uiso   1.00
H416   H     0.35521   0.72935   0.06023   0.00000  Uiso   1.00
H417   H     0.33505   0.70856   0.11428   0.00000  Uiso   1.00
H418   H     0.41119   0.66925   0.08943   0.00000  Uiso   1.00
H419   H     0.42397   0.69173   0.14827   0.00000  Uiso   1.00
H420   H     0.61700   0.79277   0.37961   0.00000  Uiso   1.00
H421   H     0.59321   0.82732   0.32932   0.00000  Uiso   1.00
H422   H     0.62501   0.85201   0.38492   0.00000  Uiso   1.00
H423   H     0.51727   0.84652   0.36439   0.00000  Uiso   1.00
H424   H     0.55410   0.85151   0.41955   0.00000  Uiso   1.00
H425   H     0.44140   0.97300   0.28614   0.00000  Uiso   1.00
H426   H     0.57794   0.78334   0.05014   0.00000  Uiso   1.00
H427   H     0.46421   0.68149   0.45434   0.00000  Uiso   1.00
H428   H     0.57082   0.78769   0.13672   0.00000  Uiso   1.00
H429   H     0.45996   0.68737   0.36654   0.00000  Uiso   1.00
H430   H     0.43346   0.70853   0.02175   0.00000  Uiso   1.00
N431   N     0.50000   0.75001   0.12934   0.00000  Uiso   1.00
N432   N     0.50000   0.74999   0.37065   0.00000  Uiso   1.00
O433   O     0.50000   0.68573   0.29071   0.00000  Uiso   1.00
O434   O     0.50000   0.81428   0.20928   0.00000  Uiso   1.00
O435   O     0.50000   0.68573   0.20928   0.00000  Uiso   1.00
O436   O     0.50000   0.81427   0.29072   0.00000  Uiso   1.00
O437   O     0.42495   0.75000   0.28132   0.00000  Uiso   1.00
O438   O     0.57505   0.75001   0.21868   0.00000  Uiso   1.00
O439   O     0.42495   0.75000   0.19988   0.00000  Uiso   1.00
O440   O     0.57505   0.75000   0.30011   0.00000  Uiso   1.00
C441   C     0.83459   0.66497   0.24956   0.00000  Uiso   1.00
C442   C     0.85986   0.78086   0.45311   0.00000  Uiso   1.00
C443   C     0.83904   0.74516   0.02790   0.00000  Uiso   1.00
C444   C     0.83879   0.74470   0.47347   0.00000  Uiso   1.00
C445   C     0.73454   0.75007   0.23742   0.00000  Uiso   1.00
C446   C     0.93212   0.75006   0.26260   0.00000  Uiso   1.00
C447   C     0.67902   0.75037   0.23072   0.00000  Uiso   1.00
C448   C     0.98766   0.75016   0.26939   0.00000  Uiso   1.00
C449   C     0.87998   0.55150   0.28808   0.00000  Uiso   1.00
C450   C     0.88357   0.95183   0.23632   0.00000  Uiso   1.00
C451   C     0.87884   0.59813   0.28397   0.00000  Uiso   1.00
C452   C     0.83421   0.83487   0.25092   0.00000  Uiso   1.00
C453   C     0.88195   0.90500   0.23754   0.00000  Uiso   1.00
C454   C     0.83992   0.61655   0.24978   0.00000  Uiso   1.00
C455   C     0.83903   0.88318   0.25351   0.00000  Uiso   1.00
C456   C     0.80477   0.58843   0.21821   0.00000  Uiso   1.00
C457   C     0.80010   0.90769   0.27097   0.00000  Uiso   1.00
C458   C     0.80823   0.54275   0.22107   0.00000  Uiso   1.00
C459   C     0.80426   0.95376   0.27256   0.00000  Uiso   1.00
C460   C     0.84492   0.52427   0.25539   0.00000  Uiso   1.00
C461   C     0.84518   0.97571   0.25550   0.00000  Uiso   1.00
C462   C     0.91674   0.53135   0.32819   0.00000  Uiso   1.00
C463   C     0.87775   0.76772   0.06183   0.00000  Uiso   1.00
C464   C     0.92489   0.97689   0.21428   0.00000  Uiso   1.00
C465   C     0.91889   0.62852   0.31538   0.00000  Uiso   1.00
C466   C     0.92670   0.87901   0.22361   0.00000  Uiso   1.00
C467   C     0.76321   0.60606   0.18126   0.00000  Uiso   1.00
C468   C     0.75313   0.88537   0.28651   0.00000  Uiso   1.00
C469   C     0.75015   0.70140   0.11063   0.00000  Uiso   1.00
C470   C     0.70004   0.72666   0.09995   0.00000  Uiso   1.00
C471   C     0.87948   0.82785   0.38763   0.00000  Uiso   1.00
C472   C     0.93147   0.82422   0.36910   0.00000  Uiso   1.00
C473   C     0.81452   0.71077   0.44092   0.00000  Uiso   1.00
C474   C     0.87389   0.77010   0.11186   0.00000  Uiso   1.00
C475   C     0.81221   0.71407   0.39017   0.00000  Uiso   1.00
C476   C     0.79549   0.72709   0.09647   0.00000  Uiso   1.00
C477   C     0.85713   0.78401   0.40250   0.00000  Uiso   1.00
C478   C     0.79794   0.72537   0.04640   0.00000  Uiso   1.00
Cu479  Cu    0.83333   0.75000   0.29821   0.00000  Uiso   1.00
Cu480  Cu    0.83333   0.75001   0.20178   0.00000  Uiso   1.00
H481   H     0.99171   0.75075   0.19390   0.00000  Uiso   1.00
H482   H     0.87717   0.80801   0.47707   0.00000  Uiso   1.00
H483   H     0.91240   0.54736   0.36369   0.00000  Uiso   1.00
H484   H     0.90930   0.99531   0.33129   0.00000  Uiso   1.00
H485   H     0.95735   0.53613   0.32168   0.00000  Uiso   1.00
H486   H     0.90647   0.50094   0.18839   0.00000  Uiso   1.00
H487   H     0.95204   0.99514   0.24319   0.00000  Uiso   1.00
H488   H     0.94787   0.95535   0.19346   0.00000  Uiso   1.00
H489   H     0.90140   0.64439   0.34517   0.00000  Uiso   1.00
H490   H     0.95364   0.61125   0.33179   0.00000  Uiso   1.00
H491   H     0.93334   0.65449   0.29313   0.00000  Uiso   1.00
H492   H     0.67489   0.74992   0.30628   0.00000  Uiso   1.00
H493   H     0.92642   0.84418   0.23466   0.00000  Uiso   1.00
H494   H     0.92582   0.87898   0.18375   0.00000  Uiso   1.00
H495   H     0.96405   0.89414   0.24227   0.00000  Uiso   1.00
H496   H     0.78183   0.62019   0.15191   0.00000  Uiso   1.00
H497   H     0.73501   0.57954   0.16455   0.00000  Uiso   1.00
H498   H     0.74115   0.63142   0.19843   0.00000  Uiso   1.00
H499   H     0.73282   0.86321   0.25651   0.00000  Uiso   1.00
H500   H     0.76497   0.86561   0.31883   0.00000  Uiso   1.00
H501   H     0.72508   0.90985   0.29613   0.00000  Uiso   1.00
H502   H     0.70491   0.76062   0.11698   0.00000  Uiso   1.00
H503   H     0.78180   0.52099   0.19642   0.00000  Uiso   1.00
H504   H     0.68854   0.72935   0.06023   0.00000  Uiso   1.00
H505   H     0.66838   0.70856   0.11428   0.00000  Uiso   1.00
H506   H     0.74452   0.66925   0.08943   0.00000  Uiso   1.00
H507   H     0.75730   0.69173   0.14827   0.00000  Uiso   1.00
H508   H     0.95034   0.79277   0.37961   0.00000  Uiso   1.00
H509   H     0.92655   0.82732   0.32932   0.00000  Uiso   1.00
H510   H     0.95834   0.85201   0.38492   0.00000  Uiso   1.00
H511   H     0.85060   0.84652   0.36439   0.00000  Uiso   1.00
H512   H     0.88744   0.85151   0.41955   0.00000  Uiso   1.00
H513   H     0.77473   0.97300   0.28614   0.00000  Uiso   1.00
H514   H     0.91127   0.78334   0.05014   0.00000  Uiso   1.00
H515   H     0.79755   0.68149   0.45434   0.00000  Uiso   1.00
H516   H     0.90415   0.78769   0.13672   0.00000  Uiso   1.00
H517   H     0.79330   0.68737   0.36654   0.00000  Uiso   1.00
H518   H     0.76679   0.70853   0.02175   0.00000  Uiso   1.00
N519   N     0.83333   0.75001   0.12934   0.00000  Uiso   1.00
N520   N     0.83333   0.74999   0.37065   0.00000  Uiso   1.00
O521   O     0.83334   0.68573   0.29071   0.00000  Uiso   1.00
O522   O     0.83333   0.81428   0.20928   0.00000  Uiso   1.00
O523   O     0.83334   0.68573   0.20928   0.00000  Uiso   1.00
O524   O     0.83333   0.81427   0.29072   0.00000  Uiso   1.00
O525   O     0.75828   0.75000   0.28132   0.00000  Uiso   1.00
O526   O     0.90839   0.75001   0.21868   0.00000  Uiso   1.00
O527   O     0.75828   0.75000   0.19988   0.00000  Uiso   1.00
O528   O     0.90839   0.75000   0.30011   0.00000  Uiso   1.00
C529   C     0.16793   0.16497   0.74956   0.00000  Uiso   1.00
C530   C     0.19319   0.28086   0.95311   0.00000  Uiso   1.00
C531   C     0.17237   0.24516   0.52790   0.00000  Uiso   1.00
C532   C     0.17213   0.24470   0.97347   0.00000  Uiso   1.00
C533   C     0.06788   0.25007   0.73742   0.00000  Uiso   1.00
C534   C     0.26546   0.25006   0.76260   0.00000  Uiso   1.00
C535   C     0.01235   0.25037   0.73072   0.00000  Uiso   1.00
C536   C     0.32099   0.25016   0.76939   0.00000  Uiso   1.00
C537   C     0.21331   0.05150   0.78808   0.00000  Uiso   1.00
C538   C     0.21691   0.45183   0.73632   0.00000  Uiso   1.00
C539   C     0.21217   0.09813   0.78397   0.00000  Uiso   1.00
C540   C     0.16754   0.33487   0.75092   0.00000  Uiso   1.00
C541   C     0.21528   0.40500   0.73754   0.00000  Uiso   1.00
C542   C     0.17325   0.11655   0.74978   0.00000  Uiso   1.00
C543   C     0.17237   0.38318   0.75351   0.00000  Uiso   1.00
C544   C     0.13810   0.08843   0.71821   0.00000  Uiso   1.00
C545   C     0.13344   0.40769   0.77097   0.00000  Uiso   1.00
C546   C     0.14157   0.04275   0.72107   0.00000  Uiso   1.00
C547   C     0.13759   0.45376   0.77256   0.00000  Uiso   1.00
C548   C     0.17825   0.02427   0.75539   0.00000  Uiso   1.00
C549   C     0.17851   0.47571   0.75550   0.00000  Uiso   1.00
C550   C     0.25007   0.03135   0.82819   0.00000  Uiso   1.00
C551   C     0.21108   0.26772   0.56183   0.00000  Uiso   1.00
C552   C     0.25822   0.47689   0.71428   0.00000  Uiso   1.00
C553   C     0.25222   0.12852   0.81538   0.00000  Uiso   1.00
C554   C     0.26003   0.37901   0.72361   0.00000  Uiso   1.00
C555   C     0.09654   0.10606   0.68126   0.00000  Uiso   1.00
C556   C     0.08647   0.38537   0.78651   0.00000  Uiso   1.00
C557   C     0.08348   0.20140   0.61063   0.00000  Uiso   1.00
C558   C     0.03337   0.22666   0.59995   0.00000  Uiso   1.00
C559   C     0.21282   0.32785   0.88763   0.00000  Uiso   1.00
C560   C     0.26481   0.32422   0.86910   0.00000  Uiso   1.00
C561   C     0.14785   0.21077   0.94092   0.00000  Uiso   1.00
C562   C     0.20722   0.27010   0.61186   0.00000  Uiso   1.00
C563   C     0.14554   0.21407   0.89017   0.00000  Uiso   1.00
C564   C     0.12882   0.22709   0.59647   0.00000  Uiso   1.00
C565   C     0.19047   0.28401   0.90250   0.00000  Uiso   1.00
C566   C     0.13127   0.22537   0.54640   0.00000  Uiso   1.00
Cu567  Cu    0.16667   0.25000   0.79821   0.00000  Uiso   1.00
Cu568  Cu    0.16667   0.25001   0.70178   0.00000  Uiso   1.00
H569   H     0.32504   0.25075   0.69390   0.00000  Uiso   1.00
H570   H     0.21051   0.30801   0.97707   0.00000  Uiso   1.00
H571   H     0.24573   0.04736   0.86369   0.00000  Uiso   1.00
H572   H     0.24263   0.49531   0.83129   0.00000  Uiso   1.00
H573   H     0.29068   0.03613   0.82168   0.00000  Uiso   1.00
H574   H     0.23980   0.00094   0.68839   0.00000  Uiso   1.00
H575   H     0.28537   0.49514   0.74319   0.00000  Uiso   1.00
H576   H     0.28120   0.45535   0.69346   0.00000  Uiso   1.00
H577   H     0.23473   0.14439   0.84517   0.00000  Uiso   1.00
H578   H     0.28697   0.11125   0.83179   0.00000  Uiso   1.00
H579   H     0.26667   0.15449   0.79313   0.00000  Uiso   1.00
H580   H     0.00823   0.24992   0.80628   0.00000  Uiso   1.00
H581   H     0.25975   0.34418   0.73466   0.00000  Uiso   1.00
H582   H     0.25915   0.37898   0.68375   0.00000  Uiso   1.00
H583   H     0.29738   0.39414   0.74227   0.00000  Uiso   1.00
H584   H     0.11516   0.12019   0.65191   0.00000  Uiso   1.00
H585   H     0.06835   0.07954   0.66455   0.00000  Uiso   1.00
H586   H     0.07448   0.13142   0.69843   0.00000  Uiso   1.00
H587   H     0.06615   0.36321   0.75651   0.00000  Uiso   1.00
H588   H     0.09830   0.36561   0.81883   0.00000  Uiso   1.00
H589   H     0.05841   0.40985   0.79613   0.00000  Uiso   1.00
H590   H     0.03824   0.26062   0.61698   0.00000  Uiso   1.00
H591   H     0.11514   0.02099   0.69642   0.00000  Uiso   1.00
H592   H     0.02187   0.22935   0.56023   0.00000  Uiso   1.00
H593   H     0.00172   0.20856   0.61428   0.00000  Uiso   1.00
H594   H     0.07786   0.16925   0.58943   0.00000  Uiso   1.00
H595   H     0.09063   0.19173   0.64827   0.00000  Uiso   1.00
H596   H     0.28367   0.29277   0.87961   0.00000  Uiso   1.00
H597   H     0.25988   0.32732   0.82932   0.00000  Uiso   1.00
H598   H     0.29168   0.35201   0.88492   0.00000  Uiso   1.00
H599   H     0.18393   0.34652   0.86439   0.00000  Uiso   1.00
H600   H     0.22077   0.35151   0.91955   0.00000  Uiso   1.00
H601   H     0.10806   0.47300   0.78614   0.00000  Uiso   1.00
H602   H     0.24460   0.28334   0.55014   0.00000  Uiso   1.00
H603   H     0.13088   0.18149   0.95434   0.00000  Uiso   1.00
H604   H     0.23749   0.28769   0.63672   0.00000  Uiso   1.00
H605   H     0.12663   0.18737   0.86654   0.00000  Uiso   1.00
H606   H     0.10013   0.20853   0.52175   0.00000  Uiso   1.00
N607   N     0.16667   0.25001   0.62934   0.00000  Uiso   1.00
N608   N     0.16667   0.24999   0.87065   0.00000  Uiso   1.00
O609   O     0.16667   0.18573   0.79071   0.00000  Uiso   1.00
O610   O     0.16666   0.31428   0.70928   0.00000  Uiso   1.00
O611   O     0.16667   0.18573   0.70928   0.00000  Uiso   1.00
O612   O     0.16666   0.31427   0.79072   0.00000  Uiso   1.00
O613   O     0.09161   0.25000   0.78132   0.00000  Uiso   1.00
O614   O     0.24172   0.25001   0.71868   0.00000  Uiso   1.00
O615   O     0.09161   0.25000   0.69988   0.00000  Uiso   1.00
O616   O     0.24172   0.25000   0.80011   0.00000  Uiso   1.00
C617   C     0.50126   0.16497   0.74956   0.00000  Uiso   1.00
C618   C     0.52653   0.28086   0.95311   0.00000  Uiso   1.00
C619   C     0.50571   0.24516   0.52790   0.00000  Uiso   1.00
C620   C     0.50546   0.24470   0.97347   0.00000  Uiso   1.00
C621   C     0.40121   0.25007   0.73742   0.00000  Uiso   1.00
C622   C     0.59879   0.25006   0.76260   0.00000  Uiso   1.00
C623   C     0.34568   0.25037   0.73072   0.00000  Uiso   1.00
C624   C     0.65433   0.25016   0.76939   0.00000  Uiso   1.00
C625   C     0.54665   0.05150   0.78808   0.00000  Uiso   1.00
C626   C     0.55024   0.45183   0.73632   0.00000  Uiso   1.00
C627   C     0.54550   0.09813   0.78397   0.00000  Uiso   1.00
C628   C     0.50088   0.33487   0.75092   0.00000  Uiso   1.00
C629   C     0.54861   0.40500   0.73754   0.00000  Uiso   1.00
C630   C     0.50658   0.11655   0.74978   0.00000  Uiso   1.00
C631   C     0.50570   0.38318   0.75351   0.00000  Uiso   1.00
C632   C     0.47144   0.08843   0.71821   0.00000  Uiso   1.00
C633   C     0.46677   0.40769   0.77097   0.00000  Uiso   1.00
C634   C     0.47490   0.04275   0.72107   0.00000  Uiso   1.00
C635   C     0.47093   0.45376   0.77256   0.00000  Uiso   1.00
C636   C     0.51158   0.02427   0.75539   0.00000  Uiso   1.00
C637   C     0.51185   0.47571   0.75550   0.00000  Uiso   1.00
C638   C     0.58341   0.03135   0.82819   0.00000  Uiso   1.00
C639   C     0.54442   0.26772   0.56183   0.00000  Uiso   1.00
C640   C     0.59156   0.47689   0.71428   0.00000  Uiso   1.00
C641   C     0.58555   0.12852   0.81538   0.00000  Uiso   1.00
C642   C     0.59337   0.37901   0.72361   0.00000  Uiso   1.00
C643   C     0.42988   0.10606   0.68126   0.00000  Uiso   1.00
C644   C     0.41980   0.38537   0.78651   0.00000  Uiso   1.00
C645   C     0.41681   0.20140   0.61063   0.00000  Uiso   1.00
C646   C     0.36671   0.22666   0.59995   0.00000  Uiso   1.00
C647   C     0.54615   0.32785   0.88763   0.00000  Uiso   1.00
C648   C     0.59814   0.32422   0.86910   0.00000  Uiso   1.00
C649   C     0.48118   0.21077   0.94092   0.00000  Uiso   1.00
C650   C     0.54056   0.27010   0.61186   0.00000  Uiso   1.00
C651   C     0.47887   0.21407   0.89017   0.00000  Uiso   1.00
C652   C     0.46216   0.22709   0.59647   0.00000  Uiso   1.00
C653   C     0.52380   0.28401   0.90250   0.00000  Uiso   1.00
C654   C     0.46460   0.22537   0.54640   0.00000  Uiso   1.00
Cu655  Cu    0.50000   0.25000   0.79821   0.00000  Uiso   1.00
Cu656  Cu    0.50000   0.25001   0.70178   0.00000  Uiso   1.00
H657   H     0.65837   0.25075   0.69390   0.00000  Uiso   1.00
H658   H     0.54384   0.30801   0.97707   0.00000  Uiso   1.00
H659   H     0.57906   0.04736   0.86369   0.00000  Uiso   1.00
H660   H     0.57597   0.49531   0.83129   0.00000  Uiso   1.00
H661   H     0.62402   0.03613   0.82168   0.00000  Uiso   1.00
H662   H     0.57314   0.00094   0.68839   0.00000  Uiso   1.00
H663   H     0.61870   0.49514   0.74319   0.00000  Uiso   1.00
H664   H     0.61453   0.45535   0.69346   0.00000  Uiso   1.00
H665   H     0.56806   0.14439   0.84517   0.00000  Uiso   1.00
H666   H     0.62031   0.11125   0.83179   0.00000  Uiso   1.00
H667   H     0.60001   0.15449   0.79313   0.00000  Uiso   1.00
H668   H     0.34156   0.24992   0.80628   0.00000  Uiso   1.00
H669   H     0.59309   0.34418   0.73466   0.00000  Uiso   1.00
H670   H     0.59249   0.37898   0.68375   0.00000  Uiso   1.00
H671   H     0.63071   0.39414   0.74227   0.00000  Uiso   1.00
H672   H     0.44849   0.12019   0.65191   0.00000  Uiso   1.00
H673   H     0.40168   0.07954   0.66455   0.00000  Uiso   1.00
H674   H     0.40782   0.13142   0.69843   0.00000  Uiso   1.00
H675   H     0.39948   0.36321   0.75651   0.00000  Uiso   1.00
H676   H     0.43164   0.36561   0.81883   0.00000  Uiso   1.00
H677   H     0.39174   0.40985   0.79613   0.00000  Uiso   1.00
H678   H     0.37158   0.26062   0.61698   0.00000  Uiso   1.00
H679   H     0.44847   0.02099   0.69642   0.00000  Uiso   1.00
H680   H     0.35521   0.22935   0.56023   0.00000  Uiso   1.00
H681   H     0.33505   0.20856   0.61428   0.00000  Uiso   1.00
H682   H     0.41119   0.16925   0.58943   0.00000  Uiso   1.00
H683   H     0.42397   0.19173   0.64827   0.00000  Uiso   1.00
H684   H     0.61700   0.29277   0.87961   0.00000  Uiso   1.00
H685   H     0.59321   0.32732   0.82932   0.00000  Uiso   1.00
H686   H     0.62501   0.35201   0.88492   0.00000  Uiso   1.00
H687   H     0.51727   0.34652   0.86439   0.00000  Uiso   1.00
H688   H     0.55410   0.35151   0.91955   0.00000  Uiso   1.00
H689   H     0.44140   0.47300   0.78614   0.00000  Uiso   1.00
H690   H     0.57794   0.28334   0.55014   0.00000  Uiso   1.00
H691   H     0.46421   0.18149   0.95434   0.00000  Uiso   1.00
H692   H     0.57082   0.28769   0.63672   0.00000  Uiso   1.00
H693   H     0.45996   0.18737   0.86654   0.00000  Uiso   1.00
H694   H     0.43346   0.20853   0.52175   0.00000  Uiso   1.00
N695   N     0.50000   0.25001   0.62934   0.00000  Uiso   1.00
N696   N     0.50000   0.24999   0.87065   0.00000  Uiso   1.00
O697   O     0.50000   0.18573   0.79071   0.00000  Uiso   1.00
O698   O     0.50000   0.31428   0.70928   0.00000  Uiso   1.00
O699   O     0.50000   0.18573   0.70928   0.00000  Uiso   1.00
O700   O     0.50000   0.31427   0.79072   0.00000  Uiso   1.00
O701   O     0.42495   0.25000   0.78132   0.00000  Uiso   1.00
O702   O     0.57505   0.25001   0.71868   0.00000  Uiso   1.00
O703   O     0.42495   0.25000   0.69988   0.00000  Uiso   1.00
O704   O     0.57505   0.25000   0.80011   0.00000  Uiso   1.00
C705   C     0.83459   0.16497   0.74956   0.00000  Uiso   1.00
C706   C     0.85986   0.28086   0.95311   0.00000  Uiso   1.00
C707   C     0.83904   0.24516   0.52790   0.00000  Uiso   1.00
C708   C     0.83879   0.24470   0.97347   0.00000  Uiso   1.00
C709   C     0.73454   0.25007   0.73742   0.00000  Uiso   1.00
C710   C     0.93212   0.25006   0.76260   0.00000  Uiso   1.00
C711   C     0.67902   0.25037   0.73072   0.00000  Uiso   1.00
C712   C     0.98766   0.25016   0.76939   0.00000  Uiso   1.00
C713   C     0.87998   0.05150   0.78808   0.00000  Uiso   1.00
C714   C     0.88357   0.45183   0.73632   0.00000  Uiso   1.00
C715   C     0.87884   0.09813   0.78397   0.00000  Uiso   1.00
C716   C     0.83421   0.33487   0.75092   0.00000  Uiso   1.00
C717   C     0.88195   0.40500   0.73754   0.00000  Uiso   1.00
C718   C     0.83992   0.11655   0.74978   0.00000  Uiso   1.00
C719   C     0.83903   0.38318   0.75351   0.00000  Uiso   1.00
C720   C     0.80477   0.08843   0.71821   0.00000  Uiso   1.00
C721   C     0.80010   0.40769   0.77097   0.00000  Uiso   1.00
C722   C     0.80823   0.04275   0.72107   0.00000  Uiso   1.00
C723   C     0.80426   0.45376   0.77256   0.00000  Uiso   1.00
C724   C     0.84492   0.02427   0.75539   0.00000  Uiso   1.00
C725   C     0.84518   0.47571   0.75550   0.00000  Uiso   1.00
C726   C     0.91674   0.03135   0.82819   0.00000  Uiso   1.00
C727   C     0.87775   0.26772   0.56183   0.00000  Uiso   1.00
C728   C     0.92489   0.47689   0.71428   0.00000  Uiso   1.00
C729   C     0.91889   0.12852   0.81538   0.00000  Uiso   1.00
C730   C     0.92670   0.37901   0.72361   0.00000  Uiso   1.00
C731   C     0.76321   0.10606   0.68126   0.00000  Uiso   1.00
C732   C     0.75313   0.38537   0.78651   0.00000  Uiso   1.00
C733   C     0.75015   0.20140   0.61063   0.00000  Uiso   1.00
C734   C     0.70004   0.22666   0.59995   0.00000  Uiso   1.00
C735   C     0.87948   0.32785   0.88763   0.00000  Uiso   1.00
C736   C     0.93147   0.32422   0.86910   0.00000  Uiso   1.00
C737   C     0.81452   0.21077   0.94092   0.00000  Uiso   1.00
C738   C     0.87389   0.27010   0.61186   0.00000  Uiso   1.00
C739   C     0.81221   0.21407   0.89017   0.00000  Uiso   1.00
C740   C     0.79549   0.22709   0.59647   0.00000  Uiso   1.00
C741   C     0.85713   0.28401   0.90250   0.00000  Uiso   1.00
C742   C     0.79794   0.22537   0.54640   0.00000  Uiso   1.00
Cu743  Cu    0.83333   0.25000   0.79821   0.00000  Uiso   1.00
Cu744  Cu    0.83333   0.25001   0.70178   0.00000  Uiso   1.00
H745   H     0.99171   0.25075   0.69390   0.00000  Uiso   1.00
H746   H     0.87717   0.30801   0.97707   0.00000  Uiso   1.00
H747   H     0.91240   0.04736   0.86369   0.00000  Uiso   1.00
H748   H     0.90930   0.49531   0.83129   0.00000  Uiso   1.00
H749   H     0.95735   0.03613   0.82168   0.00000  Uiso   1.00
H750   H     0.90647   0.00094   0.68839   0.00000  Uiso   1.00
H751   H     0.95204   0.49514   0.74319   0.00000  Uiso   1.00
H752   H     0.94787   0.45535   0.69346   0.00000  Uiso   1.00
H753   H     0.90140   0.14439   0.84517   0.00000  Uiso   1.00
H754   H     0.95364   0.11125   0.83179   0.00000  Uiso   1.00
H755   H     0.93334   0.15449   0.79313   0.00000  Uiso   1.00
H756   H     0.67489   0.24992   0.80628   0.00000  Uiso   1.00
H757   H     0.92642   0.34418   0.73466   0.00000  Uiso   1.00
H758   H     0.92582   0.37898   0.68375   0.00000  Uiso   1.00
H759   H     0.96405   0.39414   0.74227   0.00000  Uiso   1.00
H760   H     0.78183   0.12019   0.65191   0.00000  Uiso   1.00
H761   H     0.73501   0.07954   0.66455   0.00000  Uiso   1.00
H762   H     0.74115   0.13142   0.69843   0.00000  Uiso   1.00
H763   H     0.73282   0.36321   0.75651   0.00000  Uiso   1.00
H764   H     0.76497   0.36561   0.81883   0.00000  Uiso   1.00
H765   H     0.72508   0.40985   0.79613   0.00000  Uiso   1.00
H766   H     0.70491   0.26062   0.61698   0.00000  Uiso   1.00
H767   H     0.78180   0.02099   0.69642   0.00000  Uiso   1.00
H768   H     0.68854   0.22935   0.56023   0.00000  Uiso   1.00
H769   H     0.66838   0.20856   0.61428   0.00000  Uiso   1.00
H770   H     0.74452   0.16925   0.58943   0.00000  Uiso   1.00
H771   H     0.75730   0.19173   0.64827   0.00000  Uiso   1.00
H772   H     0.95034   0.29277   0.87961   0.00000  Uiso   1.00
H773   H     0.92655   0.32732   0.82932   0.00000  Uiso   1.00
H774   H     0.95834   0.35201   0.88492   0.00000  Uiso   1.00
H775   H     0.85060   0.34652   0.86439   0.00000  Uiso   1.00
H776   H     0.88744   0.35151   0.91955   0.00000  Uiso   1.00
H777   H     0.77473   0.47300   0.78614   0.00000  Uiso   1.00
H778   H     0.91127   0.28334   0.55014   0.00000  Uiso   1.00
H779   H     0.79755   0.18149   0.95434   0.00000  Uiso   1.00
H780   H     0.90415   0.28769   0.63672   0.00000  Uiso   1.00
H781   H     0.79330   0.18737   0.86654   0.00000  Uiso   1.00
H782   H     0.76679   0.20853   0.52175   0.00000  Uiso   1.00
N783   N     0.83333   0.25001   0.62934   0.00000  Uiso   1.00
N784   N     0.83333   0.24999   0.87065   0.00000  Uiso   1.00
O785   O     0.83334   0.18573   0.79071   0.00000  Uiso   1.00
O786   O     0.83333   0.31428   0.70928   0.00000  Uiso   1.00
O787   O     0.83334   0.18573   0.70928   0.00000  Uiso   1.00
O788   O     0.83333   0.31427   0.79072   0.00000  Uiso   1.00
O789   O     0.75828   0.25000   0.78132   0.00000  Uiso   1.00
O790   O     0.90839   0.25001   0.71868   0.00000  Uiso   1.00
O791   O     0.75828   0.25000   0.69988   0.00000  Uiso   1.00
O792   O     0.90839   0.25000   0.80011   0.00000  Uiso   1.00
C793   C     0.16793   0.66497   0.74956   0.00000  Uiso   1.00
C794   C     0.19319   0.78086   0.95311   0.00000  Uiso   1.00
C795   C     0.17237   0.74516   0.52790   0.00000  Uiso   1.00
C796   C     0.17213   0.74470   0.97347   0.00000  Uiso   1.00
C797   C     0.06788   0.75007   0.73742   0.00000  Uiso   1.00
C798   C     0.26546   0.75006   0.76260   0.00000  Uiso   1.00
C799   C     0.01235   0.75037   0.73072   0.00000  Uiso   1.00
C800   C     0.32099   0.75016   0.76939   0.00000  Uiso   1.00
C801   C     0.21331   0.55150   0.78808   0.00000  Uiso   1.00
C802   C     0.21691   0.95183   0.73632   0.00000  Uiso   1.00
C803   C     0.21217   0.59813   0.78397   0.00000  Uiso   1.00
C804   C     0.16754   0.83487   0.75092   0.00000  Uiso   1.00
C805   C     0.21528   0.90500   0.73754   0.00000  Uiso   1.00
C806   C     0.17325   0.61655   0.74978   0.00000  Uiso   1.00
C807   C     0.17237   0.88318   0.75351   0.00000  Uiso   1.00
C808   C     0.13810   0.58843   0.71821   0.00000  Uiso   1.00
C809   C     0.13344   0.90769   0.77097   0.00000  Uiso   1.00
C810   C     0.14157   0.54275   0.72107   0.00000  Uiso   1.00
C811   C     0.13759   0.95376   0.77256   0.00000  Uiso   1.00
C812   C     0.17825   0.52427   0.75539   0.00000  Uiso   1.00
C813   C     0.17851   0.97571   0.75550   0.00000  Uiso   1.00
C814   C     0.25007   0.53135   0.82819   0.00000  Uiso   1.00
C815   C     0.21108   0.76772   0.56183   0.00000  Uiso   1.00
C816   C     0.25822   0.97689   0.71428   0.00000  Uiso   1.00
C817   C     0.25222   0.62852   0.81538   0.00000  Uiso   1.00
C818   C     0.26003   0.87901   0.72361   0.00000  Uiso   1.00
C819   C     0.09654   0.60606   0.68126   0.00000  Uiso   1.00
C820   C     0.08647   0.88537   0.78651   0.00000  Uiso   1.00
C821   C     0.08348   0.70140   0.61063   0.00000  Uiso   1.00
C822   C     0.03337   0.72666   0.59995   0.00000  Uiso   1.00
C823   C     0.21282   0.82785   0.88763   0.00000  Uiso   1.00
C824   C     0.26481   0.82422   0.86910   0.00000  Uiso   1.00
C825   C     0.14785   0.71077   0.94092   0.00000  Uiso   1.00
C826   C     0.20722   0.77010   0.61186   0.00000  Uiso   1.00
C827   C     0.14554   0.71407   0.89017   0.00000  Uiso   1.00
C828   C     0.12882   0.72709   0.59647   0.00000  Uiso   1.00
C829   C     0.19047   0.78401   0.90250   0.00000  Uiso   1.00
C830   C     0.13127   0.72537   0.54640   0.00000  Uiso   1.00
Cu831  Cu    0.16667   0.75000   0.79821   0.00000  Uiso   1.00
Cu832  Cu    0.16667   0.75001   0.70178   0.00000  Uiso   1.00
H833   H     0.32504   0.75075   0.69390   0.00000  Uiso   1.00
H834   H     0.21051   0.80801   0.97707   0.00000  Uiso   1.00
H835   H     0.24573   0.54736   0.86369   0.00000  Uiso   1.00
H836   H     0.24263   0.99531   0.83129   0.00000  Uiso   1.00
H837   H     0.29068   0.53613   0.82168   0.00000  Uiso   1.00
H838   H     0.23980   0.50094   0.68839   0.00000  Uiso   1.00
H839   H     0.28537   0.99514   0.74319   0.00000  Uiso   1.00
H840   H     0.28120   0.95535   0.69346   0.00000  Uiso   1.00
H841   H     0.23473   0.64439   0.84517   0.00000  Uiso   1.00
H842   H     0.28697   0.61125   0.83179   0.00000  Uiso   1.00
H843   H     0.26667   0.65449   0.79313   0.00000  Uiso   1.00
H844   H     0.00823   0.74992   0.80628   0.00000  Uiso   1.00
H845   H     0.25975   0.84418   0.73466   0.00000  Uiso   1.00
H846   H     0.25915   0.87898   0.68375   0.00000  Uiso   1.00
H847   H     0.29738   0.89414   0.74227   0.00000  Uiso   1.00
H848   H     0.11516   0.62019   0.65191   0.00000  Uiso   1.00
H849   H     0.06835   0.57954   0.66455   0.00000  Uiso   1.00
H850   H     0.07448   0.63142   0.69843   0.00000  Uiso   1.00
H851   H     0.06615   0.86321   0.75651   0.00000  Uiso   1.00
H852   H     0.09830   0.86561   0.81883   0.00000  Uiso   1.00
H853   H     0.05841   0.90985   0.79613   0.00000  Uiso   1.00
H854   H     0.03824   0.76062   0.61698   0.00000  Uiso   1.00
H855   H     0.11514   0.52099   0.69642   0.00000  Uiso   1.00
H856   H     0.02187   0.72935   0.56023   0.00000  Uiso   1.00
H857   H     0.00172   0.70856   0.61428   0.00000  Uiso   1.00
H858   H     0.07786   0.66925   0.58943   0.00000  Uiso   1.00
H859   H     0.09063   0.69173   0.64827   0.00000  Uiso   1.00
H860   H     0.28367   0.79277   0.87961   0.00000  Uiso   1.00
H861   H     0.25988   0.82732   0.82932   0.00000  Uiso   1.00
H862   H     0.29168   0.85201   0.88492   0.00000  Uiso   1.00
H863   H     0.18393   0.84652   0.86439   0.00000  Uiso   1.00
H864   H     0.22077   0.85151   0.91955   0.00000  Uiso   1.00
H865   H     0.10806   0.97300   0.78614   0.00000  Uiso   1.00
H866   H     0.24460   0.78334   0.55014   0.00000  Uiso   1.00
H867   H     0.13088   0.68149   0.95434   0.00000  Uiso   1.00
H868   H     0.23749   0.78769   0.63672   0.00000  Uiso   1.00
H869   H     0.12663   0.68737   0.86654   0.00000  Uiso   1.00
H870   H     0.10013   0.70853   0.52175   0.00000  Uiso   1.00
N871   N     0.16667   0.75001   0.62934   0.00000  Uiso   1.00
N872   N     0.16667   0.74999   0.87065   0.00000  Uiso   1.00
O873   O     0.16667   0.68573   0.79071   0.00000  Uiso   1.00
O874   O     0.16666   0.81428   0.70928   0.00000  Uiso   1.00
O875   O     0.16667   0.68573   0.70928   0.00000  Uiso   1.00
O876   O     0.16666   0.81427   0.79072   0.00000  Uiso   1.00
O877   O     0.09161   0.75000   0.78132   0.00000  Uiso   1.00
O878   O     0.24172   0.75001   0.71868   0.00000  Uiso   1.00
O879   O     0.09161   0.75000   0.69988   0.00000  Uiso   1.00
O880   O     0.24172   0.75000   0.80011   0.00000  Uiso   1.00
C881   C     0.50126   0.66497   0.74956   0.00000  Uiso   1.00
C882   C     0.52653   0.78086   0.95311   0.00000  Uiso   1.00
C883   C     0.50571   0.74516   0.52790   0.00000  Uiso   1.00
C884   C     0.50546   0.74470   0.97347   0.00000  Uiso   1.00
C885   C     0.40121   0.75007   0.73742   0.00000  Uiso   1.00
C886   C     0.59879   0.75006   0.76260   0.00000  Uiso   1.00
C887   C     0.34568   0.75037   0.73072   0.00000  Uiso   1.00
C888   C     0.65433   0.75016   0.76939   0.00000  Uiso   1.00
C889   C     0.54665   0.55150   0.78808   0.00000  Uiso   1.00
C890   C     0.55024   0.95183   0.73632   0.00000  Uiso   1.00
C891   C     0.54550   0.59813   0.78397   0.00000  Uiso   1.00
C892   C     0.50088   0.83487   0.75092   0.00000  Uiso   1.00
C893   C     0.54861   0.90500   0.73754   0.00000  Uiso   1.00
C894   C     0.50658   0.61655   0.74978   0.00000  Uiso   1.00
C895   C     0.50570   0.88318   0.75351   0.00000  Uiso   1.00
C896   C     0.47144   0.58843   0.71821   0.00000  Uiso   1.00
C897   C     0.46677   0.90769   0.77097   0.00000  Uiso   1.00
C898   C     0.47490   0.54275   0.72107   0.00000  Uiso   1.00
C899   C     0.47093   0.95376   0.77256   0.00000  Uiso   1.00
C900   C     0.51158   0.52427   0.75539   0.00000  Uiso   1.00
C901   C     0.51185   0.97571   0.75550   0.00000  Uiso   1.00
C902   C     0.58341   0.53135   0.82819   0.00000  Uiso   1.00
C903   C     0.54442   0.76772   0.56183   0.00000  Uiso   1.00
C904   C     0.59156   0.97689   0.71428   0.00000  Uiso   1.00
C905   C     0.58555   0.62852   0.81538   0.00000  Uiso   1.00
C906   C     0.59337   0.87901   0.72361   0.00000  Uiso   1.00
C907   C     0.42988   0.60606   0.68126   0.00000  Uiso   1.00
C908   C     0.41980   0.88537   0.78651   0.00000  Uiso   1.00
C909   C     0.41681   0.70140   0.61063   0.00000  Uiso   1.00
C910   C     0.36671   0.72666   0.59995   0.00000  Uiso   1.00
C911   C     0.54615   0.82785   0.88763   0.00000  Uiso   1.00
C912   C     0.59814   0.82422   0.86910   0.00000  Uiso   1.00
C913   C     0.48118   0.71077   0.94092   0.00000  Uiso   1.00
C914   C     0.54056   0.77010   0.61186   0.00000  Uiso   1.00
C915   C     0.47887   0.71407   0.89017   0.00000  Uiso   1.00
C916   C     0.46216   0.72709   0.59647   0.00000  Uiso   1.00
C917   C     0.52380   0.78401   0.90250   0.00000  Uiso   1.00
C918   C     0.46460   0.72537   0.54640   0.00000  Uiso   1.00
Cu919  Cu    0.50000   0.75000   0.79821   0.00000  Uiso   1.00
Cu920  Cu    0.50000   0.75001   0.70178   0.00000  Uiso   1.00
H921   H     0.65837   0.75075   0.69390   0.00000  Uiso   1.00
H922   H     0.54384   0.80801   0.97707   0.00000  Uiso   1.00
H923   H     0.57906   0.54736   0.86369   0.00000  Uiso   1.00
H924   H     0.57597   0.99531   0.83129   0.00000  Uiso   1.00
H925   H     0.62402   0.53613   0.82168   0.00000  Uiso   1.00
H926   H     0.57314   0.50094   0.68839   0.00000  Uiso   1.00
H927   H     0.61870   0.99514   0.74319   0.00000  Uiso   1.00
H928   H     0.61453   0.95535   0.69346   0.00000  Uiso   1.00
H929   H     0.56806   0.64439   0.84517   0.00000  Uiso   1.00
H930   H     0.62031   0.61125   0.83179   0.00000  Uiso   1.00
H931   H     0.60001   0.65449   0.79313   0.00000  Uiso   1.00
H932   H     0.34156   0.74992   0.80628   0.00000  Uiso   1.00
H933   H     0.59309   0.84418   0.73466   0.00000  Uiso   1.00
H934   H     0.59249   0.87898   0.68375   0.00000  Uiso   1.00
H935   H     0.63071   0.89414   0.74227   0.00000  Uiso   1.00
H936   H     0.44849   0.62019   0.65191   0.00000  Uiso   1.00
H937   H     0.40168   0.57954   0.66455   0.00000  Uiso   1.00
H938   H     0.40782   0.63142   0.69843   0.00000  Uiso   1.00
H939   H     0.39948   0.86321   0.75651   0.00000  Uiso   1.00
H940   H     0.43164   0.86561   0.81883   0.00000  Uiso   1.00
H941   H     0.39174   0.90985   0.79613   0.00000  Uiso   1.00
H942   H     0.37158   0.76062   0.61698   0.00000  Uiso   1.00
H943   H     0.44847   0.52099   0.69642   0.00000  Uiso   1.00
H944   H     0.35521   0.72935   0.56023   0.00000  Uiso   1.00
H945   H     0.33505   0.70856   0.61428   0.00000  Uiso   1.00
H946   H     0.41119   0.66925   0.58943   0.00000  Uiso   1.00
H947   H     0.42397   0.69173   0.64827   0.00000  Uiso   1.00
H948   H     0.61700   0.79277   0.87961   0.00000  Uiso   1.00
H949   H     0.59321   0.82732   0.82932   0.00000  Uiso   1.00
H950   H     0.62501   0.85201   0.88492   0.00000  Uiso   1.00
H951   H     0.51727   0.84652   0.86439   0.00000  Uiso   1.00
H952   H     0.55410   0.85151   0.91955   0.00000  Uiso   1.00
H953   H     0.44140   0.97300   0.78614   0.00000  Uiso   1.00
H954   H     0.57794   0.78334   0.55014   0.00000  Uiso   1.00
H955   H     0.46421   0.68149   0.95434   0.00000  Uiso   1.00
H956   H     0.57082   0.78769   0.63672   0.00000  Uiso   1.00
H957   H     0.45996   0.68737   0.86654   0.00000  Uiso   1.00
H958   H     0.43346   0.70853   0.52175   0.00000  Uiso   1.00
N959   N     0.50000   0.75001   0.62934   0.00000  Uiso   1.00
N960   N     0.50000   0.74999   0.87065   0.00000  Uiso   1.00
O961   O     0.50000   0.68573   0.79071   0.00000  Uiso   1.00
O962   O     0.50000   0.81428   0.70928   0.00000  Uiso   1.00
O963   O     0.50000   0.68573   0.70928   0.00000  Uiso   1.00
O964   O     0.50000   0.81427   0.79072   0.00000  Uiso   1.00
O965   O     0.42495   0.75000   0.78132   0.00000  Uiso   1.00
O966   O     0.57505   0.75001   0.71868   0.00000  Uiso   1.00
O967   O     0.42495   0.75000   0.69988   0.00000  Uiso   1.00
O968   O     0.57505   0.75000   0.80011   0.00000  Uiso   1.00
C969   C     0.83459   0.66497   0.74956   0.00000  Uiso   1.00
C970   C     0.85986   0.78086   0.95311   0.00000  Uiso   1.00
C971   C     0.83904   0.74516   0.52790   0.00000  Uiso   1.00
C972   C     0.83879   0.74470   0.97347   0.00000  Uiso   1.00
C973   C     0.73454   0.75007   0.73742   0.00000  Uiso   1.00
C974   C     0.93212   0.75006   0.76260   0.00000  Uiso   1.00
C975   C     0.67902   0.75037   0.73072   0.00000  Uiso   1.00
C976   C     0.98766   0.75016   0.76939   0.00000  Uiso   1.00
C977   C     0.87998   0.55150   0.78808   0.00000  Uiso   1.00
C978   C     0.88357   0.95183   0.73632   0.00000  Uiso   1.00
C979   C     0.87884   0.59813   0.78397   0.00000  Uiso   1.00
C980   C     0.83421   0.83487   0.75092   0.00000  Uiso   1.00
C981   C     0.88195   0.90500   0.73754   0.00000  Uiso   1.00
C982   C     0.83992   0.61655   0.74978   0.00000  Uiso   1.00
C983   C     0.83903   0.88318   0.75351   0.00000  Uiso   1.00
C984   C     0.80477   0.58843   0.71821   0.00000  Uiso   1.00
C985   C     0.80010   0.90769   0.77097   0.00000  Uiso   1.00
C986   C     0.80823   0.54275   0.72107   0.00000  Uiso   1.00
C987   C     0.80426   0.95376   0.77256   0.00000  Uiso   1.00
C988   C     0.84492   0.52427   0.75539   0.00000  Uiso   1.00
C989   C     0.84518   0.97571   0.75550   0.00000  Uiso   1.00
C990   C     0.91674   0.53135   0.82819   0.00000  Uiso   1.00
C991   C     0.87775   0.76772   0.56183   0.00000  Uiso   1.00
C992   C     0.92489   0.97689   0.71428   0.00000  Uiso   1.00
C993   C     0.91889   0.62852   0.81538   0.00000  Uiso   1.00
C994   C     0.92670   0.87901   0.72361   0.00000  Uiso   1.00
C995   C     0.76321   0.60606   0.68126   0.00000  Uiso   1.00
C996   C     0.75313   0.88537   0.78651   0.00000  Uiso   1.00
C997   C     0.75015   0.70140   0.61063   0.00000  Uiso   1.00
C998   C     0.70004   0.72666   0.59995   0.00000  Uiso   1.00
C999   C     0.87948   0.82785   0.88763   0.00000  Uiso   1.00
C1000  C     0.93147   0.82422   0.86910   0.00000  Uiso   1.00
C1001  C     0.81452   0.71077   0.94092   0.00000  Uiso   1.00
C1002  C     0.87389   0.77010   0.61186   0.00000  Uiso   1.00
C1003  C     0.81221   0.71407   0.89017   0.00000  Uiso   1.00
C1004  C     0.79549   0.72709   0.59647   0.00000  Uiso   1.00
C1005  C     0.85713   0.78401   0.90250   0.00000  Uiso   1.00
C1006  C     0.79794   0.72537   0.54640   0.00000  Uiso   1.00
Cu1007 Cu    0.83333   0.75000   0.79821   0.00000  Uiso   1.00
Cu1008 Cu    0.83333   0.75001   0.70178   0.00000  Uiso   1.00
H1009  H     0.99171   0.75075   0.69390   0.00000  Uiso   1.00
H1010  H     0.87717   0.80801   0.97707   0.00000  Uiso   1.00
H1011  H     0.91240   0.54736   0.86369   0.00000  Uiso   1.00
H1012  H     0.90930   0.99531   0.83129   0.00000  Uiso   1.00
H1013  H     0.95735   0.53613   0.82168   0.00000  Uiso   1.00
H1014  H     0.90647   0.50094   0.68839   0.00000  Uiso   1.00
H1015  H     0.95204   0.99514   0.74319   0.00000  Uiso   1.00
H1016  H     0.94787   0.95535   0.69346   0.00000  Uiso   1.00
H1017  H     0.90140   0.64439   0.84517   0.00000  Uiso   1.00
H1018  H     0.95364   0.61125   0.83179   0.00000  Uiso   1.00
H1019  H     0.93334   0.65449   0.79313   0.00000  Uiso   1.00
H1020  H     0.67489   0.74992   0.80628   0.00000  Uiso   1.00
H1021  H     0.92642   0.84418   0.73466   0.00000  Uiso   1.00
H1022  H     0.92582   0.87898   0.68375   0.00000  Uiso   1.00
H1023  H     0.96405   0.89414   0.74227   0.00000  Uiso   1.00
H1024  H     0.78183   0.62019   0.65191   0.00000  Uiso   1.00
H1025  H     0.73501   0.57954   0.66455   0.00000  Uiso   1.00
H1026  H     0.74115   0.63142   0.69843   0.00000  Uiso   1.00
H1027  H     0.73282   0.86321   0.75651   0.00000  Uiso   1.00
H1028  H     0.76497   0.86561   0.81883   0.00000  Uiso   1.00
H1029  H     0.72508   0.90985   0.79613   0.00000  Uiso   1.00
H1030  H     0.70491   0.76062   0.61698   0.00000  Uiso   1.00
H1031  H     0.78180   0.52099   0.69642   0.00000  Uiso   1.00
H1032  H     0.68854   0.72935   0.56023   0.00000  Uiso   1.00
H1033  H     0.66838   0.70856   0.61428   0.00000  Uiso   1.00
H1034  H     0.74452   0.66925   0.58943   0.00000  Uiso   1.00
H1035  H     0.75730   0.69173   0.64827   0.00000  Uiso   1.00
H1036  H     0.95034   0.79277   0.87961   0.00000  Uiso   1.00
H1037  H     0.92655   0.82732   0.82932   0.00000  Uiso   1.00
H1038  H     0.95834   0.85201   0.88492   0.00000  Uiso   1.00
H1039  H     0.85060   0.84652   0.86439   0.00000  Uiso   1.00
H1040  H     0.88744   0.85151   0.91955   0.00000  Uiso   1.00
H1041  H     0.77473   0.97300   0.78614   0.00000  Uiso   1.00
H1042  H     0.91127   0.78334   0.55014   0.00000  Uiso   1.00
H1043  H     0.79755   0.68149   0.95434   0.00000  Uiso   1.00
H1044  H     0.90415   0.78769   0.63672   0.00000  Uiso   1.00
H1045  H     0.79330   0.68737   0.86654   0.00000  Uiso   1.00
H1046  H     0.76679   0.70853   0.52175   0.00000  Uiso   1.00
N1047  N     0.83333   0.75001   0.62934   0.00000  Uiso   1.00
N1048  N     0.83333   0.74999   0.87065   0.00000  Uiso   1.00
O1049  O     0.83334   0.68573   0.79071   0.00000  Uiso   1.00
O1050  O     0.83333   0.81428   0.70928   0.00000  Uiso   1.00
O1051  O     0.83334   0.68573   0.70928   0.00000  Uiso   1.00
O1052  O     0.83333   0.81427   0.79072   0.00000  Uiso   1.00
O1053  O     0.75828   0.75000   0.78132   0.00000  Uiso   1.00
O1054  O     0.90839   0.75001   0.71868   0.00000  Uiso   1.00
O1055  O     0.75828   0.75000   0.69988   0.00000  Uiso   1.00
O1056  O     0.90839   0.75000   0.80011   0.00000  Uiso   1.00
loop_
_geom_bond_atom_site_label_1
_geom_bond_atom_site_label_2
_geom_bond_distance
_geom_bond_site_symmetry_2
_ccdc_geom_bond_type
C1     O81     1.295   .     A
C1     O83     1.304   .     A
C1     C14     1.473   .     S
C2     C4      1.387   .     A
C2     C37     1.411   .     A
C2     H42     1.082   .     S
C3     C23     1.416   .     A
C3     C38     1.390   .     A
C3     C532    1.519   1_554 S
C4     C33     1.413   .     A
C4     C531    1.519   .     S
C5     O85     1.287   .     A
C5     C7      1.434   .     S
C5     O87     1.297   .     A
C6     O88     1.297   .     A
C6     C8      1.434   .     S
C6     O86     1.287   .     A
C7     C184    1.340   1_455 S
C7     H217    1.086   1_455 S
C8     C95     1.340   .     S
C8     H140    1.087   .     S
C9     C22     1.517   .     S
C9     C20     1.412   .     A
C9     C11     1.417   .     A
C10    C21     1.412   .     A
C10    C24     1.518   .     S
C10    C13     1.415   .     A
C11    C14     1.424   .     A
C11    C25     1.520   .     S
C12    O84     1.296   .     A
C12    C15     1.458   .     S
C12    O82     1.296   .     A
C13    C26     1.519   .     S
C13    C15     1.421   .     A
C14    C16     1.412   .     A
C15    C17     1.411   .     A
C16    C27     1.503   .     S
C16    C18     1.389   .     A
C17    C19     1.390   .     A
C17    C28     1.511   .     S
C18    C20     1.392   .     A
C18    H63     1.085   .     S
C19    C21     1.395   .     A
C19    H73     1.085   .     S
C20    C285    1.466   1_545 S
C21    C284    1.466   .     S
C22    H43     1.110   .     S
C22    H45     1.110   .     S
C22    H308    1.108   1_545 S
C23    C34     1.416   .     A
C23    H74     1.082   .     S
C24    H47     1.108   .     S
C24    H48     1.107   .     S
C24    H310    1.110   .     S
C25    H50     1.106   .     S
C25    H51     1.110   .     S
C25    H49     1.110   .     S
C26    H55     1.110   .     S
C26    H54     1.110   .     S
C26    H53     1.107   .     S
C27    H57     1.111   .     S
C27    H56     1.107   .     S
C27    H58     1.110   .     S
C28    H61     1.111   .     S
C28    H60     1.109   .     S
C28    H59     1.111   .     S
C29    C36     1.507   .     S
C29    H67     1.091   .     S
C29    C30     1.530   .     S
C29    H66     1.112   .     S
C30    H64     1.111   .     S
C30    H62     1.110   .     S
C30    H65     1.110   .     S
C31    H71     1.100   .     S
C31    C37     1.527   .     S
C31    C32     1.531   .     S
C31    H72     1.113   .     S
C32    H68     1.111   .     S
C32    H70     1.111   .     S
C32    H69     1.106   .     S
C33    H75     1.082   .     S
C33    C35     1.417   .     A
C34    N79     1.368   .     A
C34    H76     1.081   .     S
C35    N80     1.370   .     A
C35    H77     1.081   .     S
C36    N79     1.391   .     A
C36    C38     1.409   .     A
C37    N80     1.400   .     A
C38    H78     1.083   .     S
Cu39   O84     1.959   .     S
Cu39   O88     1.953   .     S
Cu39   O81     1.944   .     S
Cu39   Cu40    2.693   .     S
Cu39   O85     1.945   .     S
Cu39   N80     2.023   .     S
Cu40   O87     1.953   .     S
Cu40   O86     1.945   .     S
Cu40   O83     1.959   .     S
Cu40   O82     1.944   .     S
Cu40   N79     2.023   .     S
H41    C95     1.086   .     S
H44    C286    1.108   .     S
H46    C288    1.110   1_545 S
H52    C184    1.087   1_455 S
C89    O169    1.295   .     A
C89    O171    1.304   .     A
C89    C102    1.473   .     S
C90    C92     1.387   .     A
C90    C125    1.411   .     A
C90    H130    1.082   .     S
C91    C111    1.416   .     A
C91    C126    1.390   .     A
C91    C620    1.519   1_554 S
C92    C121    1.413   .     A
C92    C619    1.519   .     S
C93    O173    1.287   .     A
C93    C95     1.434   .     S
C93    O175    1.297   .     A
C94    O176    1.297   .     A
C94    C96     1.434   .     S
C94    O174    1.287   .     A
C96    C183    1.340   .     S
C96    H228    1.087   .     S
C97    C110    1.517   .     S
C97    C108    1.412   .     A
C97    C99     1.417   .     A
C98    C109    1.412   .     A
C98    C112    1.518   .     S
C98    C101    1.415   .     A
C99    C102    1.424   .     A
C99    C113    1.520   .     S
C100   O172    1.296   .     A
C100   C103    1.458   .     S
C100   O170    1.296   .     A
C101   C114    1.519   .     S
C101   C103    1.421   .     A
C102   C104    1.412   .     A
C103   C105    1.411   .     A
C104   C115    1.503   .     S
C104   C106    1.389   .     A
C105   C107    1.390   .     A
C105   C116    1.511   .     S
C106   C108    1.392   .     A
C106   H151    1.085   .     S
C107   C109    1.395   .     A
C107   H161    1.085   .     S
C108   C373    1.466   1_545 S
C109   C372    1.466   .     S
C110   H131    1.110   .     S
C110   H133    1.110   .     S
C110   H396    1.108   1_545 S
C111   C122    1.416   .     A
C111   H162    1.082   .     S
C112   H135    1.108   .     S
C112   H136    1.107   .     S
C112   H398    1.110   .     S
C113   H138    1.106   .     S
C113   H139    1.110   .     S
C113   H137    1.110   .     S
C114   H143    1.110   .     S
C114   H142    1.110   .     S
C114   H141    1.107   .     S
C115   H145    1.111   .     S
C115   H144    1.107   .     S
C115   H146    1.110   .     S
C116   H149    1.111   .     S
C116   H148    1.109   .     S
C116   H147    1.111   .     S
C117   C124    1.507   .     S
C117   H155    1.091   .     S
C117   C118    1.530   .     S
C117   H154    1.112   .     S
C118   H152    1.111   .     S
C118   H150    1.110   .     S
C118   H153    1.110   .     S
C119   H159    1.100   .     S
C119   C125    1.527   .     S
C119   C120    1.531   .     S
C119   H160    1.113   .     S
C120   H156    1.111   .     S
C120   H158    1.111   .     S
C120   H157    1.106   .     S
C121   H163    1.082   .     S
C121   C123    1.417   .     A
C122   N167    1.368   .     A
C122   H164    1.081   .     S
C123   N168    1.370   .     A
C123   H165    1.081   .     S
C124   N167    1.391   .     A
C124   C126    1.409   .     A
C125   N168    1.400   .     A
C126   H166    1.083   .     S
Cu127  O172    1.959   .     S
Cu127  O176    1.953   .     S
Cu127  O169    1.944   .     S
Cu127  Cu128   2.693   .     S
Cu127  O173    1.945   .     S
Cu127  N168    2.023   .     S
Cu128  O175    1.953   .     S
Cu128  O174    1.945   .     S
Cu128  O171    1.959   .     S
Cu128  O170    1.944   .     S
Cu128  N167    2.023   .     S
H129   C183    1.086   .     S
H132   C374    1.108   .     S
H134   C376    1.110   1_545 S
C177   O257    1.295   .     A
C177   O259    1.304   .     A
C177   C190    1.473   .     S
C178   C180    1.387   .     A
C178   C213    1.411   .     A
C178   H218    1.082   .     S
C179   C199    1.416   .     A
C179   C214    1.390   .     A
C179   C708    1.519   1_554 S
C180   C209    1.413   .     A
C180   C707    1.519   .     S
C181   O261    1.287   .     A
C181   C183    1.434   .     S
C181   O263    1.297   .     A
C182   O264    1.297   .     A
C182   C184    1.434   .     S
C182   O262    1.287   .     A
C184   C7      1.340   1_655 S
C184   H52     1.087   1_655 S
C185   C198    1.517   .     S
C185   C196    1.412   .     A
C185   C187    1.417   .     A
C186   C197    1.412   .     A
C186   C200    1.518   .     S
C186   C189    1.415   .     A
C187   C190    1.424   .     A
C187   C201    1.520   .     S
C188   O260    1.296   .     A
C188   C191    1.458   .     S
C188   O258    1.296   .     A
C189   C202    1.519   .     S
C189   C191    1.421   .     A
C190   C192    1.412   .     A
C191   C193    1.411   .     A
C192   C203    1.503   .     S
C192   C194    1.389   .     A
C193   C195    1.390   .     A
C193   C204    1.511   .     S
C194   C196    1.392   .     A
C194   H239    1.085   .     S
C195   C197    1.395   .     A
C195   H249    1.085   .     S
C196   C461    1.466   1_545 S
C197   C460    1.466   .     S
C198   H219    1.110   .     S
C198   H221    1.110   .     S
C198   H484    1.108   1_545 S
C199   C210    1.416   .     A
C199   H250    1.082   .     S
C200   H223    1.108   .     S
C200   H224    1.107   .     S
C200   H486    1.110   .     S
C201   H226    1.106   .     S
C201   H227    1.110   .     S
C201   H225    1.110   .     S
C202   H231    1.110   .     S
C202   H230    1.110   .     S
C202   H229    1.107   .     S
C203   H233    1.111   .     S
C203   H232    1.107   .     S
C203   H234    1.110   .     S
C204   H237    1.111   .     S
C204   H236    1.109   .     S
C204   H235    1.111   .     S
C205   C212    1.507   .     S
C205   H243    1.091   .     S
C205   C206    1.530   .     S
C205   H242    1.112   .     S
C206   H240    1.111   .     S
C206   H238    1.110   .     S
C206   H241    1.110   .     S
C207   H247    1.100   .     S
C207   C213    1.527   .     S
C207   C208    1.531   .     S
C207   H248    1.113   .     S
C208   H244    1.111   .     S
C208   H246    1.111   .     S
C208   H245    1.106   .     S
C209   H251    1.082   .     S
C209   C211    1.417   .     A
C210   N255    1.368   .     A
C210   H252    1.081   .     S
C211   N256    1.370   .     A
C211   H253    1.081   .     S
C212   N255    1.391   .     A
C212   C214    1.409   .     A
C213   N256    1.400   .     A
C214   H254    1.083   .     S
Cu215  O260    1.959   .     S
Cu215  O264    1.953   .     S
Cu215  O257    1.944   .     S
Cu215  Cu216   2.693   .     S
Cu215  O261    1.945   .     S
Cu215  N256    2.023   .     S
Cu216  O263    1.953   .     S
Cu216  O262    1.945   .     S
Cu216  O259    1.959   .     S
Cu216  O258    1.944   .     S
Cu216  N255    2.023   .     S
H217   C7      1.086   1_655 S
H220   C462    1.108   .     S
H222   C464    1.110   1_545 S
C265   O345    1.295   .     A
C265   O347    1.304   .     A
C265   C278    1.473   .     S
C266   C268    1.387   .     A
C266   C301    1.411   .     A
C266   H306    1.082   .     S
C267   C287    1.416   .     A
C267   C302    1.390   .     A
C267   C796    1.519   1_554 S
C268   C297    1.413   .     A
C268   C795    1.519   .     S
C269   O349    1.287   .     A
C269   C271    1.434   .     S
C269   O351    1.297   .     A
C270   O352    1.297   .     A
C270   C272    1.434   .     S
C270   O350    1.287   .     A
C271   C448    1.340   1_455 S
C271   H481    1.086   1_455 S
C272   C359    1.340   .     S
C272   H404    1.087   .     S
C273   C286    1.517   .     S
C273   C284    1.412   .     A
C273   C275    1.417   .     A
C274   C285    1.412   .     A
C274   C288    1.518   .     S
C274   C277    1.415   .     A
C275   C278    1.424   .     A
C275   C289    1.520   .     S
C276   O348    1.296   .     A
C276   C279    1.458   .     S
C276   O346    1.296   .     A
C277   C290    1.519   .     S
C277   C279    1.421   .     A
C278   C280    1.412   .     A
C279   C281    1.411   .     A
C280   C291    1.503   .     S
C280   C282    1.389   .     A
C281   C283    1.390   .     A
C281   C292    1.511   .     S
C282   C284    1.392   .     A
C282   H327    1.085   .     S
C283   C285    1.395   .     A
C283   H337    1.085   .     S
C285   C20     1.466   1_565 S
C286   H307    1.110   .     S
C286   H309    1.110   .     S
C287   C298    1.416   .     A
C287   H338    1.082   .     S
C288   H311    1.108   .     S
C288   H312    1.107   .     S
C288   H46     1.110   1_565 S
C289   H314    1.106   .     S
C289   H315    1.110   .     S
C289   H313    1.110   .     S
C290   H319    1.110   .     S
C290   H318    1.110   .     S
C290   H317    1.107   .     S
C291   H321    1.111   .     S
C291   H320    1.107   .     S
C291   H322    1.110   .     S
C292   H325    1.111   .     S
C292   H324    1.109   .     S
C292   H323    1.111   .     S
C293   C300    1.507   .     S
C293   H331    1.091   .     S
C293   C294    1.530   .     S
C293   H330    1.112   .     S
C294   H328    1.111   .     S
C294   H326    1.110   .     S
C294   H329    1.110   .     S
C295   H335    1.100   .     S
C295   C301    1.527   .     S
C295   C296    1.531   .     S
C295   H336    1.113   .     S
C296   H332    1.111   .     S
C296   H334    1.111   .     S
C296   H333    1.106   .     S
C297   H339    1.082   .     S
C297   C299    1.417   .     A
C298   N343    1.368   .     A
C298   H340    1.081   .     S
C299   N344    1.370   .     A
C299   H341    1.081   .     S
C300   N343    1.391   .     A
C300   C302    1.409   .     A
C301   N344    1.400   .     A
C302   H342    1.083   .     S
Cu303  O348    1.959   .     S
Cu303  O352    1.953   .     S
Cu303  O345    1.944   .     S
Cu303  Cu304   2.693   .     S
Cu303  O349    1.945   .     S
Cu303  N344    2.023   .     S
Cu304  O351    1.953   .     S
Cu304  O350    1.945   .     S
Cu304  O347    1.959   .     S
Cu304  O346    1.944   .     S
Cu304  N343    2.023   .     S
H305   C359    1.086   .     S
H308   C22     1.108   1_565 S
H316   C448    1.087   1_455 S
C353   O433    1.295   .     A
C353   O435    1.304   .     A
C353   C366    1.473   .     S
C354   C356    1.387   .     A
C354   C389    1.411   .     A
C354   H394    1.082   .     S
C355   C375    1.416   .     A
C355   C390    1.390   .     A
C355   C884    1.519   1_554 S
C356   C385    1.413   .     A
C356   C883    1.519   .     S
C357   O437    1.287   .     A
C357   C359    1.434   .     S
C357   O439    1.297   .     A
C358   O440    1.297   .     A
C358   C360    1.434   .     S
C358   O438    1.287   .     A
C360   C447    1.340   .     S
C360   H492    1.087   .     S
C361   C374    1.517   .     S
C361   C372    1.412   .     A
C361   C363    1.417   .     A
C362   C373    1.412   .     A
C362   C376    1.518   .     S
C362   C365    1.415   .     A
C363   C366    1.424   .     A
C363   C377    1.520   .     S
C364   O436    1.296   .     A
C364   C367    1.458   .     S
C364   O434    1.296   .     A
C365   C378    1.519   .     S
C365   C367    1.421   .     A
C366   C368    1.412   .     A
C367   C369    1.411   .     A
C368   C379    1.503   .     S
C368   C370    1.389   .     A
C369   C371    1.390   .     A
C369   C380    1.511   .     S
C370   C372    1.392   .     A
C370   H415    1.085   .     S
C371   C373    1.395   .     A
C371   H425    1.085   .     S
C373   C108    1.466   1_565 S
C374   H395    1.110   .     S
C374   H397    1.110   .     S
C375   C386    1.416   .     A
C375   H426    1.082   .     S
C376   H399    1.108   .     S
C376   H400    1.107   .     S
C376   H134    1.110   1_565 S
C377   H402    1.106   .     S
C377   H403    1.110   .     S
C377   H401    1.110   .     S
C378   H407    1.110   .     S
C378   H406    1.110   .     S
C378   H405    1.107   .     S
C379   H409    1.111   .     S
C379   H408    1.107   .     S
C379   H410    1.110   .     S
C380   H413    1.111   .     S
C380   H412    1.109   .     S
C380   H411    1.111   .     S
C381   C388    1.507   .     S
C381   H419    1.091   .     S
C381   C382    1.530   .     S
C381   H418    1.112   .     S
C382   H416    1.111   .     S
C382   H414    1.110   .     S
C382   H417    1.110   .     S
C383   H423    1.100   .     S
C383   C389    1.527   .     S
C383   C384    1.531   .     S
C383   H424    1.113   .     S
C384   H420    1.111   .     S
C384   H422    1.111   .     S
C384   H421    1.106   .     S
C385   H427    1.082   .     S
C385   C387    1.417   .     A
C386   N431    1.368   .     A
C386   H428    1.081   .     S
C387   N432    1.370   .     A
C387   H429    1.081   .     S
C388   N431    1.391   .     A
C388   C390    1.409   .     A
C389   N432    1.400   .     A
C390   H430    1.083   .     S
Cu391  O436    1.959   .     S
Cu391  O440    1.953   .     S
Cu391  O433    1.944   .     S
Cu391  Cu392   2.693   .     S
Cu391  O437    1.945   .     S
Cu391  N432    2.023   .     S
Cu392  O439    1.953   .     S
Cu392  O438    1.945   .     S
Cu392  O435    1.959   .     S
Cu392  O434    1.944   .     S
Cu392  N431    2.023   .     S
H393   C447    1.086   .     S
H396   C110    1.108   1_565 S
C441   O521    1.295   .     A
C441   O523    1.304   .     A
C441   C454    1.473   .     S
C442   C444    1.387   .     A
C442   C477    1.411   .     A
C442   H482    1.082   .     S
C443   C463    1.416   .     A
C443   C478    1.390   .     A
C443   C972    1.519   1_554 S
C444   C473    1.413   .     A
C444   C971    1.519   .     S
C445   O525    1.287   .     A
C445   C447    1.434   .     S
C445   O527    1.297   .     A
C446   O528    1.297   .     A
C446   C448    1.434   .     S
C446   O526    1.287   .     A
C448   C271    1.340   1_655 S
C448   H316    1.087   1_655 S
C449   C462    1.517   .     S
C449   C460    1.412   .     A
C449   C451    1.417   .     A
C450   C461    1.412   .     A
C450   C464    1.518   .     S
C450   C453    1.415   .     A
C451   C454    1.424   .     A
C451   C465    1.520   .     S
C452   O524    1.296   .     A
C452   C455    1.458   .     S
C452   O522    1.296   .     A
C453   C466    1.519   .     S
C453   C455    1.421   .     A
C454   C456    1.412   .     A
C455   C457    1.411   .     A
C456   C467    1.503   .     S
C456   C458    1.389   .     A
C457   C459    1.390   .     A
C457   C468    1.511   .     S
C458   C460    1.392   .     A
C458   H503    1.085   .     S
C459   C461    1.395   .     A
C459   H513    1.085   .     S
C461   C196    1.466   1_565 S
C462   H483    1.110   .     S
C462   H485    1.110   .     S
C463   C474    1.416   .     A
C463   H514    1.082   .     S
C464   H487    1.108   .     S
C464   H488    1.107   .     S
C464   H222    1.110   1_565 S
C465   H490    1.106   .     S
C465   H491    1.110   .     S
C465   H489    1.110   .     S
C466   H495    1.110   .     S
C466   H494    1.110   .     S
C466   H493    1.107   .     S
C467   H497    1.111   .     S
C467   H496    1.107   .     S
C467   H498    1.110   .     S
C468   H501    1.111   .     S
C468   H500    1.109   .     S
C468   H499    1.111   .     S
C469   C476    1.507   .     S
C469   H507    1.091   .     S
C469   C470    1.530   .     S
C469   H506    1.112   .     S
C470   H504    1.111   .     S
C470   H502    1.110   .     S
C470   H505    1.110   .     S
C471   H511    1.100   .     S
C471   C477    1.527   .     S
C471   C472    1.531   .     S
C471   H512    1.113   .     S
C472   H508    1.111   .     S
C472   H510    1.111   .     S
C472   H509    1.106   .     S
C473   H515    1.082   .     S
C473   C475    1.417   .     A
C474   N519    1.368   .     A
C474   H516    1.081   .     S
C475   N520    1.370   .     A
C475   H517    1.081   .     S
C476   N519    1.391   .     A
C476   C478    1.409   .     A
C477   N520    1.400   .     A
C478   H518    1.083   .     S
Cu479  O524    1.959   .     S
Cu479  O528    1.953   .     S
Cu479  O521    1.944   .     S
Cu479  Cu480   2.693   .     S
Cu479  O525    1.945   .     S
Cu479  N520    2.023   .     S
Cu480  O527    1.953   .     S
Cu480  O526    1.945   .     S
Cu480  O523    1.959   .     S
Cu480  O522    1.944   .     S
Cu480  N519    2.023   .     S
H481   C271    1.086   1_655 S
H484   C198    1.108   1_565 S
C529   O609    1.295   .     A
C529   O611    1.304   .     A
C529   C542    1.473   .     S
C530   C532    1.387   .     A
C530   C565    1.411   .     A
C530   H570    1.082   .     S
C531   C551    1.416   .     A
C531   C566    1.390   .     A
C532   C561    1.413   .     A
C532   C3      1.519   1_556 S
C533   O613    1.287   .     A
C533   C535    1.434   .     S
C533   O615    1.297   .     A
C534   O616    1.297   .     A
C534   C536    1.434   .     S
C534   O614    1.287   .     A
C535   C712    1.340   1_455 S
C535   H745    1.086   1_455 S
C536   C623    1.340   .     S
C536   H668    1.087   .     S
C537   C550    1.517   .     S
C537   C548    1.412   .     A
C537   C539    1.417   .     A
C538   C549    1.412   .     A
C538   C552    1.518   .     S
C538   C541    1.415   .     A
C539   C542    1.424   .     A
C539   C553    1.520   .     S
C540   O612    1.296   .     A
C540   C543    1.458   .     S
C540   O610    1.296   .     A
C541   C554    1.519   .     S
C541   C543    1.421   .     A
C542   C544    1.412   .     A
C543   C545    1.411   .     A
C544   C555    1.503   .     S
C544   C546    1.389   .     A
C545   C547    1.390   .     A
C545   C556    1.511   .     S
C546   C548    1.392   .     A
C546   H591    1.085   .     S
C547   C549    1.395   .     A
C547   H601    1.085   .     S
C548   C813    1.466   1_545 S
C549   C812    1.466   .     S
C550   H571    1.110   .     S
C550   H573    1.110   .     S
C550   H836    1.108   1_545 S
C551   C562    1.416   .     A
C551   H602    1.082   .     S
C552   H575    1.108   .     S
C552   H576    1.107   .     S
C552   H838    1.110   .     S
C553   H578    1.106   .     S
C553   H579    1.110   .     S
C553   H577    1.110   .     S
C554   H583    1.110   .     S
C554   H582    1.110   .     S
C554   H581    1.107   .     S
C555   H585    1.111   .     S
C555   H584    1.107   .     S
C555   H586    1.110   .     S
C556   H589    1.111   .     S
C556   H588    1.109   .     S
C556   H587    1.111   .     S
C557   C564    1.507   .     S
C557   H595    1.091   .     S
C557   C558    1.530   .     S
C557   H594    1.112   .     S
C558   H592    1.111   .     S
C558   H590    1.110   .     S
C558   H593    1.110   .     S
C559   H599    1.100   .     S
C559   C565    1.527   .     S
C559   C560    1.531   .     S
C559   H600    1.113   .     S
C560   H596    1.111   .     S
C560   H598    1.111   .     S
C560   H597    1.106   .     S
C561   H603    1.082   .     S
C561   C563    1.417   .     A
C562   N607    1.368   .     A
C562   H604    1.081   .     S
C563   N608    1.370   .     A
C563   H605    1.081   .     S
C564   N607    1.391   .     A
C564   C566    1.409   .     A
C565   N608    1.400   .     A
C566   H606    1.083   .     S
Cu567  O612    1.959   .     S
Cu567  O616    1.953   .     S
Cu567  O609    1.944   .     S
Cu567  Cu568   2.693   .     S
Cu567  O613    1.945   .     S
Cu567  N608    2.023   .     S
Cu568  O615    1.953   .     S
Cu568  O614    1.945   .     S
Cu568  O611    1.959   .     S
Cu568  O610    1.944   .     S
Cu568  N607    2.023   .     S
H569   C623    1.086   .     S
H572   C814    1.108   .     S
H574   C816    1.110   1_545 S
H580   C712    1.087   1_455 S
C617   O697    1.295   .     A
C617   O699    1.304   .     A
C617   C630    1.473   .     S
C618   C620    1.387   .     A
C618   C653    1.411   .     A
C618   H658    1.082   .     S
C619   C639    1.416   .     A
C619   C654    1.390   .     A
C620   C649    1.413   .     A
C620   C91     1.519   1_556 S
C621   O701    1.287   .     A
C621   C623    1.434   .     S
C621   O703    1.297   .     A
C622   O704    1.297   .     A
C622   C624    1.434   .     S
C622   O702    1.287   .     A
C624   C711    1.340   .     S
C624   H756    1.087   .     S
C625   C638    1.517   .     S
C625   C636    1.412   .     A
C625   C627    1.417   .     A
C626   C637    1.412   .     A
C626   C640    1.518   .     S
C626   C629    1.415   .     A
C627   C630    1.424   .     A
C627   C641    1.520   .     S
C628   O700    1.296   .     A
C628   C631    1.458   .     S
C628   O698    1.296   .     A
C629   C642    1.519   .     S
C629   C631    1.421   .     A
C630   C632    1.412   .     A
C631   C633    1.411   .     A
C632   C643    1.503   .     S
C632   C634    1.389   .     A
C633   C635    1.390   .     A
C633   C644    1.511   .     S
C634   C636    1.392   .     A
C634   H679    1.085   .     S
C635   C637    1.395   .     A
C635   H689    1.085   .     S
C636   C901    1.466   1_545 S
C637   C900    1.466   .     S
C638   H659    1.110   .     S
C638   H661    1.110   .     S
C638   H924    1.108   1_545 S
C639   C650    1.416   .     A
C639   H690    1.082   .     S
C640   H663    1.108   .     S
C640   H664    1.107   .     S
C640   H926    1.110   .     S
C641   H666    1.106   .     S
C641   H667    1.110   .     S
C641   H665    1.110   .     S
C642   H671    1.110   .     S
C642   H670    1.110   .     S
C642   H669    1.107   .     S
C643   H673    1.111   .     S
C643   H672    1.107   .     S
C643   H674    1.110   .     S
C644   H677    1.111   .     S
C644   H676    1.109   .     S
C644   H675    1.111   .     S
C645   C652    1.507   .     S
C645   H683    1.091   .     S
C645   C646    1.530   .     S
C645   H682    1.112   .     S
C646   H680    1.111   .     S
C646   H678    1.110   .     S
C646   H681    1.110   .     S
C647   H687    1.100   .     S
C647   C653    1.527   .     S
C647   C648    1.531   .     S
C647   H688    1.113   .     S
C648   H684    1.111   .     S
C648   H686    1.111   .     S
C648   H685    1.106   .     S
C649   H691    1.082   .     S
C649   C651    1.417   .     A
C650   N695    1.368   .     A
C650   H692    1.081   .     S
C651   N696    1.370   .     A
C651   H693    1.081   .     S
C652   N695    1.391   .     A
C652   C654    1.409   .     A
C653   N696    1.400   .     A
C654   H694    1.083   .     S
Cu655  O700    1.959   .     S
Cu655  O704    1.953   .     S
Cu655  O697    1.944   .     S
Cu655  Cu656   2.693   .     S
Cu655  O701    1.945   .     S
Cu655  N696    2.023   .     S
Cu656  O703    1.953   .     S
Cu656  O702    1.945   .     S
Cu656  O699    1.959   .     S
Cu656  O698    1.944   .     S
Cu656  N695    2.023   .     S
H657   C711    1.086   .     S
H660   C902    1.108   .     S
H662   C904    1.110   1_545 S
C705   O785    1.295   .     A
C705   O787    1.304   .     A
C705   C718    1.473   .     S
C706   C708    1.387   .     A
C706   C741    1.411   .     A
C706   H746    1.082   .     S
C707   C727    1.416   .     A
C707   C742    1.390   .     A
C708   C737    1.413   .     A
C708   C179    1.519   1_556 S
C709   O789    1.287   .     A
C709   C711    1.434   .     S
C709   O791    1.297   .     A
C710   O792    1.297   .     A
C710   C712    1.434   .     S
C710   O790    1.287   .     A
C712   C535    1.340   1_655 S
C712   H580    1.087   1_655 S
C713   C726    1.517   .     S
C713   C724    1.412   .     A
C713   C715    1.417   .     A
C714   C725    1.412   .     A
C714   C728    1.518   .     S
C714   C717    1.415   .     A
C715   C718    1.424   .     A
C715   C729    1.520   .     S
C716   O788    1.296   .     A
C716   C719    1.458   .     S
C716   O786    1.296   .     A
C717   C730    1.519   .     S
C717   C719    1.421   .     A
C718   C720    1.412   .     A
C719   C721    1.411   .     A
C720   C731    1.503   .     S
C720   C722    1.389   .     A
C721   C723    1.390   .     A
C721   C732    1.511   .     S
C722   C724    1.392   .     A
C722   H767    1.085   .     S
C723   C725    1.395   .     A
C723   H777    1.085   .     S
C724   C989    1.466   1_545 S
C725   C988    1.466   .     S
C726   H747    1.110   .     S
C726   H749    1.110   .     S
C726   H1012   1.108   1_545 S
C727   C738    1.416   .     A
C727   H778    1.082   .     S
C728   H751    1.108   .     S
C728   H752    1.107   .     S
C728   H1014   1.110   .     S
C729   H754    1.106   .     S
C729   H755    1.110   .     S
C729   H753    1.110   .     S
C730   H759    1.110   .     S
C730   H758    1.110   .     S
C730   H757    1.107   .     S
C731   H761    1.111   .     S
C731   H760    1.107   .     S
C731   H762    1.110   .     S
C732   H765    1.111   .     S
C732   H764    1.109   .     S
C732   H763    1.111   .     S
C733   C740    1.507   .     S
C733   H771    1.091   .     S
C733   C734    1.530   .     S
C733   H770    1.112   .     S
C734   H768    1.111   .     S
C734   H766    1.110   .     S
C734   H769    1.110   .     S
C735   H775    1.100   .     S
C735   C741    1.527   .     S
C735   C736    1.531   .     S
C735   H776    1.113   .     S
C736   H772    1.111   .     S
C736   H774    1.111   .     S
C736   H773    1.106   .     S
C737   H779    1.082   .     S
C737   C739    1.417   .     A
C738   N783    1.368   .     A
C738   H780    1.081   .     S
C739   N784    1.370   .     A
C739   H781    1.081   .     S
C740   N783    1.391   .     A
C740   C742    1.409   .     A
C741   N784    1.400   .     A
C742   H782    1.083   .     S
Cu743  O788    1.959   .     S
Cu743  O792    1.953   .     S
Cu743  O785    1.944   .     S
Cu743  Cu744   2.693   .     S
Cu743  O789    1.945   .     S
Cu743  N784    2.023   .     S
Cu744  O791    1.953   .     S
Cu744  O790    1.945   .     S
Cu744  O787    1.959   .     S
Cu744  O786    1.944   .     S
Cu744  N783    2.023   .     S
H745   C535    1.086   1_655 S
H748   C990    1.108   .     S
H750   C992    1.110   1_545 S
C793   O873    1.295   .     A
C793   O875    1.304   .     A
C793   C806    1.473   .     S
C794   C796    1.387   .     A
C794   C829    1.411   .     A
C794   H834    1.082   .     S
C795   C815    1.416   .     A
C795   C830    1.390   .     A
C796   C825    1.413   .     A
C796   C267    1.519   1_556 S
C797   O877    1.287   .     A
C797   C799    1.434   .     S
C797   O879    1.297   .     A
C798   O880    1.297   .     A
C798   C800    1.434   .     S
C798   O878    1.287   .     A
C799   C976    1.340   1_455 S
C799   H1009   1.086   1_455 S
C800   C887    1.340   .     S
C800   H932    1.087   .     S
C801   C814    1.517   .     S
C801   C812    1.412   .     A
C801   C803    1.417   .     A
C802   C813    1.412   .     A
C802   C816    1.518   .     S
C802   C805    1.415   .     A
C803   C806    1.424   .     A
C803   C817    1.520   .     S
C804   O876    1.296   .     A
C804   C807    1.458   .     S
C804   O874    1.296   .     A
C805   C818    1.519   .     S
C805   C807    1.421   .     A
C806   C808    1.412   .     A
C807   C809    1.411   .     A
C808   C819    1.503   .     S
C808   C810    1.389   .     A
C809   C811    1.390   .     A
C809   C820    1.511   .     S
C810   C812    1.392   .     A
C810   H855    1.085   .     S
C811   C813    1.395   .     A
C811   H865    1.085   .     S
C813   C548    1.466   1_565 S
C814   H835    1.110   .     S
C814   H837    1.110   .     S
C815   C826    1.416   .     A
C815   H866    1.082   .     S
C816   H839    1.108   .     S
C816   H840    1.107   .     S
C816   H574    1.110   1_565 S
C817   H842    1.106   .     S
C817   H843    1.110   .     S
C817   H841    1.110   .     S
C818   H847    1.110   .     S
C818   H846    1.110   .     S
C818   H845    1.107   .     S
C819   H849    1.111   .     S
C819   H848    1.107   .     S
C819   H850    1.110   .     S
C820   H853    1.111   .     S
C820   H852    1.109   .     S
C820   H851    1.111   .     S
C821   C828    1.507   .     S
C821   H859    1.091   .     S
C821   C822    1.530   .     S
C821   H858    1.112   .     S
C822   H856    1.111   .     S
C822   H854    1.110   .     S
C822   H857    1.110   .     S
C823   H863    1.100   .     S
C823   C829    1.527   .     S
C823   C824    1.531   .     S
C823   H864    1.113   .     S
C824   H860    1.111   .     S
C824   H862    1.111   .     S
C824   H861    1.106   .     S
C825   H867    1.082   .     S
C825   C827    1.417   .     A
C826   N871    1.368   .     A
C826   H868    1.081   .     S
C827   N872    1.370   .     A
C827   H869    1.081   .     S
C828   N871    1.391   .     A
C828   C830    1.409   .     A
C829   N872    1.400   .     A
C830   H870    1.083   .     S
Cu831  O876    1.959   .     S
Cu831  O880    1.953   .     S
Cu831  O873    1.944   .     S
Cu831  Cu832   2.693   .     S
Cu831  O877    1.945   .     S
Cu831  N872    2.023   .     S
Cu832  O879    1.953   .     S
Cu832  O878    1.945   .     S
Cu832  O875    1.959   .     S
Cu832  O874    1.944   .     S
Cu832  N871    2.023   .     S
H833   C887    1.086   .     S
H836   C550    1.108   1_565 S
H844   C976    1.087   1_455 S
C881   O961    1.295   .     A
C881   O963    1.304   .     A
C881   C894    1.473   .     S
C882   C884    1.387   .     A
C882   C917    1.411   .     A
C882   H922    1.082   .     S
C883   C903    1.416   .     A
C883   C918    1.390   .     A
C884   C913    1.413   .     A
C884   C355    1.519   1_556 S
C885   O965    1.287   .     A
C885   C887    1.434   .     S
C885   O967    1.297   .     A
C886   O968    1.297   .     A
C886   C888    1.434   .     S
C886   O966    1.287   .     A
C888   C975    1.340   .     S
C888   H1020   1.087   .     S
C889   C902    1.517   .     S
C889   C900    1.412   .     A
C889   C891    1.417   .     A
C890   C901    1.412   .     A
C890   C904    1.518   .     S
C890   C893    1.415   .     A
C891   C894    1.424   .     A
C891   C905    1.520   .     S
C892   O964    1.296   .     A
C892   C895    1.458   .     S
C892   O962    1.296   .     A
C893   C906    1.519   .     S
C893   C895    1.421   .     A
C894   C896    1.412   .     A
C895   C897    1.411   .     A
C896   C907    1.503   .     S
C896   C898    1.389   .     A
C897   C899    1.390   .     A
C897   C908    1.511   .     S
C898   C900    1.392   .     A
C898   H943    1.085   .     S
C899   C901    1.395   .     A
C899   H953    1.085   .     S
C901   C636    1.466   1_565 S
C902   H923    1.110   .     S
C902   H925    1.110   .     S
C903   C914    1.416   .     A
C903   H954    1.082   .     S
C904   H927    1.108   .     S
C904   H928    1.107   .     S
C904   H662    1.110   1_565 S
C905   H930    1.106   .     S
C905   H931    1.110   .     S
C905   H929    1.110   .     S
C906   H935    1.110   .     S
C906   H934    1.110   .     S
C906   H933    1.107   .     S
C907   H937    1.111   .     S
C907   H936    1.107   .     S
C907   H938    1.110   .     S
C908   H941    1.111   .     S
C908   H940    1.109   .     S
C908   H939    1.111   .     S
C909   C916    1.507   .     S
C909   H947    1.091   .     S
C909   C910    1.530   .     S
C909   H946    1.112   .     S
C910   H944    1.111   .     S
C910   H942    1.110   .     S
C910   H945    1.110   .     S
C911   H951    1.100   .     S
C911   C917    1.527   .     S
C911   C912    1.531   .     S
C911   H952    1.113   .     S
C912   H948    1.111   .     S
C912   H950    1.111   .     S
C912   H949    1.106   .     S
C913   H955    1.082   .     S
C913   C915    1.417   .     A
C914   N959    1.368   .     A
C914   H956    1.081   .     S
C915   N960    1.370   .     A
C915   H957    1.081   .     S
C916   N959    1.391   .     A
C916   C918    1.409   .     A
C917   N960    1.400   .     A
C918   H958    1.083   .     S
Cu919  O964    1.959   .     S
Cu919  O968    1.953   .     S
Cu919  O961    1.944   .     S
Cu919  Cu920   2.693   .     S
Cu919  O965    1.945   .     S
Cu919  N960    2.023   .     S
Cu920  O967    1.953   .     S
Cu920  O966    1.945   .     S
Cu920  O963    1.959   .     S
Cu920  O962    1.944   .     S
Cu920  N959    2.023   .     S
H921   C975    1.086   .     S
H924   C638    1.108   1_565 S
C969   O1049   1.295   .     A
C969   O1051   1.304   .     A
C969   C982    1.473   .     S
C970   C972    1.387   .     A
C970   C1005   1.411   .     A
C970   H1010   1.082   .     S
C971   C991    1.416   .     A
C971   C1006   1.390   .     A
C972   C1001   1.413   .     A
C972   C443    1.519   1_556 S
C973   O1053   1.287   .     A
C973   C975    1.434   .     S
C973   O1055   1.297   .     A
C974   O1056   1.297   .     A
C974   C976    1.434   .     S
C974   O1054   1.287   .     A
C976   C799    1.340   1_655 S
C976   H844    1.087   1_655 S
C977   C990    1.517   .     S
C977   C988    1.412   .     A
C977   C979    1.417   .     A
C978   C989    1.412   .     A
C978   C992    1.518   .     S
C978   C981    1.415   .     A
C979   C982    1.424   .     A
C979   C993    1.520   .     S
C980   O1052   1.296   .     A
C980   C983    1.458   .     S
C980   O1050   1.296   .     A
C981   C994    1.519   .     S
C981   C983    1.421   .     A
C982   C984    1.412   .     A
C983   C985    1.411   .     A
C984   C995    1.503   .     S
C984   C986    1.389   .     A
C985   C987    1.390   .     A
C985   C996    1.511   .     S
C986   C988    1.392   .     A
C986   H1031   1.085   .     S
C987   C989    1.395   .     A
C987   H1041   1.085   .     S
C989   C724    1.466   1_565 S
C990   H1011   1.110   .     S
C990   H1013   1.110   .     S
C991   C1002   1.416   .     A
C991   H1042   1.082   .     S
C992   H1015   1.108   .     S
C992   H1016   1.107   .     S
C992   H750    1.110   1_565 S
C993   H1018   1.106   .     S
C993   H1019   1.110   .     S
C993   H1017   1.110   .     S
C994   H1023   1.110   .     S
C994   H1022   1.110   .     S
C994   H1021   1.107   .     S
C995   H1025   1.111   .     S
C995   H1024   1.107   .     S
C995   H1026   1.110   .     S
C996   H1029   1.111   .     S
C996   H1028   1.109   .     S
C996   H1027   1.111   .     S
C997   C1004   1.507   .     S
C997   H1035   1.091   .     S
C997   C998    1.530   .     S
C997   H1034   1.112   .     S
C998   H1032   1.111   .     S
C998   H1030   1.110   .     S
C998   H1033   1.110   .     S
C999   H1039   1.100   .     S
C999   C1005   1.527   .     S
C999   C1000   1.531   .     S
C999   H1040   1.113   .     S
C1000  H1036   1.111   .     S
C1000  H1038   1.111   .     S
C1000  H1037   1.106   .     S
C1001  H1043   1.082   .     S
C1001  C1003   1.417   .     A
C1002  N1047   1.368   .     A
C1002  H1044   1.081   .     S
C1003  N1048   1.370   .     A
C1003  H1045   1.081   .     S
C1004  N1047   1.391   .     A
C1004  C1006   1.409   .     A
C1005  N1048   1.400   .     A
C1006  H1046   1.083   .     S
Cu1007 O1052   1.959   .     S
Cu1007 O1056   1.953   .     S
Cu1007 O1049   1.944   .     S
Cu1007 Cu1008  2.693   .     S
Cu1007 O1053   1.945   .     S
Cu1007 N1048   2.023   .     S
Cu1008 O1055   1.953   .     S
Cu1008 O1054   1.945   .     S
Cu1008 O1051   1.959   .     S
Cu1008 O1050   1.944   .     S
Cu1008 N1047   2.023   .     S
H1009  C799    1.086   1_655 S
H1012  C726    1.108   1_565 S
