data_str_m2_o10_o17_pcu_sym.114
_audit_creation_date              2020-01-03
_audit_creation_method            'Materials Studio'
_symmetry_space_group_name_H-M    'P1'
_symmetry_Int_Tables_number       1
_symmetry_cell_setting            triclinic
loop_
_symmetry_equiv_pos_as_xyz
  x,y,z
_cell_length_a                    29.9961
_cell_length_b                    26.2933
_cell_length_c                    22.8028
_cell_angle_alpha                 103.7023
_cell_angle_beta                  95.5269
_cell_angle_gamma                 95.7100
loop_
_atom_site_label
_atom_site_type_symbol
_atom_site_fract_x
_atom_site_fract_y
_atom_site_fract_z
_atom_site_U_iso_or_equiv
_atom_site_adp_type
_atom_site_occupancy
C1     C     0.24771   0.06664   0.15099   0.00000  Uiso   1.00
C2     C     0.25226   0.26670   0.18234   0.00000  Uiso   1.00
C3     C     0.01192   0.09032   0.07989   0.00000  Uiso   1.00
C4     C     0.48826   0.23907   0.25629   0.00000  Uiso   1.00
C5     C     0.24209   0.01000   0.14338   0.00000  Uiso   1.00
C6     C     0.25786   0.32333   0.18996   0.00000  Uiso   1.00
C7     C     0.16473   0.16715   0.16676   0.00000  Uiso   1.00
C8     C     0.33527   0.16572   0.16651   0.00000  Uiso   1.00
C9     C     0.41280   0.20046   0.21134   0.00000  Uiso   1.00
C10    C     0.08735   0.13004   0.12370   0.00000  Uiso   1.00
C11    C     0.38344   0.16397   0.16626   0.00000  Uiso   1.00
C12    C     0.11658   0.16820   0.16708   0.00000  Uiso   1.00
C13    C     0.39980   0.12709   0.12067   0.00000  Uiso   1.00
C14    C     0.10018   0.20738   0.20985   0.00000  Uiso   1.00
C15    C     0.44695   0.12697   0.12108   0.00000  Uiso   1.00
C16    C     0.05307   0.20594   0.21110   0.00000  Uiso   1.00
C17    C     0.47650   0.16543   0.16609   0.00000  Uiso   1.00
C18    C     0.02355   0.16704   0.16658   0.00000  Uiso   1.00
C19    C     0.45913   0.20189   0.21129   0.00000  Uiso   1.00
C20    C     0.04099   0.12927   0.12290   0.00000  Uiso   1.00
C21    C     0.46543   0.08885   0.07915   0.00000  Uiso   1.00
C22    C     0.03474   0.24101   0.25647   0.00000  Uiso   1.00
Cu23   Cu    0.25501   0.17246   0.22813   0.00000  Uiso   1.00
Cu24   Cu    0.24500   0.16087   0.10521   0.00000  Uiso   1.00
H25    H     0.39941   0.22874   0.24575   0.00000  Uiso   1.00
H26    H     0.10086   0.10031   0.09110   0.00000  Uiso   1.00
H27    H     0.44461   0.05702   0.04598   0.00000  Uiso   1.00
H28    H     0.05579   0.26951   0.29321   0.00000  Uiso   1.00
H29    H     0.02520   0.06060   0.04693   0.00000  Uiso   1.00
H30    H     0.47504   0.26664   0.29168   0.00000  Uiso   1.00
N31    N     0.23745   0.15214   0.01284   0.00000  Uiso   1.00
N32    N     0.26256   0.18119   0.32049   0.00000  Uiso   1.00
O33    O     0.25326   0.09538   0.20659   0.00000  Uiso   1.00
O34    O     0.24675   0.23796   0.12674   0.00000  Uiso   1.00
O35    O     0.24480   0.08559   0.10279   0.00000  Uiso   1.00
O36    O     0.25520   0.24774   0.23055   0.00000  Uiso   1.00
O37    O     0.18936   0.17155   0.21857   0.00000  Uiso   1.00
O38    O     0.31065   0.16179   0.11476   0.00000  Uiso   1.00
O39    O     0.18090   0.16176   0.11477   0.00000  Uiso   1.00
O40    O     0.31910   0.17157   0.21857   0.00000  Uiso   1.00
O41    O     0.36889   0.09091   0.07843   0.00000  Uiso   1.00
H42    H     0.38047   0.08460   0.03851   0.00000  Uiso   1.00
O43    O     0.13098   0.24635   0.24866   0.00000  Uiso   1.00
H44    H     0.11792   0.28007   0.25541   0.00000  Uiso   1.00
O45    O     0.21823   0.31066   0.09041   0.00000  Uiso   1.00
H46    H     0.20637   0.33216   0.06364   0.00000  Uiso   1.00
O47    O     0.28171   0.02268   0.24294   0.00000  Uiso   1.00
H48    H     0.29354   0.00120   0.26974   0.00000  Uiso   1.00
S49    S     0.18424   0.11941   0.31378   0.00000  Uiso   1.00
O50    O     0.15117   0.15890   0.31504   0.00000  Uiso   1.00
O51    O     0.18273   0.08570   0.25057   0.00000  Uiso   1.00
O52    O     0.16732   0.07824   0.02247   0.00000  Uiso   1.00
H53    H     0.13813   0.05895   0.00049   0.00000  Uiso   1.00
S54    S     0.31562   0.21435   0.01954   0.00000  Uiso   1.00
O55    O     0.31719   0.24777   0.08290   0.00000  Uiso   1.00
O56    O     0.34903   0.17526   0.01785   0.00000  Uiso   1.00
O57    O     0.33206   0.25584   0.31097   0.00000  Uiso   1.00
H58    H     0.36115   0.27541   0.33294   0.00000  Uiso   1.00
C59    C     0.74771   0.06664   0.15099   0.00000  Uiso   1.00
C60    C     0.75226   0.26670   0.18234   0.00000  Uiso   1.00
C61    C     0.51192   0.09032   0.07989   0.00000  Uiso   1.00
C62    C     0.98826   0.23907   0.25629   0.00000  Uiso   1.00
C63    C     0.74209   0.01000   0.14338   0.00000  Uiso   1.00
C64    C     0.75786   0.32333   0.18996   0.00000  Uiso   1.00
C65    C     0.66473   0.16715   0.16676   0.00000  Uiso   1.00
C66    C     0.83527   0.16572   0.16651   0.00000  Uiso   1.00
C67    C     0.91280   0.20046   0.21134   0.00000  Uiso   1.00
C68    C     0.58735   0.13004   0.12370   0.00000  Uiso   1.00
C69    C     0.88344   0.16397   0.16626   0.00000  Uiso   1.00
C70    C     0.61658   0.16820   0.16708   0.00000  Uiso   1.00
C71    C     0.89980   0.12709   0.12067   0.00000  Uiso   1.00
C72    C     0.60018   0.20738   0.20985   0.00000  Uiso   1.00
C73    C     0.94695   0.12697   0.12108   0.00000  Uiso   1.00
C74    C     0.55307   0.20594   0.21110   0.00000  Uiso   1.00
C75    C     0.97650   0.16543   0.16609   0.00000  Uiso   1.00
C76    C     0.52355   0.16704   0.16658   0.00000  Uiso   1.00
C77    C     0.95913   0.20189   0.21129   0.00000  Uiso   1.00
C78    C     0.54099   0.12927   0.12290   0.00000  Uiso   1.00
C79    C     0.96543   0.08885   0.07915   0.00000  Uiso   1.00
C80    C     0.53474   0.24101   0.25647   0.00000  Uiso   1.00
Cu81   Cu    0.75501   0.17246   0.22813   0.00000  Uiso   1.00
Cu82   Cu    0.74500   0.16087   0.10521   0.00000  Uiso   1.00
H83    H     0.89941   0.22874   0.24575   0.00000  Uiso   1.00
H84    H     0.60086   0.10031   0.09110   0.00000  Uiso   1.00
H85    H     0.94461   0.05702   0.04598   0.00000  Uiso   1.00
H86    H     0.55579   0.26951   0.29321   0.00000  Uiso   1.00
H87    H     0.52520   0.06060   0.04693   0.00000  Uiso   1.00
H88    H     0.97504   0.26664   0.29168   0.00000  Uiso   1.00
N89    N     0.73745   0.15214   0.01284   0.00000  Uiso   1.00
N90    N     0.76256   0.18119   0.32049   0.00000  Uiso   1.00
O91    O     0.75326   0.09538   0.20659   0.00000  Uiso   1.00
O92    O     0.74675   0.23796   0.12674   0.00000  Uiso   1.00
O93    O     0.74480   0.08559   0.10279   0.00000  Uiso   1.00
O94    O     0.75520   0.24774   0.23055   0.00000  Uiso   1.00
O95    O     0.68936   0.17155   0.21857   0.00000  Uiso   1.00
O96    O     0.81065   0.16179   0.11476   0.00000  Uiso   1.00
O97    O     0.68090   0.16176   0.11477   0.00000  Uiso   1.00
O98    O     0.81910   0.17157   0.21857   0.00000  Uiso   1.00
O99    O     0.86889   0.09091   0.07843   0.00000  Uiso   1.00
H100   H     0.88047   0.08460   0.03851   0.00000  Uiso   1.00
O101   O     0.63098   0.24635   0.24866   0.00000  Uiso   1.00
H102   H     0.61792   0.28007   0.25541   0.00000  Uiso   1.00
O103   O     0.71823   0.31066   0.09041   0.00000  Uiso   1.00
H104   H     0.70637   0.33216   0.06364   0.00000  Uiso   1.00
O105   O     0.78171   0.02268   0.24294   0.00000  Uiso   1.00
H106   H     0.79354   0.00120   0.26974   0.00000  Uiso   1.00
S107   S     0.68424   0.11941   0.31378   0.00000  Uiso   1.00
O108   O     0.65117   0.15890   0.31504   0.00000  Uiso   1.00
O109   O     0.68273   0.08570   0.25057   0.00000  Uiso   1.00
O110   O     0.66732   0.07824   0.02247   0.00000  Uiso   1.00
H111   H     0.63813   0.05895   0.00049   0.00000  Uiso   1.00
S112   S     0.81562   0.21435   0.01954   0.00000  Uiso   1.00
O113   O     0.81719   0.24777   0.08290   0.00000  Uiso   1.00
O114   O     0.84903   0.17526   0.01785   0.00000  Uiso   1.00
O115   O     0.83206   0.25584   0.31097   0.00000  Uiso   1.00
H116   H     0.86115   0.27541   0.33294   0.00000  Uiso   1.00
C117   C     0.24771   0.39997   0.15099   0.00000  Uiso   1.00
C118   C     0.25226   0.60003   0.18234   0.00000  Uiso   1.00
C119   C     0.01192   0.42365   0.07989   0.00000  Uiso   1.00
C120   C     0.48826   0.57240   0.25629   0.00000  Uiso   1.00
C121   C     0.24209   0.34333   0.14338   0.00000  Uiso   1.00
C122   C     0.25786   0.65667   0.18996   0.00000  Uiso   1.00
C123   C     0.16473   0.50048   0.16676   0.00000  Uiso   1.00
C124   C     0.33527   0.49905   0.16651   0.00000  Uiso   1.00
C125   C     0.41280   0.53379   0.21134   0.00000  Uiso   1.00
C126   C     0.08735   0.46337   0.12370   0.00000  Uiso   1.00
C127   C     0.38344   0.49730   0.16626   0.00000  Uiso   1.00
C128   C     0.11658   0.50153   0.16708   0.00000  Uiso   1.00
C129   C     0.39980   0.46042   0.12067   0.00000  Uiso   1.00
C130   C     0.10018   0.54071   0.20985   0.00000  Uiso   1.00
C131   C     0.44695   0.46030   0.12108   0.00000  Uiso   1.00
C132   C     0.05307   0.53928   0.21110   0.00000  Uiso   1.00
C133   C     0.47650   0.49877   0.16609   0.00000  Uiso   1.00
C134   C     0.02355   0.50038   0.16658   0.00000  Uiso   1.00
C135   C     0.45913   0.53522   0.21129   0.00000  Uiso   1.00
C136   C     0.04099   0.46261   0.12290   0.00000  Uiso   1.00
C137   C     0.46543   0.42218   0.07915   0.00000  Uiso   1.00
C138   C     0.03474   0.57434   0.25647   0.00000  Uiso   1.00
Cu139  Cu    0.25501   0.50579   0.22813   0.00000  Uiso   1.00
Cu140  Cu    0.24500   0.49421   0.10521   0.00000  Uiso   1.00
H141   H     0.39941   0.56207   0.24575   0.00000  Uiso   1.00
H142   H     0.10086   0.43364   0.09110   0.00000  Uiso   1.00
H143   H     0.44461   0.39035   0.04598   0.00000  Uiso   1.00
H144   H     0.05579   0.60285   0.29321   0.00000  Uiso   1.00
H145   H     0.02520   0.39393   0.04693   0.00000  Uiso   1.00
H146   H     0.47504   0.59997   0.29168   0.00000  Uiso   1.00
N147   N     0.23745   0.48547   0.01284   0.00000  Uiso   1.00
N148   N     0.26256   0.51453   0.32049   0.00000  Uiso   1.00
O149   O     0.25326   0.42871   0.20659   0.00000  Uiso   1.00
O150   O     0.24675   0.57129   0.12674   0.00000  Uiso   1.00
O151   O     0.24480   0.41892   0.10279   0.00000  Uiso   1.00
O152   O     0.25520   0.58108   0.23055   0.00000  Uiso   1.00
O153   O     0.18936   0.50488   0.21857   0.00000  Uiso   1.00
O154   O     0.31065   0.49512   0.11476   0.00000  Uiso   1.00
O155   O     0.18090   0.49510   0.11477   0.00000  Uiso   1.00
O156   O     0.31910   0.50490   0.21857   0.00000  Uiso   1.00
O157   O     0.36889   0.42424   0.07843   0.00000  Uiso   1.00
H158   H     0.38047   0.41793   0.03851   0.00000  Uiso   1.00
O159   O     0.13098   0.57968   0.24866   0.00000  Uiso   1.00
H160   H     0.11792   0.61340   0.25541   0.00000  Uiso   1.00
O161   O     0.21823   0.64399   0.09041   0.00000  Uiso   1.00
H162   H     0.20637   0.66549   0.06364   0.00000  Uiso   1.00
O163   O     0.28171   0.35602   0.24294   0.00000  Uiso   1.00
H164   H     0.29354   0.33454   0.26974   0.00000  Uiso   1.00
S165   S     0.18424   0.45275   0.31378   0.00000  Uiso   1.00
O166   O     0.15117   0.49223   0.31504   0.00000  Uiso   1.00
O167   O     0.18273   0.41903   0.25057   0.00000  Uiso   1.00
O168   O     0.16732   0.41157   0.02247   0.00000  Uiso   1.00
H169   H     0.13813   0.39229   0.00049   0.00000  Uiso   1.00
S170   S     0.31562   0.54769   0.01954   0.00000  Uiso   1.00
O171   O     0.31719   0.58111   0.08290   0.00000  Uiso   1.00
O172   O     0.34903   0.50860   0.01785   0.00000  Uiso   1.00
O173   O     0.33206   0.58918   0.31097   0.00000  Uiso   1.00
H174   H     0.36115   0.60875   0.33294   0.00000  Uiso   1.00
C175   C     0.74771   0.39997   0.15099   0.00000  Uiso   1.00
C176   C     0.75226   0.60003   0.18234   0.00000  Uiso   1.00
C177   C     0.51192   0.42365   0.07989   0.00000  Uiso   1.00
C178   C     0.98826   0.57240   0.25629   0.00000  Uiso   1.00
C179   C     0.74209   0.34333   0.14338   0.00000  Uiso   1.00
C180   C     0.75786   0.65667   0.18996   0.00000  Uiso   1.00
C181   C     0.66473   0.50048   0.16676   0.00000  Uiso   1.00
C182   C     0.83527   0.49905   0.16651   0.00000  Uiso   1.00
C183   C     0.91280   0.53379   0.21134   0.00000  Uiso   1.00
C184   C     0.58735   0.46337   0.12370   0.00000  Uiso   1.00
C185   C     0.88344   0.49730   0.16626   0.00000  Uiso   1.00
C186   C     0.61658   0.50153   0.16708   0.00000  Uiso   1.00
C187   C     0.89980   0.46042   0.12067   0.00000  Uiso   1.00
C188   C     0.60018   0.54071   0.20985   0.00000  Uiso   1.00
C189   C     0.94695   0.46030   0.12108   0.00000  Uiso   1.00
C190   C     0.55307   0.53928   0.21110   0.00000  Uiso   1.00
C191   C     0.97650   0.49877   0.16609   0.00000  Uiso   1.00
C192   C     0.52355   0.50038   0.16658   0.00000  Uiso   1.00
C193   C     0.95913   0.53522   0.21129   0.00000  Uiso   1.00
C194   C     0.54099   0.46261   0.12290   0.00000  Uiso   1.00
C195   C     0.96543   0.42218   0.07915   0.00000  Uiso   1.00
C196   C     0.53474   0.57434   0.25647   0.00000  Uiso   1.00
Cu197  Cu    0.75501   0.50579   0.22813   0.00000  Uiso   1.00
Cu198  Cu    0.74500   0.49421   0.10521   0.00000  Uiso   1.00
H199   H     0.89941   0.56207   0.24575   0.00000  Uiso   1.00
H200   H     0.60086   0.43364   0.09110   0.00000  Uiso   1.00
H201   H     0.94461   0.39035   0.04598   0.00000  Uiso   1.00
H202   H     0.55579   0.60285   0.29321   0.00000  Uiso   1.00
H203   H     0.52520   0.39393   0.04693   0.00000  Uiso   1.00
H204   H     0.97504   0.59997   0.29168   0.00000  Uiso   1.00
N205   N     0.73745   0.48547   0.01284   0.00000  Uiso   1.00
N206   N     0.76256   0.51453   0.32049   0.00000  Uiso   1.00
O207   O     0.75326   0.42871   0.20659   0.00000  Uiso   1.00
O208   O     0.74675   0.57129   0.12674   0.00000  Uiso   1.00
O209   O     0.74480   0.41892   0.10279   0.00000  Uiso   1.00
O210   O     0.75520   0.58108   0.23055   0.00000  Uiso   1.00
O211   O     0.68936   0.50488   0.21857   0.00000  Uiso   1.00
O212   O     0.81065   0.49512   0.11476   0.00000  Uiso   1.00
O213   O     0.68090   0.49510   0.11477   0.00000  Uiso   1.00
O214   O     0.81910   0.50490   0.21857   0.00000  Uiso   1.00
O215   O     0.86889   0.42424   0.07843   0.00000  Uiso   1.00
H216   H     0.88047   0.41793   0.03851   0.00000  Uiso   1.00
O217   O     0.63098   0.57968   0.24866   0.00000  Uiso   1.00
H218   H     0.61792   0.61340   0.25541   0.00000  Uiso   1.00
O219   O     0.71823   0.64399   0.09041   0.00000  Uiso   1.00
H220   H     0.70637   0.66549   0.06364   0.00000  Uiso   1.00
O221   O     0.78171   0.35602   0.24294   0.00000  Uiso   1.00
H222   H     0.79354   0.33454   0.26974   0.00000  Uiso   1.00
S223   S     0.68424   0.45275   0.31378   0.00000  Uiso   1.00
O224   O     0.65117   0.49223   0.31504   0.00000  Uiso   1.00
O225   O     0.68273   0.41903   0.25057   0.00000  Uiso   1.00
O226   O     0.66732   0.41157   0.02247   0.00000  Uiso   1.00
H227   H     0.63813   0.39229   0.00049   0.00000  Uiso   1.00
S228   S     0.81562   0.54769   0.01954   0.00000  Uiso   1.00
O229   O     0.81719   0.58111   0.08290   0.00000  Uiso   1.00
O230   O     0.84903   0.50860   0.01785   0.00000  Uiso   1.00
O231   O     0.83206   0.58918   0.31097   0.00000  Uiso   1.00
H232   H     0.86115   0.60875   0.33294   0.00000  Uiso   1.00
C233   C     0.24771   0.73330   0.15099   0.00000  Uiso   1.00
C234   C     0.25226   0.93336   0.18234   0.00000  Uiso   1.00
C235   C     0.01192   0.75699   0.07989   0.00000  Uiso   1.00
C236   C     0.48826   0.90574   0.25629   0.00000  Uiso   1.00
C237   C     0.24209   0.67667   0.14338   0.00000  Uiso   1.00
C238   C     0.25786   0.99000   0.18996   0.00000  Uiso   1.00
C239   C     0.16473   0.83382   0.16676   0.00000  Uiso   1.00
C240   C     0.33527   0.83239   0.16651   0.00000  Uiso   1.00
C241   C     0.41280   0.86712   0.21134   0.00000  Uiso   1.00
C242   C     0.08735   0.79671   0.12370   0.00000  Uiso   1.00
C243   C     0.38344   0.83063   0.16626   0.00000  Uiso   1.00
C244   C     0.11658   0.83486   0.16708   0.00000  Uiso   1.00
C245   C     0.39980   0.79376   0.12067   0.00000  Uiso   1.00
C246   C     0.10018   0.87405   0.20985   0.00000  Uiso   1.00
C247   C     0.44695   0.79363   0.12108   0.00000  Uiso   1.00
C248   C     0.05307   0.87261   0.21110   0.00000  Uiso   1.00
C249   C     0.47650   0.83210   0.16609   0.00000  Uiso   1.00
C250   C     0.02355   0.83371   0.16658   0.00000  Uiso   1.00
C251   C     0.45913   0.86855   0.21129   0.00000  Uiso   1.00
C252   C     0.04099   0.79594   0.12290   0.00000  Uiso   1.00
C253   C     0.46543   0.75552   0.07915   0.00000  Uiso   1.00
C254   C     0.03474   0.90767   0.25647   0.00000  Uiso   1.00
Cu255  Cu    0.25501   0.83913   0.22813   0.00000  Uiso   1.00
Cu256  Cu    0.24500   0.82754   0.10521   0.00000  Uiso   1.00
H257   H     0.39941   0.89541   0.24575   0.00000  Uiso   1.00
H258   H     0.10086   0.76697   0.09110   0.00000  Uiso   1.00
H259   H     0.44461   0.72369   0.04598   0.00000  Uiso   1.00
H260   H     0.05579   0.93618   0.29321   0.00000  Uiso   1.00
H261   H     0.02520   0.72726   0.04693   0.00000  Uiso   1.00
H262   H     0.47504   0.93331   0.29168   0.00000  Uiso   1.00
N263   N     0.23745   0.81881   0.01284   0.00000  Uiso   1.00
N264   N     0.26256   0.84786   0.32049   0.00000  Uiso   1.00
O265   O     0.25326   0.76204   0.20659   0.00000  Uiso   1.00
O266   O     0.24675   0.90462   0.12674   0.00000  Uiso   1.00
O267   O     0.24480   0.75226   0.10279   0.00000  Uiso   1.00
O268   O     0.25520   0.91441   0.23055   0.00000  Uiso   1.00
O269   O     0.18936   0.83821   0.21857   0.00000  Uiso   1.00
O270   O     0.31065   0.82845   0.11476   0.00000  Uiso   1.00
O271   O     0.18090   0.82843   0.11477   0.00000  Uiso   1.00
O272   O     0.31910   0.83824   0.21857   0.00000  Uiso   1.00
O273   O     0.36889   0.75757   0.07843   0.00000  Uiso   1.00
H274   H     0.38047   0.75127   0.03851   0.00000  Uiso   1.00
O275   O     0.13098   0.91302   0.24866   0.00000  Uiso   1.00
H276   H     0.11792   0.94673   0.25541   0.00000  Uiso   1.00
O277   O     0.21823   0.97732   0.09041   0.00000  Uiso   1.00
H278   H     0.20637   0.99882   0.06364   0.00000  Uiso   1.00
O279   O     0.28171   0.68935   0.24294   0.00000  Uiso   1.00
H280   H     0.29354   0.66787   0.26974   0.00000  Uiso   1.00
S281   S     0.18424   0.78608   0.31378   0.00000  Uiso   1.00
O282   O     0.15117   0.82556   0.31504   0.00000  Uiso   1.00
O283   O     0.18273   0.75236   0.25057   0.00000  Uiso   1.00
O284   O     0.16732   0.74490   0.02247   0.00000  Uiso   1.00
H285   H     0.13813   0.72562   0.00049   0.00000  Uiso   1.00
S286   S     0.31562   0.88102   0.01954   0.00000  Uiso   1.00
O287   O     0.31719   0.91444   0.08290   0.00000  Uiso   1.00
O288   O     0.34903   0.84193   0.01785   0.00000  Uiso   1.00
O289   O     0.33206   0.92251   0.31097   0.00000  Uiso   1.00
H290   H     0.36115   0.94208   0.33294   0.00000  Uiso   1.00
C291   C     0.74771   0.73330   0.15099   0.00000  Uiso   1.00
C292   C     0.75226   0.93336   0.18234   0.00000  Uiso   1.00
C293   C     0.51192   0.75699   0.07989   0.00000  Uiso   1.00
C294   C     0.98826   0.90574   0.25629   0.00000  Uiso   1.00
C295   C     0.74209   0.67667   0.14338   0.00000  Uiso   1.00
C296   C     0.75786   0.99000   0.18996   0.00000  Uiso   1.00
C297   C     0.66473   0.83382   0.16676   0.00000  Uiso   1.00
C298   C     0.83527   0.83239   0.16651   0.00000  Uiso   1.00
C299   C     0.91280   0.86712   0.21134   0.00000  Uiso   1.00
C300   C     0.58735   0.79671   0.12370   0.00000  Uiso   1.00
C301   C     0.88344   0.83063   0.16626   0.00000  Uiso   1.00
C302   C     0.61658   0.83486   0.16708   0.00000  Uiso   1.00
C303   C     0.89980   0.79376   0.12067   0.00000  Uiso   1.00
C304   C     0.60018   0.87405   0.20985   0.00000  Uiso   1.00
C305   C     0.94695   0.79363   0.12108   0.00000  Uiso   1.00
C306   C     0.55307   0.87261   0.21110   0.00000  Uiso   1.00
C307   C     0.97650   0.83210   0.16609   0.00000  Uiso   1.00
C308   C     0.52355   0.83371   0.16658   0.00000  Uiso   1.00
C309   C     0.95913   0.86855   0.21129   0.00000  Uiso   1.00
C310   C     0.54099   0.79594   0.12290   0.00000  Uiso   1.00
C311   C     0.96543   0.75552   0.07915   0.00000  Uiso   1.00
C312   C     0.53474   0.90767   0.25647   0.00000  Uiso   1.00
Cu313  Cu    0.75501   0.83913   0.22813   0.00000  Uiso   1.00
Cu314  Cu    0.74500   0.82754   0.10521   0.00000  Uiso   1.00
H315   H     0.89941   0.89541   0.24575   0.00000  Uiso   1.00
H316   H     0.60086   0.76697   0.09110   0.00000  Uiso   1.00
H317   H     0.94461   0.72369   0.04598   0.00000  Uiso   1.00
H318   H     0.55579   0.93618   0.29321   0.00000  Uiso   1.00
H319   H     0.52520   0.72726   0.04693   0.00000  Uiso   1.00
H320   H     0.97504   0.93331   0.29168   0.00000  Uiso   1.00
N321   N     0.73745   0.81881   0.01284   0.00000  Uiso   1.00
N322   N     0.76256   0.84786   0.32049   0.00000  Uiso   1.00
O323   O     0.75326   0.76204   0.20659   0.00000  Uiso   1.00
O324   O     0.74675   0.90462   0.12674   0.00000  Uiso   1.00
O325   O     0.74480   0.75226   0.10279   0.00000  Uiso   1.00
O326   O     0.75520   0.91441   0.23055   0.00000  Uiso   1.00
O327   O     0.68936   0.83821   0.21857   0.00000  Uiso   1.00
O328   O     0.81065   0.82845   0.11476   0.00000  Uiso   1.00
O329   O     0.68090   0.82843   0.11477   0.00000  Uiso   1.00
O330   O     0.81910   0.83824   0.21857   0.00000  Uiso   1.00
O331   O     0.86889   0.75757   0.07843   0.00000  Uiso   1.00
H332   H     0.88047   0.75127   0.03851   0.00000  Uiso   1.00
O333   O     0.63098   0.91302   0.24866   0.00000  Uiso   1.00
H334   H     0.61792   0.94673   0.25541   0.00000  Uiso   1.00
O335   O     0.71823   0.97732   0.09041   0.00000  Uiso   1.00
H336   H     0.70637   0.99882   0.06364   0.00000  Uiso   1.00
O337   O     0.78171   0.68935   0.24294   0.00000  Uiso   1.00
H338   H     0.79354   0.66787   0.26974   0.00000  Uiso   1.00
S339   S     0.68424   0.78608   0.31378   0.00000  Uiso   1.00
O340   O     0.65117   0.82556   0.31504   0.00000  Uiso   1.00
O341   O     0.68273   0.75236   0.25057   0.00000  Uiso   1.00
O342   O     0.66732   0.74490   0.02247   0.00000  Uiso   1.00
H343   H     0.63813   0.72562   0.00049   0.00000  Uiso   1.00
S344   S     0.81562   0.88102   0.01954   0.00000  Uiso   1.00
O345   O     0.81719   0.91444   0.08290   0.00000  Uiso   1.00
O346   O     0.84903   0.84193   0.01785   0.00000  Uiso   1.00
O347   O     0.83206   0.92251   0.31097   0.00000  Uiso   1.00
H348   H     0.86115   0.94208   0.33294   0.00000  Uiso   1.00
C349   C     0.24771   0.06664   0.48433   0.00000  Uiso   1.00
C350   C     0.25226   0.26670   0.51567   0.00000  Uiso   1.00
C351   C     0.01192   0.09032   0.41323   0.00000  Uiso   1.00
C352   C     0.48826   0.23907   0.58962   0.00000  Uiso   1.00
C353   C     0.24209   0.01000   0.47671   0.00000  Uiso   1.00
C354   C     0.25786   0.32333   0.52330   0.00000  Uiso   1.00
C355   C     0.16473   0.16715   0.50010   0.00000  Uiso   1.00
C356   C     0.33527   0.16572   0.49985   0.00000  Uiso   1.00
C357   C     0.41280   0.20046   0.54467   0.00000  Uiso   1.00
C358   C     0.08735   0.13004   0.45704   0.00000  Uiso   1.00
C359   C     0.38344   0.16397   0.49959   0.00000  Uiso   1.00
C360   C     0.11658   0.16820   0.50042   0.00000  Uiso   1.00
C361   C     0.39980   0.12709   0.45400   0.00000  Uiso   1.00
C362   C     0.10018   0.20738   0.54319   0.00000  Uiso   1.00
C363   C     0.44695   0.12697   0.45441   0.00000  Uiso   1.00
C364   C     0.05307   0.20594   0.54444   0.00000  Uiso   1.00
C365   C     0.47650   0.16543   0.49943   0.00000  Uiso   1.00
C366   C     0.02355   0.16704   0.49991   0.00000  Uiso   1.00
C367   C     0.45913   0.20189   0.54462   0.00000  Uiso   1.00
C368   C     0.04099   0.12927   0.45623   0.00000  Uiso   1.00
C369   C     0.46543   0.08885   0.41248   0.00000  Uiso   1.00
C370   C     0.03474   0.24101   0.58980   0.00000  Uiso   1.00
Cu371  Cu    0.25501   0.17246   0.56146   0.00000  Uiso   1.00
Cu372  Cu    0.24500   0.16087   0.43854   0.00000  Uiso   1.00
H373   H     0.39941   0.22874   0.57909   0.00000  Uiso   1.00
H374   H     0.10086   0.10031   0.42443   0.00000  Uiso   1.00
H375   H     0.44461   0.05702   0.37931   0.00000  Uiso   1.00
H376   H     0.05579   0.26951   0.62655   0.00000  Uiso   1.00
H377   H     0.02520   0.06060   0.38027   0.00000  Uiso   1.00
H378   H     0.47504   0.26664   0.62501   0.00000  Uiso   1.00
N379   N     0.23745   0.15214   0.34617   0.00000  Uiso   1.00
N380   N     0.26256   0.18119   0.65383   0.00000  Uiso   1.00
O381   O     0.25326   0.09538   0.53992   0.00000  Uiso   1.00
O382   O     0.24675   0.23796   0.46008   0.00000  Uiso   1.00
O383   O     0.24480   0.08559   0.43612   0.00000  Uiso   1.00
O384   O     0.25520   0.24774   0.56388   0.00000  Uiso   1.00
O385   O     0.18936   0.17155   0.55191   0.00000  Uiso   1.00
O386   O     0.31065   0.16179   0.44809   0.00000  Uiso   1.00
O387   O     0.18090   0.16176   0.44810   0.00000  Uiso   1.00
O388   O     0.31910   0.17157   0.55190   0.00000  Uiso   1.00
O389   O     0.36889   0.09091   0.41177   0.00000  Uiso   1.00
H390   H     0.38047   0.08460   0.37184   0.00000  Uiso   1.00
O391   O     0.13098   0.24635   0.58199   0.00000  Uiso   1.00
H392   H     0.11792   0.28007   0.58875   0.00000  Uiso   1.00
O393   O     0.21823   0.31066   0.42374   0.00000  Uiso   1.00
H394   H     0.20637   0.33216   0.39697   0.00000  Uiso   1.00
O395   O     0.28171   0.02268   0.57627   0.00000  Uiso   1.00
H396   H     0.29354   0.00120   0.60308   0.00000  Uiso   1.00
S397   S     0.18424   0.11941   0.64711   0.00000  Uiso   1.00
O398   O     0.15117   0.15890   0.64837   0.00000  Uiso   1.00
O399   O     0.18273   0.08570   0.58390   0.00000  Uiso   1.00
O400   O     0.16732   0.07824   0.35580   0.00000  Uiso   1.00
H401   H     0.13813   0.05895   0.33382   0.00000  Uiso   1.00
S402   S     0.31562   0.21435   0.35288   0.00000  Uiso   1.00
O403   O     0.31719   0.24777   0.41624   0.00000  Uiso   1.00
O404   O     0.34903   0.17526   0.35119   0.00000  Uiso   1.00
O405   O     0.33206   0.25584   0.64430   0.00000  Uiso   1.00
H406   H     0.36115   0.27541   0.66627   0.00000  Uiso   1.00
C407   C     0.74771   0.06664   0.48433   0.00000  Uiso   1.00
C408   C     0.75226   0.26670   0.51567   0.00000  Uiso   1.00
C409   C     0.51192   0.09032   0.41323   0.00000  Uiso   1.00
C410   C     0.98826   0.23907   0.58962   0.00000  Uiso   1.00
C411   C     0.74209   0.01000   0.47671   0.00000  Uiso   1.00
C412   C     0.75786   0.32333   0.52330   0.00000  Uiso   1.00
C413   C     0.66473   0.16715   0.50010   0.00000  Uiso   1.00
C414   C     0.83527   0.16572   0.49985   0.00000  Uiso   1.00
C415   C     0.91280   0.20046   0.54467   0.00000  Uiso   1.00
C416   C     0.58735   0.13004   0.45704   0.00000  Uiso   1.00
C417   C     0.88344   0.16397   0.49959   0.00000  Uiso   1.00
C418   C     0.61658   0.16820   0.50042   0.00000  Uiso   1.00
C419   C     0.89980   0.12709   0.45400   0.00000  Uiso   1.00
C420   C     0.60018   0.20738   0.54319   0.00000  Uiso   1.00
C421   C     0.94695   0.12697   0.45441   0.00000  Uiso   1.00
C422   C     0.55307   0.20594   0.54444   0.00000  Uiso   1.00
C423   C     0.97650   0.16543   0.49943   0.00000  Uiso   1.00
C424   C     0.52355   0.16704   0.49991   0.00000  Uiso   1.00
C425   C     0.95913   0.20189   0.54462   0.00000  Uiso   1.00
C426   C     0.54099   0.12927   0.45623   0.00000  Uiso   1.00
C427   C     0.96543   0.08885   0.41248   0.00000  Uiso   1.00
C428   C     0.53474   0.24101   0.58980   0.00000  Uiso   1.00
Cu429  Cu    0.75501   0.17246   0.56146   0.00000  Uiso   1.00
Cu430  Cu    0.74500   0.16087   0.43854   0.00000  Uiso   1.00
H431   H     0.89941   0.22874   0.57909   0.00000  Uiso   1.00
H432   H     0.60086   0.10031   0.42443   0.00000  Uiso   1.00
H433   H     0.94461   0.05702   0.37931   0.00000  Uiso   1.00
H434   H     0.55579   0.26951   0.62655   0.00000  Uiso   1.00
H435   H     0.52520   0.06060   0.38027   0.00000  Uiso   1.00
H436   H     0.97504   0.26664   0.62501   0.00000  Uiso   1.00
N437   N     0.73745   0.15214   0.34617   0.00000  Uiso   1.00
N438   N     0.76256   0.18119   0.65383   0.00000  Uiso   1.00
O439   O     0.75326   0.09538   0.53992   0.00000  Uiso   1.00
O440   O     0.74675   0.23796   0.46008   0.00000  Uiso   1.00
O441   O     0.74480   0.08559   0.43612   0.00000  Uiso   1.00
O442   O     0.75520   0.24774   0.56388   0.00000  Uiso   1.00
O443   O     0.68936   0.17155   0.55191   0.00000  Uiso   1.00
O444   O     0.81065   0.16179   0.44809   0.00000  Uiso   1.00
O445   O     0.68090   0.16176   0.44810   0.00000  Uiso   1.00
O446   O     0.81910   0.17157   0.55190   0.00000  Uiso   1.00
O447   O     0.86889   0.09091   0.41177   0.00000  Uiso   1.00
H448   H     0.88047   0.08460   0.37184   0.00000  Uiso   1.00
O449   O     0.63098   0.24635   0.58199   0.00000  Uiso   1.00
H450   H     0.61792   0.28007   0.58875   0.00000  Uiso   1.00
O451   O     0.71823   0.31066   0.42374   0.00000  Uiso   1.00
H452   H     0.70637   0.33216   0.39697   0.00000  Uiso   1.00
O453   O     0.78171   0.02268   0.57627   0.00000  Uiso   1.00
H454   H     0.79354   0.00120   0.60308   0.00000  Uiso   1.00
S455   S     0.68424   0.11941   0.64711   0.00000  Uiso   1.00
O456   O     0.65117   0.15890   0.64837   0.00000  Uiso   1.00
O457   O     0.68273   0.08570   0.58390   0.00000  Uiso   1.00
O458   O     0.66732   0.07824   0.35580   0.00000  Uiso   1.00
H459   H     0.63813   0.05895   0.33382   0.00000  Uiso   1.00
S460   S     0.81562   0.21435   0.35288   0.00000  Uiso   1.00
O461   O     0.81719   0.24777   0.41624   0.00000  Uiso   1.00
O462   O     0.84903   0.17526   0.35119   0.00000  Uiso   1.00
O463   O     0.83206   0.25584   0.64430   0.00000  Uiso   1.00
H464   H     0.86115   0.27541   0.66627   0.00000  Uiso   1.00
C465   C     0.24771   0.39997   0.48433   0.00000  Uiso   1.00
C466   C     0.25226   0.60003   0.51567   0.00000  Uiso   1.00
C467   C     0.01192   0.42365   0.41323   0.00000  Uiso   1.00
C468   C     0.48826   0.57240   0.58962   0.00000  Uiso   1.00
C469   C     0.24209   0.34333   0.47671   0.00000  Uiso   1.00
C470   C     0.25786   0.65667   0.52330   0.00000  Uiso   1.00
C471   C     0.16473   0.50048   0.50010   0.00000  Uiso   1.00
C472   C     0.33527   0.49905   0.49985   0.00000  Uiso   1.00
C473   C     0.41280   0.53379   0.54467   0.00000  Uiso   1.00
C474   C     0.08735   0.46337   0.45704   0.00000  Uiso   1.00
C475   C     0.38344   0.49730   0.49959   0.00000  Uiso   1.00
C476   C     0.11658   0.50153   0.50042   0.00000  Uiso   1.00
C477   C     0.39980   0.46042   0.45400   0.00000  Uiso   1.00
C478   C     0.10018   0.54071   0.54319   0.00000  Uiso   1.00
C479   C     0.44695   0.46030   0.45441   0.00000  Uiso   1.00
C480   C     0.05307   0.53928   0.54444   0.00000  Uiso   1.00
C481   C     0.47650   0.49877   0.49943   0.00000  Uiso   1.00
C482   C     0.02355   0.50038   0.49991   0.00000  Uiso   1.00
C483   C     0.45913   0.53522   0.54462   0.00000  Uiso   1.00
C484   C     0.04099   0.46261   0.45623   0.00000  Uiso   1.00
C485   C     0.46543   0.42218   0.41248   0.00000  Uiso   1.00
C486   C     0.03474   0.57434   0.58980   0.00000  Uiso   1.00
Cu487  Cu    0.25501   0.50579   0.56146   0.00000  Uiso   1.00
Cu488  Cu    0.24500   0.49421   0.43854   0.00000  Uiso   1.00
H489   H     0.39941   0.56207   0.57909   0.00000  Uiso   1.00
H490   H     0.10086   0.43364   0.42443   0.00000  Uiso   1.00
H491   H     0.44461   0.39035   0.37931   0.00000  Uiso   1.00
H492   H     0.05579   0.60285   0.62655   0.00000  Uiso   1.00
H493   H     0.02520   0.39393   0.38027   0.00000  Uiso   1.00
H494   H     0.47504   0.59997   0.62501   0.00000  Uiso   1.00
N495   N     0.23745   0.48547   0.34617   0.00000  Uiso   1.00
N496   N     0.26256   0.51453   0.65383   0.00000  Uiso   1.00
O497   O     0.25326   0.42871   0.53992   0.00000  Uiso   1.00
O498   O     0.24675   0.57129   0.46008   0.00000  Uiso   1.00
O499   O     0.24480   0.41892   0.43612   0.00000  Uiso   1.00
O500   O     0.25520   0.58108   0.56388   0.00000  Uiso   1.00
O501   O     0.18936   0.50488   0.55191   0.00000  Uiso   1.00
O502   O     0.31065   0.49512   0.44809   0.00000  Uiso   1.00
O503   O     0.18090   0.49510   0.44810   0.00000  Uiso   1.00
O504   O     0.31910   0.50490   0.55190   0.00000  Uiso   1.00
O505   O     0.36889   0.42424   0.41177   0.00000  Uiso   1.00
H506   H     0.38047   0.41793   0.37184   0.00000  Uiso   1.00
O507   O     0.13098   0.57968   0.58199   0.00000  Uiso   1.00
H508   H     0.11792   0.61340   0.58875   0.00000  Uiso   1.00
O509   O     0.21823   0.64399   0.42374   0.00000  Uiso   1.00
H510   H     0.20637   0.66549   0.39697   0.00000  Uiso   1.00
O511   O     0.28171   0.35602   0.57627   0.00000  Uiso   1.00
H512   H     0.29354   0.33454   0.60308   0.00000  Uiso   1.00
S513   S     0.18424   0.45275   0.64711   0.00000  Uiso   1.00
O514   O     0.15117   0.49223   0.64837   0.00000  Uiso   1.00
O515   O     0.18273   0.41903   0.58390   0.00000  Uiso   1.00
O516   O     0.16732   0.41157   0.35580   0.00000  Uiso   1.00
H517   H     0.13813   0.39229   0.33382   0.00000  Uiso   1.00
S518   S     0.31562   0.54769   0.35288   0.00000  Uiso   1.00
O519   O     0.31719   0.58111   0.41624   0.00000  Uiso   1.00
O520   O     0.34903   0.50860   0.35119   0.00000  Uiso   1.00
O521   O     0.33206   0.58918   0.64430   0.00000  Uiso   1.00
H522   H     0.36115   0.60875   0.66627   0.00000  Uiso   1.00
C523   C     0.74771   0.39997   0.48433   0.00000  Uiso   1.00
C524   C     0.75226   0.60003   0.51567   0.00000  Uiso   1.00
C525   C     0.51192   0.42365   0.41323   0.00000  Uiso   1.00
C526   C     0.98826   0.57240   0.58962   0.00000  Uiso   1.00
C527   C     0.74209   0.34333   0.47671   0.00000  Uiso   1.00
C528   C     0.75786   0.65667   0.52330   0.00000  Uiso   1.00
C529   C     0.66473   0.50048   0.50010   0.00000  Uiso   1.00
C530   C     0.83527   0.49905   0.49985   0.00000  Uiso   1.00
C531   C     0.91280   0.53379   0.54467   0.00000  Uiso   1.00
C532   C     0.58735   0.46337   0.45704   0.00000  Uiso   1.00
C533   C     0.88344   0.49730   0.49959   0.00000  Uiso   1.00
C534   C     0.61658   0.50153   0.50042   0.00000  Uiso   1.00
C535   C     0.89980   0.46042   0.45400   0.00000  Uiso   1.00
C536   C     0.60018   0.54071   0.54319   0.00000  Uiso   1.00
C537   C     0.94695   0.46030   0.45441   0.00000  Uiso   1.00
C538   C     0.55307   0.53928   0.54444   0.00000  Uiso   1.00
C539   C     0.97650   0.49877   0.49943   0.00000  Uiso   1.00
C540   C     0.52355   0.50038   0.49991   0.00000  Uiso   1.00
C541   C     0.95913   0.53522   0.54462   0.00000  Uiso   1.00
C542   C     0.54099   0.46261   0.45623   0.00000  Uiso   1.00
C543   C     0.96543   0.42218   0.41248   0.00000  Uiso   1.00
C544   C     0.53474   0.57434   0.58980   0.00000  Uiso   1.00
Cu545  Cu    0.75501   0.50579   0.56146   0.00000  Uiso   1.00
Cu546  Cu    0.74500   0.49421   0.43854   0.00000  Uiso   1.00
H547   H     0.89941   0.56207   0.57909   0.00000  Uiso   1.00
H548   H     0.60086   0.43364   0.42443   0.00000  Uiso   1.00
H549   H     0.94461   0.39035   0.37931   0.00000  Uiso   1.00
H550   H     0.55579   0.60285   0.62655   0.00000  Uiso   1.00
H551   H     0.52520   0.39393   0.38027   0.00000  Uiso   1.00
H552   H     0.97504   0.59997   0.62501   0.00000  Uiso   1.00
N553   N     0.73745   0.48547   0.34617   0.00000  Uiso   1.00
N554   N     0.76256   0.51453   0.65383   0.00000  Uiso   1.00
O555   O     0.75326   0.42871   0.53992   0.00000  Uiso   1.00
O556   O     0.74675   0.57129   0.46008   0.00000  Uiso   1.00
O557   O     0.74480   0.41892   0.43612   0.00000  Uiso   1.00
O558   O     0.75520   0.58108   0.56388   0.00000  Uiso   1.00
O559   O     0.68936   0.50488   0.55191   0.00000  Uiso   1.00
O560   O     0.81065   0.49512   0.44809   0.00000  Uiso   1.00
O561   O     0.68090   0.49510   0.44810   0.00000  Uiso   1.00
O562   O     0.81910   0.50490   0.55190   0.00000  Uiso   1.00
O563   O     0.86889   0.42424   0.41177   0.00000  Uiso   1.00
H564   H     0.88047   0.41793   0.37184   0.00000  Uiso   1.00
O565   O     0.63098   0.57968   0.58199   0.00000  Uiso   1.00
H566   H     0.61792   0.61340   0.58875   0.00000  Uiso   1.00
O567   O     0.71823   0.64399   0.42374   0.00000  Uiso   1.00
H568   H     0.70637   0.66549   0.39697   0.00000  Uiso   1.00
O569   O     0.78171   0.35602   0.57627   0.00000  Uiso   1.00
H570   H     0.79354   0.33454   0.60308   0.00000  Uiso   1.00
S571   S     0.68424   0.45275   0.64711   0.00000  Uiso   1.00
O572   O     0.65117   0.49223   0.64837   0.00000  Uiso   1.00
O573   O     0.68273   0.41903   0.58390   0.00000  Uiso   1.00
O574   O     0.66732   0.41157   0.35580   0.00000  Uiso   1.00
H575   H     0.63813   0.39229   0.33382   0.00000  Uiso   1.00
S576   S     0.81562   0.54769   0.35288   0.00000  Uiso   1.00
O577   O     0.81719   0.58111   0.41624   0.00000  Uiso   1.00
O578   O     0.84903   0.50860   0.35119   0.00000  Uiso   1.00
O579   O     0.83206   0.58918   0.64430   0.00000  Uiso   1.00
H580   H     0.86115   0.60875   0.66627   0.00000  Uiso   1.00
C581   C     0.24771   0.73330   0.48433   0.00000  Uiso   1.00
C582   C     0.25226   0.93336   0.51567   0.00000  Uiso   1.00
C583   C     0.01192   0.75699   0.41323   0.00000  Uiso   1.00
C584   C     0.48826   0.90574   0.58962   0.00000  Uiso   1.00
C585   C     0.24209   0.67667   0.47671   0.00000  Uiso   1.00
C586   C     0.25786   0.99000   0.52330   0.00000  Uiso   1.00
C587   C     0.16473   0.83382   0.50010   0.00000  Uiso   1.00
C588   C     0.33527   0.83239   0.49985   0.00000  Uiso   1.00
C589   C     0.41280   0.86712   0.54467   0.00000  Uiso   1.00
C590   C     0.08735   0.79671   0.45704   0.00000  Uiso   1.00
C591   C     0.38344   0.83063   0.49959   0.00000  Uiso   1.00
C592   C     0.11658   0.83486   0.50042   0.00000  Uiso   1.00
C593   C     0.39980   0.79376   0.45400   0.00000  Uiso   1.00
C594   C     0.10018   0.87405   0.54319   0.00000  Uiso   1.00
C595   C     0.44695   0.79363   0.45441   0.00000  Uiso   1.00
C596   C     0.05307   0.87261   0.54444   0.00000  Uiso   1.00
C597   C     0.47650   0.83210   0.49943   0.00000  Uiso   1.00
C598   C     0.02355   0.83371   0.49991   0.00000  Uiso   1.00
C599   C     0.45913   0.86855   0.54462   0.00000  Uiso   1.00
C600   C     0.04099   0.79594   0.45623   0.00000  Uiso   1.00
C601   C     0.46543   0.75552   0.41248   0.00000  Uiso   1.00
C602   C     0.03474   0.90767   0.58980   0.00000  Uiso   1.00
Cu603  Cu    0.25501   0.83913   0.56146   0.00000  Uiso   1.00
Cu604  Cu    0.24500   0.82754   0.43854   0.00000  Uiso   1.00
H605   H     0.39941   0.89541   0.57909   0.00000  Uiso   1.00
H606   H     0.10086   0.76697   0.42443   0.00000  Uiso   1.00
H607   H     0.44461   0.72369   0.37931   0.00000  Uiso   1.00
H608   H     0.05579   0.93618   0.62655   0.00000  Uiso   1.00
H609   H     0.02520   0.72726   0.38027   0.00000  Uiso   1.00
H610   H     0.47504   0.93331   0.62501   0.00000  Uiso   1.00
N611   N     0.23745   0.81881   0.34617   0.00000  Uiso   1.00
N612   N     0.26256   0.84786   0.65383   0.00000  Uiso   1.00
O613   O     0.25326   0.76204   0.53992   0.00000  Uiso   1.00
O614   O     0.24675   0.90462   0.46008   0.00000  Uiso   1.00
O615   O     0.24480   0.75226   0.43612   0.00000  Uiso   1.00
O616   O     0.25520   0.91441   0.56388   0.00000  Uiso   1.00
O617   O     0.18936   0.83821   0.55191   0.00000  Uiso   1.00
O618   O     0.31065   0.82845   0.44809   0.00000  Uiso   1.00
O619   O     0.18090   0.82843   0.44810   0.00000  Uiso   1.00
O620   O     0.31910   0.83824   0.55190   0.00000  Uiso   1.00
O621   O     0.36889   0.75757   0.41177   0.00000  Uiso   1.00
H622   H     0.38047   0.75127   0.37184   0.00000  Uiso   1.00
O623   O     0.13098   0.91302   0.58199   0.00000  Uiso   1.00
H624   H     0.11792   0.94673   0.58875   0.00000  Uiso   1.00
O625   O     0.21823   0.97732   0.42374   0.00000  Uiso   1.00
H626   H     0.20637   0.99882   0.39697   0.00000  Uiso   1.00
O627   O     0.28171   0.68935   0.57627   0.00000  Uiso   1.00
H628   H     0.29354   0.66787   0.60308   0.00000  Uiso   1.00
S629   S     0.18424   0.78608   0.64711   0.00000  Uiso   1.00
O630   O     0.15117   0.82556   0.64837   0.00000  Uiso   1.00
O631   O     0.18273   0.75236   0.58390   0.00000  Uiso   1.00
O632   O     0.16732   0.74490   0.35580   0.00000  Uiso   1.00
H633   H     0.13813   0.72562   0.33382   0.00000  Uiso   1.00
S634   S     0.31562   0.88102   0.35288   0.00000  Uiso   1.00
O635   O     0.31719   0.91444   0.41624   0.00000  Uiso   1.00
O636   O     0.34903   0.84193   0.35119   0.00000  Uiso   1.00
O637   O     0.33206   0.92251   0.64430   0.00000  Uiso   1.00
H638   H     0.36115   0.94208   0.66627   0.00000  Uiso   1.00
C639   C     0.74771   0.73330   0.48433   0.00000  Uiso   1.00
C640   C     0.75226   0.93336   0.51567   0.00000  Uiso   1.00
C641   C     0.51192   0.75699   0.41323   0.00000  Uiso   1.00
C642   C     0.98826   0.90574   0.58962   0.00000  Uiso   1.00
C643   C     0.74209   0.67667   0.47671   0.00000  Uiso   1.00
C644   C     0.75786   0.99000   0.52330   0.00000  Uiso   1.00
C645   C     0.66473   0.83382   0.50010   0.00000  Uiso   1.00
C646   C     0.83527   0.83239   0.49985   0.00000  Uiso   1.00
C647   C     0.91280   0.86712   0.54467   0.00000  Uiso   1.00
C648   C     0.58735   0.79671   0.45704   0.00000  Uiso   1.00
C649   C     0.88344   0.83063   0.49959   0.00000  Uiso   1.00
C650   C     0.61658   0.83486   0.50042   0.00000  Uiso   1.00
C651   C     0.89980   0.79376   0.45400   0.00000  Uiso   1.00
C652   C     0.60018   0.87405   0.54319   0.00000  Uiso   1.00
C653   C     0.94695   0.79363   0.45441   0.00000  Uiso   1.00
C654   C     0.55307   0.87261   0.54444   0.00000  Uiso   1.00
C655   C     0.97650   0.83210   0.49943   0.00000  Uiso   1.00
C656   C     0.52355   0.83371   0.49991   0.00000  Uiso   1.00
C657   C     0.95913   0.86855   0.54462   0.00000  Uiso   1.00
C658   C     0.54099   0.79594   0.45623   0.00000  Uiso   1.00
C659   C     0.96543   0.75552   0.41248   0.00000  Uiso   1.00
C660   C     0.53474   0.90767   0.58980   0.00000  Uiso   1.00
Cu661  Cu    0.75501   0.83913   0.56146   0.00000  Uiso   1.00
Cu662  Cu    0.74500   0.82754   0.43854   0.00000  Uiso   1.00
H663   H     0.89941   0.89541   0.57909   0.00000  Uiso   1.00
H664   H     0.60086   0.76697   0.42443   0.00000  Uiso   1.00
H665   H     0.94461   0.72369   0.37931   0.00000  Uiso   1.00
H666   H     0.55579   0.93618   0.62655   0.00000  Uiso   1.00
H667   H     0.52520   0.72726   0.38027   0.00000  Uiso   1.00
H668   H     0.97504   0.93331   0.62501   0.00000  Uiso   1.00
N669   N     0.73745   0.81881   0.34617   0.00000  Uiso   1.00
N670   N     0.76256   0.84786   0.65383   0.00000  Uiso   1.00
O671   O     0.75326   0.76204   0.53992   0.00000  Uiso   1.00
O672   O     0.74675   0.90462   0.46008   0.00000  Uiso   1.00
O673   O     0.74480   0.75226   0.43612   0.00000  Uiso   1.00
O674   O     0.75520   0.91441   0.56388   0.00000  Uiso   1.00
O675   O     0.68936   0.83821   0.55191   0.00000  Uiso   1.00
O676   O     0.81065   0.82845   0.44809   0.00000  Uiso   1.00
O677   O     0.68090   0.82843   0.44810   0.00000  Uiso   1.00
O678   O     0.81910   0.83824   0.55190   0.00000  Uiso   1.00
O679   O     0.86889   0.75757   0.41177   0.00000  Uiso   1.00
H680   H     0.88047   0.75127   0.37184   0.00000  Uiso   1.00
O681   O     0.63098   0.91302   0.58199   0.00000  Uiso   1.00
H682   H     0.61792   0.94673   0.58875   0.00000  Uiso   1.00
O683   O     0.71823   0.97732   0.42374   0.00000  Uiso   1.00
H684   H     0.70637   0.99882   0.39697   0.00000  Uiso   1.00
O685   O     0.78171   0.68935   0.57627   0.00000  Uiso   1.00
H686   H     0.79354   0.66787   0.60308   0.00000  Uiso   1.00
S687   S     0.68424   0.78608   0.64711   0.00000  Uiso   1.00
O688   O     0.65117   0.82556   0.64837   0.00000  Uiso   1.00
O689   O     0.68273   0.75236   0.58390   0.00000  Uiso   1.00
O690   O     0.66732   0.74490   0.35580   0.00000  Uiso   1.00
H691   H     0.63813   0.72562   0.33382   0.00000  Uiso   1.00
S692   S     0.81562   0.88102   0.35288   0.00000  Uiso   1.00
O693   O     0.81719   0.91444   0.41624   0.00000  Uiso   1.00
O694   O     0.84903   0.84193   0.35119   0.00000  Uiso   1.00
O695   O     0.83206   0.92251   0.64430   0.00000  Uiso   1.00
H696   H     0.86115   0.94208   0.66627   0.00000  Uiso   1.00
C697   C     0.24771   0.06664   0.81766   0.00000  Uiso   1.00
C698   C     0.25226   0.26670   0.84901   0.00000  Uiso   1.00
C699   C     0.01192   0.09032   0.74656   0.00000  Uiso   1.00
C700   C     0.48826   0.23907   0.92296   0.00000  Uiso   1.00
C701   C     0.24209   0.01000   0.81005   0.00000  Uiso   1.00
C702   C     0.25786   0.32333   0.85663   0.00000  Uiso   1.00
C703   C     0.16473   0.16715   0.83343   0.00000  Uiso   1.00
C704   C     0.33527   0.16572   0.83318   0.00000  Uiso   1.00
C705   C     0.41280   0.20046   0.87801   0.00000  Uiso   1.00
C706   C     0.08735   0.13004   0.79037   0.00000  Uiso   1.00
C707   C     0.38344   0.16397   0.83293   0.00000  Uiso   1.00
C708   C     0.11658   0.16820   0.83375   0.00000  Uiso   1.00
C709   C     0.39980   0.12709   0.78734   0.00000  Uiso   1.00
C710   C     0.10018   0.20738   0.87652   0.00000  Uiso   1.00
C711   C     0.44695   0.12697   0.78775   0.00000  Uiso   1.00
C712   C     0.05307   0.20594   0.87777   0.00000  Uiso   1.00
C713   C     0.47650   0.16543   0.83276   0.00000  Uiso   1.00
C714   C     0.02355   0.16704   0.83324   0.00000  Uiso   1.00
C715   C     0.45913   0.20189   0.87795   0.00000  Uiso   1.00
C716   C     0.04099   0.12927   0.78956   0.00000  Uiso   1.00
C717   C     0.46543   0.08885   0.74582   0.00000  Uiso   1.00
C718   C     0.03474   0.24101   0.92314   0.00000  Uiso   1.00
Cu719  Cu    0.25501   0.17246   0.89479   0.00000  Uiso   1.00
Cu720  Cu    0.24500   0.16087   0.77187   0.00000  Uiso   1.00
H721   H     0.39941   0.22874   0.91242   0.00000  Uiso   1.00
H722   H     0.10086   0.10031   0.75777   0.00000  Uiso   1.00
H723   H     0.44461   0.05702   0.71265   0.00000  Uiso   1.00
H724   H     0.05579   0.26951   0.95988   0.00000  Uiso   1.00
H725   H     0.02520   0.06060   0.71360   0.00000  Uiso   1.00
H726   H     0.47504   0.26664   0.95835   0.00000  Uiso   1.00
N727   N     0.23745   0.15214   0.67951   0.00000  Uiso   1.00
N728   N     0.26256   0.18119   0.98716   0.00000  Uiso   1.00
O729   O     0.25326   0.09538   0.87326   0.00000  Uiso   1.00
O730   O     0.24675   0.23796   0.79341   0.00000  Uiso   1.00
O731   O     0.24480   0.08559   0.76945   0.00000  Uiso   1.00
O732   O     0.25520   0.24774   0.89721   0.00000  Uiso   1.00
O733   O     0.18936   0.17155   0.88524   0.00000  Uiso   1.00
O734   O     0.31065   0.16179   0.78143   0.00000  Uiso   1.00
O735   O     0.18090   0.16176   0.78143   0.00000  Uiso   1.00
O736   O     0.31910   0.17157   0.88523   0.00000  Uiso   1.00
O737   O     0.36889   0.09091   0.74510   0.00000  Uiso   1.00
H738   H     0.38047   0.08460   0.70517   0.00000  Uiso   1.00
O739   O     0.13098   0.24635   0.91533   0.00000  Uiso   1.00
H740   H     0.11792   0.28007   0.92208   0.00000  Uiso   1.00
O741   O     0.21823   0.31066   0.75708   0.00000  Uiso   1.00
H742   H     0.20637   0.33216   0.73030   0.00000  Uiso   1.00
O743   O     0.28171   0.02268   0.90961   0.00000  Uiso   1.00
H744   H     0.29354   0.00120   0.93641   0.00000  Uiso   1.00
S745   S     0.18424   0.11941   0.98045   0.00000  Uiso   1.00
O746   O     0.15117   0.15890   0.98170   0.00000  Uiso   1.00
O747   O     0.18273   0.08570   0.91724   0.00000  Uiso   1.00
O748   O     0.16732   0.07824   0.68914   0.00000  Uiso   1.00
H749   H     0.13813   0.05895   0.66715   0.00000  Uiso   1.00
S750   S     0.31562   0.21435   0.68621   0.00000  Uiso   1.00
O751   O     0.31719   0.24777   0.74957   0.00000  Uiso   1.00
O752   O     0.34903   0.17526   0.68452   0.00000  Uiso   1.00
O753   O     0.33206   0.25584   0.97763   0.00000  Uiso   1.00
H754   H     0.36115   0.27541   0.99960   0.00000  Uiso   1.00
C755   C     0.74771   0.06664   0.81766   0.00000  Uiso   1.00
C756   C     0.75226   0.26670   0.84901   0.00000  Uiso   1.00
C757   C     0.51192   0.09032   0.74656   0.00000  Uiso   1.00
C758   C     0.98826   0.23907   0.92296   0.00000  Uiso   1.00
C759   C     0.74209   0.01000   0.81005   0.00000  Uiso   1.00
C760   C     0.75786   0.32333   0.85663   0.00000  Uiso   1.00
C761   C     0.66473   0.16715   0.83343   0.00000  Uiso   1.00
C762   C     0.83527   0.16572   0.83318   0.00000  Uiso   1.00
C763   C     0.91280   0.20046   0.87801   0.00000  Uiso   1.00
C764   C     0.58735   0.13004   0.79037   0.00000  Uiso   1.00
C765   C     0.88344   0.16397   0.83293   0.00000  Uiso   1.00
C766   C     0.61658   0.16820   0.83375   0.00000  Uiso   1.00
C767   C     0.89980   0.12709   0.78734   0.00000  Uiso   1.00
C768   C     0.60018   0.20738   0.87652   0.00000  Uiso   1.00
C769   C     0.94695   0.12697   0.78775   0.00000  Uiso   1.00
C770   C     0.55307   0.20594   0.87777   0.00000  Uiso   1.00
C771   C     0.97650   0.16543   0.83276   0.00000  Uiso   1.00
C772   C     0.52355   0.16704   0.83324   0.00000  Uiso   1.00
C773   C     0.95913   0.20189   0.87795   0.00000  Uiso   1.00
C774   C     0.54099   0.12927   0.78956   0.00000  Uiso   1.00
C775   C     0.96543   0.08885   0.74582   0.00000  Uiso   1.00
C776   C     0.53474   0.24101   0.92314   0.00000  Uiso   1.00
Cu777  Cu    0.75501   0.17246   0.89479   0.00000  Uiso   1.00
Cu778  Cu    0.74500   0.16087   0.77187   0.00000  Uiso   1.00
H779   H     0.89941   0.22874   0.91242   0.00000  Uiso   1.00
H780   H     0.60086   0.10031   0.75777   0.00000  Uiso   1.00
H781   H     0.94461   0.05702   0.71265   0.00000  Uiso   1.00
H782   H     0.55579   0.26951   0.95988   0.00000  Uiso   1.00
H783   H     0.52520   0.06060   0.71360   0.00000  Uiso   1.00
H784   H     0.97504   0.26664   0.95835   0.00000  Uiso   1.00
N785   N     0.73745   0.15214   0.67951   0.00000  Uiso   1.00
N786   N     0.76256   0.18119   0.98716   0.00000  Uiso   1.00
O787   O     0.75326   0.09538   0.87326   0.00000  Uiso   1.00
O788   O     0.74675   0.23796   0.79341   0.00000  Uiso   1.00
O789   O     0.74480   0.08559   0.76945   0.00000  Uiso   1.00
O790   O     0.75520   0.24774   0.89721   0.00000  Uiso   1.00
O791   O     0.68936   0.17155   0.88524   0.00000  Uiso   1.00
O792   O     0.81065   0.16179   0.78143   0.00000  Uiso   1.00
O793   O     0.68090   0.16176   0.78143   0.00000  Uiso   1.00
O794   O     0.81910   0.17157   0.88523   0.00000  Uiso   1.00
O795   O     0.86889   0.09091   0.74510   0.00000  Uiso   1.00
H796   H     0.88047   0.08460   0.70517   0.00000  Uiso   1.00
O797   O     0.63098   0.24635   0.91533   0.00000  Uiso   1.00
H798   H     0.61792   0.28007   0.92208   0.00000  Uiso   1.00
O799   O     0.71823   0.31066   0.75708   0.00000  Uiso   1.00
H800   H     0.70637   0.33216   0.73030   0.00000  Uiso   1.00
O801   O     0.78171   0.02268   0.90961   0.00000  Uiso   1.00
H802   H     0.79354   0.00120   0.93641   0.00000  Uiso   1.00
S803   S     0.68424   0.11941   0.98045   0.00000  Uiso   1.00
O804   O     0.65117   0.15890   0.98170   0.00000  Uiso   1.00
O805   O     0.68273   0.08570   0.91724   0.00000  Uiso   1.00
O806   O     0.66732   0.07824   0.68914   0.00000  Uiso   1.00
H807   H     0.63813   0.05895   0.66715   0.00000  Uiso   1.00
S808   S     0.81562   0.21435   0.68621   0.00000  Uiso   1.00
O809   O     0.81719   0.24777   0.74957   0.00000  Uiso   1.00
O810   O     0.84903   0.17526   0.68452   0.00000  Uiso   1.00
O811   O     0.83206   0.25584   0.97763   0.00000  Uiso   1.00
H812   H     0.86115   0.27541   0.99960   0.00000  Uiso   1.00
C813   C     0.24771   0.39997   0.81766   0.00000  Uiso   1.00
C814   C     0.25226   0.60003   0.84901   0.00000  Uiso   1.00
C815   C     0.01192   0.42365   0.74656   0.00000  Uiso   1.00
C816   C     0.48826   0.57240   0.92296   0.00000  Uiso   1.00
C817   C     0.24209   0.34333   0.81005   0.00000  Uiso   1.00
C818   C     0.25786   0.65667   0.85663   0.00000  Uiso   1.00
C819   C     0.16473   0.50048   0.83343   0.00000  Uiso   1.00
C820   C     0.33527   0.49905   0.83318   0.00000  Uiso   1.00
C821   C     0.41280   0.53379   0.87801   0.00000  Uiso   1.00
C822   C     0.08735   0.46337   0.79037   0.00000  Uiso   1.00
C823   C     0.38344   0.49730   0.83293   0.00000  Uiso   1.00
C824   C     0.11658   0.50153   0.83375   0.00000  Uiso   1.00
C825   C     0.39980   0.46042   0.78734   0.00000  Uiso   1.00
C826   C     0.10018   0.54071   0.87652   0.00000  Uiso   1.00
C827   C     0.44695   0.46030   0.78775   0.00000  Uiso   1.00
C828   C     0.05307   0.53928   0.87777   0.00000  Uiso   1.00
C829   C     0.47650   0.49877   0.83276   0.00000  Uiso   1.00
C830   C     0.02355   0.50038   0.83324   0.00000  Uiso   1.00
C831   C     0.45913   0.53522   0.87795   0.00000  Uiso   1.00
C832   C     0.04099   0.46261   0.78956   0.00000  Uiso   1.00
C833   C     0.46543   0.42218   0.74582   0.00000  Uiso   1.00
C834   C     0.03474   0.57434   0.92314   0.00000  Uiso   1.00
Cu835  Cu    0.25501   0.50579   0.89479   0.00000  Uiso   1.00
Cu836  Cu    0.24500   0.49421   0.77187   0.00000  Uiso   1.00
H837   H     0.39941   0.56207   0.91242   0.00000  Uiso   1.00
H838   H     0.10086   0.43364   0.75777   0.00000  Uiso   1.00
H839   H     0.44461   0.39035   0.71265   0.00000  Uiso   1.00
H840   H     0.05579   0.60285   0.95988   0.00000  Uiso   1.00
H841   H     0.02520   0.39393   0.71360   0.00000  Uiso   1.00
H842   H     0.47504   0.59997   0.95835   0.00000  Uiso   1.00
N843   N     0.23745   0.48547   0.67951   0.00000  Uiso   1.00
N844   N     0.26256   0.51453   0.98716   0.00000  Uiso   1.00
O845   O     0.25326   0.42871   0.87326   0.00000  Uiso   1.00
O846   O     0.24675   0.57129   0.79341   0.00000  Uiso   1.00
O847   O     0.24480   0.41892   0.76945   0.00000  Uiso   1.00
O848   O     0.25520   0.58108   0.89721   0.00000  Uiso   1.00
O849   O     0.18936   0.50488   0.88524   0.00000  Uiso   1.00
O850   O     0.31065   0.49512   0.78143   0.00000  Uiso   1.00
O851   O     0.18090   0.49510   0.78143   0.00000  Uiso   1.00
O852   O     0.31910   0.50490   0.88523   0.00000  Uiso   1.00
O853   O     0.36889   0.42424   0.74510   0.00000  Uiso   1.00
H854   H     0.38047   0.41793   0.70517   0.00000  Uiso   1.00
O855   O     0.13098   0.57968   0.91533   0.00000  Uiso   1.00
H856   H     0.11792   0.61340   0.92208   0.00000  Uiso   1.00
O857   O     0.21823   0.64399   0.75708   0.00000  Uiso   1.00
H858   H     0.20637   0.66549   0.73030   0.00000  Uiso   1.00
O859   O     0.28171   0.35602   0.90961   0.00000  Uiso   1.00
H860   H     0.29354   0.33454   0.93641   0.00000  Uiso   1.00
S861   S     0.18424   0.45275   0.98045   0.00000  Uiso   1.00
O862   O     0.15117   0.49223   0.98170   0.00000  Uiso   1.00
O863   O     0.18273   0.41903   0.91724   0.00000  Uiso   1.00
O864   O     0.16732   0.41157   0.68914   0.00000  Uiso   1.00
H865   H     0.13813   0.39229   0.66715   0.00000  Uiso   1.00
S866   S     0.31562   0.54769   0.68621   0.00000  Uiso   1.00
O867   O     0.31719   0.58111   0.74957   0.00000  Uiso   1.00
O868   O     0.34903   0.50860   0.68452   0.00000  Uiso   1.00
O869   O     0.33206   0.58918   0.97763   0.00000  Uiso   1.00
H870   H     0.36115   0.60875   0.99960   0.00000  Uiso   1.00
C871   C     0.74771   0.39997   0.81766   0.00000  Uiso   1.00
C872   C     0.75226   0.60003   0.84901   0.00000  Uiso   1.00
C873   C     0.51192   0.42365   0.74656   0.00000  Uiso   1.00
C874   C     0.98826   0.57240   0.92296   0.00000  Uiso   1.00
C875   C     0.74209   0.34333   0.81005   0.00000  Uiso   1.00
C876   C     0.75786   0.65667   0.85663   0.00000  Uiso   1.00
C877   C     0.66473   0.50048   0.83343   0.00000  Uiso   1.00
C878   C     0.83527   0.49905   0.83318   0.00000  Uiso   1.00
C879   C     0.91280   0.53379   0.87801   0.00000  Uiso   1.00
C880   C     0.58735   0.46337   0.79037   0.00000  Uiso   1.00
C881   C     0.88344   0.49730   0.83293   0.00000  Uiso   1.00
C882   C     0.61658   0.50153   0.83375   0.00000  Uiso   1.00
C883   C     0.89980   0.46042   0.78734   0.00000  Uiso   1.00
C884   C     0.60018   0.54071   0.87652   0.00000  Uiso   1.00
C885   C     0.94695   0.46030   0.78775   0.00000  Uiso   1.00
C886   C     0.55307   0.53928   0.87777   0.00000  Uiso   1.00
C887   C     0.97650   0.49877   0.83276   0.00000  Uiso   1.00
C888   C     0.52355   0.50038   0.83324   0.00000  Uiso   1.00
C889   C     0.95913   0.53522   0.87795   0.00000  Uiso   1.00
C890   C     0.54099   0.46261   0.78956   0.00000  Uiso   1.00
C891   C     0.96543   0.42218   0.74582   0.00000  Uiso   1.00
C892   C     0.53474   0.57434   0.92314   0.00000  Uiso   1.00
Cu893  Cu    0.75501   0.50579   0.89479   0.00000  Uiso   1.00
Cu894  Cu    0.74500   0.49421   0.77187   0.00000  Uiso   1.00
H895   H     0.89941   0.56207   0.91242   0.00000  Uiso   1.00
H896   H     0.60086   0.43364   0.75777   0.00000  Uiso   1.00
H897   H     0.94461   0.39035   0.71265   0.00000  Uiso   1.00
H898   H     0.55579   0.60285   0.95988   0.00000  Uiso   1.00
H899   H     0.52520   0.39393   0.71360   0.00000  Uiso   1.00
H900   H     0.97504   0.59997   0.95835   0.00000  Uiso   1.00
N901   N     0.73745   0.48547   0.67951   0.00000  Uiso   1.00
N902   N     0.76256   0.51453   0.98716   0.00000  Uiso   1.00
O903   O     0.75326   0.42871   0.87326   0.00000  Uiso   1.00
O904   O     0.74675   0.57129   0.79341   0.00000  Uiso   1.00
O905   O     0.74480   0.41892   0.76945   0.00000  Uiso   1.00
O906   O     0.75520   0.58108   0.89721   0.00000  Uiso   1.00
O907   O     0.68936   0.50488   0.88524   0.00000  Uiso   1.00
O908   O     0.81065   0.49512   0.78143   0.00000  Uiso   1.00
O909   O     0.68090   0.49510   0.78143   0.00000  Uiso   1.00
O910   O     0.81910   0.50490   0.88523   0.00000  Uiso   1.00
O911   O     0.86889   0.42424   0.74510   0.00000  Uiso   1.00
H912   H     0.88047   0.41793   0.70517   0.00000  Uiso   1.00
O913   O     0.63098   0.57968   0.91533   0.00000  Uiso   1.00
H914   H     0.61792   0.61340   0.92208   0.00000  Uiso   1.00
O915   O     0.71823   0.64399   0.75708   0.00000  Uiso   1.00
H916   H     0.70637   0.66549   0.73030   0.00000  Uiso   1.00
O917   O     0.78171   0.35602   0.90961   0.00000  Uiso   1.00
H918   H     0.79354   0.33454   0.93641   0.00000  Uiso   1.00
S919   S     0.68424   0.45275   0.98045   0.00000  Uiso   1.00
O920   O     0.65117   0.49223   0.98170   0.00000  Uiso   1.00
O921   O     0.68273   0.41903   0.91724   0.00000  Uiso   1.00
O922   O     0.66732   0.41157   0.68914   0.00000  Uiso   1.00
H923   H     0.63813   0.39229   0.66715   0.00000  Uiso   1.00
S924   S     0.81562   0.54769   0.68621   0.00000  Uiso   1.00
O925   O     0.81719   0.58111   0.74957   0.00000  Uiso   1.00
O926   O     0.84903   0.50860   0.68452   0.00000  Uiso   1.00
O927   O     0.83206   0.58918   0.97763   0.00000  Uiso   1.00
H928   H     0.86115   0.60875   0.99960   0.00000  Uiso   1.00
C929   C     0.24771   0.73330   0.81766   0.00000  Uiso   1.00
C930   C     0.25226   0.93336   0.84901   0.00000  Uiso   1.00
C931   C     0.01192   0.75699   0.74656   0.00000  Uiso   1.00
C932   C     0.48826   0.90574   0.92296   0.00000  Uiso   1.00
C933   C     0.24209   0.67667   0.81005   0.00000  Uiso   1.00
C934   C     0.25786   0.99000   0.85663   0.00000  Uiso   1.00
C935   C     0.16473   0.83382   0.83343   0.00000  Uiso   1.00
C936   C     0.33527   0.83239   0.83318   0.00000  Uiso   1.00
C937   C     0.41280   0.86712   0.87801   0.00000  Uiso   1.00
C938   C     0.08735   0.79671   0.79037   0.00000  Uiso   1.00
C939   C     0.38344   0.83063   0.83293   0.00000  Uiso   1.00
C940   C     0.11658   0.83486   0.83375   0.00000  Uiso   1.00
C941   C     0.39980   0.79376   0.78734   0.00000  Uiso   1.00
C942   C     0.10018   0.87405   0.87652   0.00000  Uiso   1.00
C943   C     0.44695   0.79363   0.78775   0.00000  Uiso   1.00
C944   C     0.05307   0.87261   0.87777   0.00000  Uiso   1.00
C945   C     0.47650   0.83210   0.83276   0.00000  Uiso   1.00
C946   C     0.02355   0.83371   0.83324   0.00000  Uiso   1.00
C947   C     0.45913   0.86855   0.87795   0.00000  Uiso   1.00
C948   C     0.04099   0.79594   0.78956   0.00000  Uiso   1.00
C949   C     0.46543   0.75552   0.74582   0.00000  Uiso   1.00
C950   C     0.03474   0.90767   0.92314   0.00000  Uiso   1.00
Cu951  Cu    0.25501   0.83913   0.89479   0.00000  Uiso   1.00
Cu952  Cu    0.24500   0.82754   0.77187   0.00000  Uiso   1.00
H953   H     0.39941   0.89541   0.91242   0.00000  Uiso   1.00
H954   H     0.10086   0.76697   0.75777   0.00000  Uiso   1.00
H955   H     0.44461   0.72369   0.71265   0.00000  Uiso   1.00
H956   H     0.05579   0.93618   0.95988   0.00000  Uiso   1.00
H957   H     0.02520   0.72726   0.71360   0.00000  Uiso   1.00
H958   H     0.47504   0.93331   0.95835   0.00000  Uiso   1.00
N959   N     0.23745   0.81881   0.67951   0.00000  Uiso   1.00
N960   N     0.26256   0.84786   0.98716   0.00000  Uiso   1.00
O961   O     0.25326   0.76204   0.87326   0.00000  Uiso   1.00
O962   O     0.24675   0.90462   0.79341   0.00000  Uiso   1.00
O963   O     0.24480   0.75226   0.76945   0.00000  Uiso   1.00
O964   O     0.25520   0.91441   0.89721   0.00000  Uiso   1.00
O965   O     0.18936   0.83821   0.88524   0.00000  Uiso   1.00
O966   O     0.31065   0.82845   0.78143   0.00000  Uiso   1.00
O967   O     0.18090   0.82843   0.78143   0.00000  Uiso   1.00
O968   O     0.31910   0.83824   0.88523   0.00000  Uiso   1.00
O969   O     0.36889   0.75757   0.74510   0.00000  Uiso   1.00
H970   H     0.38047   0.75127   0.70517   0.00000  Uiso   1.00
O971   O     0.13098   0.91302   0.91533   0.00000  Uiso   1.00
H972   H     0.11792   0.94673   0.92208   0.00000  Uiso   1.00
O973   O     0.21823   0.97732   0.75708   0.00000  Uiso   1.00
H974   H     0.20637   0.99882   0.73030   0.00000  Uiso   1.00
O975   O     0.28171   0.68935   0.90961   0.00000  Uiso   1.00
H976   H     0.29354   0.66787   0.93641   0.00000  Uiso   1.00
S977   S     0.18424   0.78608   0.98045   0.00000  Uiso   1.00
O978   O     0.15117   0.82556   0.98170   0.00000  Uiso   1.00
O979   O     0.18273   0.75236   0.91724   0.00000  Uiso   1.00
O980   O     0.16732   0.74490   0.68914   0.00000  Uiso   1.00
H981   H     0.13813   0.72562   0.66715   0.00000  Uiso   1.00
S982   S     0.31562   0.88102   0.68621   0.00000  Uiso   1.00
O983   O     0.31719   0.91444   0.74957   0.00000  Uiso   1.00
O984   O     0.34903   0.84193   0.68452   0.00000  Uiso   1.00
O985   O     0.33206   0.92251   0.97763   0.00000  Uiso   1.00
H986   H     0.36115   0.94208   0.99960   0.00000  Uiso   1.00
C987   C     0.74771   0.73330   0.81766   0.00000  Uiso   1.00
C988   C     0.75226   0.93336   0.84901   0.00000  Uiso   1.00
C989   C     0.51192   0.75699   0.74656   0.00000  Uiso   1.00
C990   C     0.98826   0.90574   0.92296   0.00000  Uiso   1.00
C991   C     0.74209   0.67667   0.81005   0.00000  Uiso   1.00
C992   C     0.75786   0.99000   0.85663   0.00000  Uiso   1.00
C993   C     0.66473   0.83382   0.83343   0.00000  Uiso   1.00
C994   C     0.83527   0.83239   0.83318   0.00000  Uiso   1.00
C995   C     0.91280   0.86712   0.87801   0.00000  Uiso   1.00
C996   C     0.58735   0.79671   0.79037   0.00000  Uiso   1.00
C997   C     0.88344   0.83063   0.83293   0.00000  Uiso   1.00
C998   C     0.61658   0.83486   0.83375   0.00000  Uiso   1.00
C999   C     0.89980   0.79376   0.78734   0.00000  Uiso   1.00
C1000  C     0.60018   0.87405   0.87652   0.00000  Uiso   1.00
C1001  C     0.94695   0.79363   0.78775   0.00000  Uiso   1.00
C1002  C     0.55307   0.87261   0.87777   0.00000  Uiso   1.00
C1003  C     0.97650   0.83210   0.83276   0.00000  Uiso   1.00
C1004  C     0.52355   0.83371   0.83324   0.00000  Uiso   1.00
C1005  C     0.95913   0.86855   0.87795   0.00000  Uiso   1.00
C1006  C     0.54099   0.79594   0.78956   0.00000  Uiso   1.00
C1007  C     0.96543   0.75552   0.74582   0.00000  Uiso   1.00
C1008  C     0.53474   0.90767   0.92314   0.00000  Uiso   1.00
Cu1009 Cu    0.75501   0.83913   0.89479   0.00000  Uiso   1.00
Cu1010 Cu    0.74500   0.82754   0.77187   0.00000  Uiso   1.00
H1011  H     0.89941   0.89541   0.91242   0.00000  Uiso   1.00
H1012  H     0.60086   0.76697   0.75777   0.00000  Uiso   1.00
H1013  H     0.94461   0.72369   0.71265   0.00000  Uiso   1.00
H1014  H     0.55579   0.93618   0.95988   0.00000  Uiso   1.00
H1015  H     0.52520   0.72726   0.71360   0.00000  Uiso   1.00
H1016  H     0.97504   0.93331   0.95835   0.00000  Uiso   1.00
N1017  N     0.73745   0.81881   0.67951   0.00000  Uiso   1.00
N1018  N     0.76256   0.84786   0.98716   0.00000  Uiso   1.00
O1019  O     0.75326   0.76204   0.87326   0.00000  Uiso   1.00
O1020  O     0.74675   0.90462   0.79341   0.00000  Uiso   1.00
O1021  O     0.74480   0.75226   0.76945   0.00000  Uiso   1.00
O1022  O     0.75520   0.91441   0.89721   0.00000  Uiso   1.00
O1023  O     0.68936   0.83821   0.88524   0.00000  Uiso   1.00
O1024  O     0.81065   0.82845   0.78143   0.00000  Uiso   1.00
O1025  O     0.68090   0.82843   0.78143   0.00000  Uiso   1.00
O1026  O     0.81910   0.83824   0.88523   0.00000  Uiso   1.00
O1027  O     0.86889   0.75757   0.74510   0.00000  Uiso   1.00
H1028  H     0.88047   0.75127   0.70517   0.00000  Uiso   1.00
O1029  O     0.63098   0.91302   0.91533   0.00000  Uiso   1.00
H1030  H     0.61792   0.94673   0.92208   0.00000  Uiso   1.00
O1031  O     0.71823   0.97732   0.75708   0.00000  Uiso   1.00
H1032  H     0.70637   0.99882   0.73030   0.00000  Uiso   1.00
O1033  O     0.78171   0.68935   0.90961   0.00000  Uiso   1.00
H1034  H     0.79354   0.66787   0.93641   0.00000  Uiso   1.00
S1035  S     0.68424   0.78608   0.98045   0.00000  Uiso   1.00
O1036  O     0.65117   0.82556   0.98170   0.00000  Uiso   1.00
O1037  O     0.68273   0.75236   0.91724   0.00000  Uiso   1.00
O1038  O     0.66732   0.74490   0.68914   0.00000  Uiso   1.00
H1039  H     0.63813   0.72562   0.66715   0.00000  Uiso   1.00
S1040  S     0.81562   0.88102   0.68621   0.00000  Uiso   1.00
O1041  O     0.81719   0.91444   0.74957   0.00000  Uiso   1.00
O1042  O     0.84903   0.84193   0.68452   0.00000  Uiso   1.00
O1043  O     0.83206   0.92251   0.97763   0.00000  Uiso   1.00
H1044  H     0.86115   0.94208   0.99960   0.00000  Uiso   1.00
loop_
_geom_bond_atom_site_label_1
_geom_bond_atom_site_label_2
_geom_bond_distance
_geom_bond_site_symmetry_2
_ccdc_geom_bond_type
C1     O33     1.299   .     A
C1     C5      1.448   .     S
C1     O35     1.309   .     A
C2     O34     1.299   .     A
C2     C6      1.448   .     S
C2     O36     1.309   .     A
C3     C20     1.397   .     A
C3     H29     1.084   .     S
C3     C79     1.390   1_455 S
C4     C19     1.398   .     A
C4     H30     1.084   .     S
C4     C80     1.390   .     S
C5     C238    1.359   1_545 S
C5     O277    1.389   1_545 S
C6     C121    1.359   .     S
C6     O163    1.389   .     S
C7     O37     1.306   .     A
C7     C12     1.448   .     S
C7     O39     1.306   .     A
C8     O38     1.307   .     A
C8     C11     1.451   .     S
C8     O40     1.306   .     A
C9     C11     1.394   .     A
C9     H25     1.083   .     S
C9     C19     1.387   .     A
C10    H26     1.083   .     S
C10    C12     1.393   .     A
C10    C20     1.387   .     A
C11    C13     1.406   .     A
C12    C14     1.404   .     A
C13    O41     1.382   .     S
C13    C15     1.414   .     A
C14    C16     1.413   .     A
C14    O43     1.382   .     S
C15    C17     1.420   .     A
C15    C21     1.409   .     A
C16    C18     1.420   .     A
C16    C22     1.408   .     A
C17    C19     1.410   .     A
C17    C76     1.406   .     S
C18    C20     1.410   .     A
C18    C75     1.406   1_455 S
C21    H27     1.081   .     S
C21    C61     1.390   .     S
C22    H28     1.081   .     S
C22    C62     1.390   1_455 S
Cu23   Cu24    2.730   .     S
Cu23   N32     2.052   .     S
Cu23   O40     1.957   .     S
Cu23   O36     1.967   .     S
Cu23   O33     1.963   .     S
Cu23   O37     1.957   .     S
Cu24   O38     1.957   .     S
Cu24   N31     2.052   .     S
Cu24   O35     1.967   .     S
Cu24   O39     1.957   .     S
Cu24   O34     1.963   .     S
N31    N728    1.295   1_554 S
N31    S745    1.741   1_554 S
N32    N379    1.295   .     S
N32    S402    1.741   .     S
O41    H42     0.989   .     S
O43    H44     0.989   .     S
O45    H46     0.990   .     S
O45    C121    1.389   .     S
O47    H48     0.990   .     S
O47    C238    1.389   1_545 S
S49    O50     1.503   .     D
S49    O51     1.496   .     D
S49    N379    1.741   .     S
S49    O400    1.680   .     S
O52    H53     0.991   .     S
O52    S745    1.680   1_554 S
S54    O56     1.502   .     D
S54    O55     1.496   .     D
S54    N728    1.741   1_554 S
S54    O753    1.681   1_554 S
O57    H58     0.991   .     S
O57    S402    1.681   .     S
C59    O91     1.299   .     A
C59    C63     1.448   .     S
C59    O93     1.309   .     A
C60    O92     1.299   .     A
C60    C64     1.448   .     S
C60    O94     1.309   .     A
C61    C78     1.397   .     A
C61    H87     1.084   .     S
C62    C77     1.398   .     A
C62    H88     1.084   .     S
C62    C22     1.390   1_655 S
C63    C296    1.359   1_545 S
C63    O335    1.389   1_545 S
C64    C179    1.359   .     S
C64    O221    1.389   .     S
C65    O95     1.306   .     A
C65    C70     1.448   .     S
C65    O97     1.306   .     A
C66    O96     1.307   .     A
C66    C69     1.451   .     S
C66    O98     1.306   .     A
C67    C69     1.394   .     A
C67    H83     1.083   .     S
C67    C77     1.387   .     A
C68    H84     1.083   .     S
C68    C70     1.393   .     A
C68    C78     1.387   .     A
C69    C71     1.406   .     A
C70    C72     1.404   .     A
C71    O99     1.382   .     S
C71    C73     1.414   .     A
C72    C74     1.413   .     A
C72    O101    1.382   .     S
C73    C75     1.420   .     A
C73    C79     1.409   .     A
C74    C76     1.420   .     A
C74    C80     1.408   .     A
C75    C77     1.410   .     A
C75    C18     1.406   1_655 S
C76    C78     1.410   .     A
C79    H85     1.081   .     S
C79    C3      1.390   1_655 S
C80    H86     1.081   .     S
Cu81   Cu82    2.730   .     S
Cu81   N90     2.052   .     S
Cu81   O98     1.957   .     S
Cu81   O94     1.967   .     S
Cu81   O91     1.963   .     S
Cu81   O95     1.957   .     S
Cu82   O96     1.957   .     S
Cu82   N89     2.052   .     S
Cu82   O93     1.967   .     S
Cu82   O97     1.957   .     S
Cu82   O92     1.963   .     S
N89    N786    1.295   1_554 S
N89    S803    1.741   1_554 S
N90    N437    1.295   .     S
N90    S460    1.741   .     S
O99    H100    0.989   .     S
O101   H102    0.989   .     S
O103   H104    0.990   .     S
O103   C179    1.389   .     S
O105   H106    0.990   .     S
O105   C296    1.389   1_545 S
S107   O108    1.503   .     D
S107   O109    1.496   .     D
S107   N437    1.741   .     S
S107   O458    1.680   .     S
O110   H111    0.991   .     S
O110   S803    1.680   1_554 S
S112   O114    1.502   .     D
S112   O113    1.496   .     D
S112   N786    1.741   1_554 S
S112   O811    1.681   1_554 S
O115   H116    0.991   .     S
O115   S460    1.681   .     S
C117   O149    1.299   .     A
C117   C121    1.448   .     S
C117   O151    1.309   .     A
C118   O150    1.299   .     A
C118   C122    1.448   .     S
C118   O152    1.309   .     A
C119   C136    1.397   .     A
C119   H145    1.084   .     S
C119   C195    1.390   1_455 S
C120   C135    1.398   .     A
C120   H146    1.084   .     S
C120   C196    1.390   .     S
C122   C237    1.359   .     S
C122   O279    1.389   .     S
C123   O153    1.306   .     A
C123   C128    1.448   .     S
C123   O155    1.306   .     A
C124   O154    1.307   .     A
C124   C127    1.451   .     S
C124   O156    1.306   .     A
C125   C127    1.394   .     A
C125   H141    1.083   .     S
C125   C135    1.387   .     A
C126   H142    1.083   .     S
C126   C128    1.393   .     A
C126   C136    1.387   .     A
C127   C129    1.406   .     A
C128   C130    1.404   .     A
C129   O157    1.382   .     S
C129   C131    1.414   .     A
C130   C132    1.413   .     A
C130   O159    1.382   .     S
C131   C133    1.420   .     A
C131   C137    1.409   .     A
C132   C134    1.420   .     A
C132   C138    1.408   .     A
C133   C135    1.410   .     A
C133   C192    1.406   .     S
C134   C136    1.410   .     A
C134   C191    1.406   1_455 S
C137   H143    1.081   .     S
C137   C177    1.390   .     S
C138   H144    1.081   .     S
C138   C178    1.390   1_455 S
Cu139  Cu140   2.730   .     S
Cu139  N148    2.052   .     S
Cu139  O156    1.957   .     S
Cu139  O152    1.967   .     S
Cu139  O149    1.963   .     S
Cu139  O153    1.957   .     S
Cu140  O154    1.957   .     S
Cu140  N147    2.052   .     S
Cu140  O151    1.967   .     S
Cu140  O155    1.957   .     S
Cu140  O150    1.963   .     S
N147   N844    1.295   1_554 S
N147   S861    1.741   1_554 S
N148   N495    1.295   .     S
N148   S518    1.741   .     S
O157   H158    0.989   .     S
O159   H160    0.989   .     S
O161   H162    0.990   .     S
O161   C237    1.389   .     S
O163   H164    0.990   .     S
S165   O166    1.503   .     D
S165   O167    1.496   .     D
S165   N495    1.741   .     S
S165   O516    1.680   .     S
O168   H169    0.991   .     S
O168   S861    1.680   1_554 S
S170   O172    1.502   .     D
S170   O171    1.496   .     D
S170   N844    1.741   1_554 S
S170   O869    1.681   1_554 S
O173   H174    0.991   .     S
O173   S518    1.681   .     S
C175   O207    1.299   .     A
C175   C179    1.448   .     S
C175   O209    1.309   .     A
C176   O208    1.299   .     A
C176   C180    1.448   .     S
C176   O210    1.309   .     A
C177   C194    1.397   .     A
C177   H203    1.084   .     S
C178   C193    1.398   .     A
C178   H204    1.084   .     S
C178   C138    1.390   1_655 S
C180   C295    1.359   .     S
C180   O337    1.389   .     S
C181   O211    1.306   .     A
C181   C186    1.448   .     S
C181   O213    1.306   .     A
C182   O212    1.307   .     A
C182   C185    1.451   .     S
C182   O214    1.306   .     A
C183   C185    1.394   .     A
C183   H199    1.083   .     S
C183   C193    1.387   .     A
C184   H200    1.083   .     S
C184   C186    1.393   .     A
C184   C194    1.387   .     A
C185   C187    1.406   .     A
C186   C188    1.404   .     A
C187   O215    1.382   .     S
C187   C189    1.414   .     A
C188   C190    1.413   .     A
C188   O217    1.382   .     S
C189   C191    1.420   .     A
C189   C195    1.409   .     A
C190   C192    1.420   .     A
C190   C196    1.408   .     A
C191   C193    1.410   .     A
C191   C134    1.406   1_655 S
C192   C194    1.410   .     A
C195   H201    1.081   .     S
C195   C119    1.390   1_655 S
C196   H202    1.081   .     S
Cu197  Cu198   2.730   .     S
Cu197  N206    2.052   .     S
Cu197  O214    1.957   .     S
Cu197  O210    1.967   .     S
Cu197  O207    1.963   .     S
Cu197  O211    1.957   .     S
Cu198  O212    1.957   .     S
Cu198  N205    2.052   .     S
Cu198  O209    1.967   .     S
Cu198  O213    1.957   .     S
Cu198  O208    1.963   .     S
N205   N902    1.295   1_554 S
N205   S919    1.741   1_554 S
N206   N553    1.295   .     S
N206   S576    1.741   .     S
O215   H216    0.989   .     S
O217   H218    0.989   .     S
O219   H220    0.990   .     S
O219   C295    1.389   .     S
O221   H222    0.990   .     S
S223   O224    1.503   .     D
S223   O225    1.496   .     D
S223   N553    1.741   .     S
S223   O574    1.680   .     S
O226   H227    0.991   .     S
O226   S919    1.680   1_554 S
S228   O230    1.502   .     D
S228   O229    1.496   .     D
S228   N902    1.741   1_554 S
S228   O927    1.681   1_554 S
O231   H232    0.991   .     S
O231   S576    1.681   .     S
C233   O265    1.299   .     A
C233   C237    1.448   .     S
C233   O267    1.309   .     A
C234   O266    1.299   .     A
C234   C238    1.448   .     S
C234   O268    1.309   .     A
C235   C252    1.397   .     A
C235   H261    1.084   .     S
C235   C311    1.390   1_455 S
C236   C251    1.398   .     A
C236   H262    1.084   .     S
C236   C312    1.390   .     S
C238   C5      1.359   1_565 S
C238   O47     1.389   1_565 S
C239   O269    1.306   .     A
C239   C244    1.448   .     S
C239   O271    1.306   .     A
C240   O270    1.307   .     A
C240   C243    1.451   .     S
C240   O272    1.306   .     A
C241   C243    1.394   .     A
C241   H257    1.083   .     S
C241   C251    1.387   .     A
C242   H258    1.083   .     S
C242   C244    1.393   .     A
C242   C252    1.387   .     A
C243   C245    1.406   .     A
C244   C246    1.404   .     A
C245   O273    1.382   .     S
C245   C247    1.414   .     A
C246   C248    1.413   .     A
C246   O275    1.382   .     S
C247   C249    1.420   .     A
C247   C253    1.409   .     A
C248   C250    1.420   .     A
C248   C254    1.408   .     A
C249   C251    1.410   .     A
C249   C308    1.406   .     S
C250   C252    1.410   .     A
C250   C307    1.406   1_455 S
C253   H259    1.081   .     S
C253   C293    1.390   .     S
C254   H260    1.081   .     S
C254   C294    1.390   1_455 S
Cu255  Cu256   2.730   .     S
Cu255  N264    2.052   .     S
Cu255  O272    1.957   .     S
Cu255  O268    1.967   .     S
Cu255  O265    1.963   .     S
Cu255  O269    1.957   .     S
Cu256  O270    1.957   .     S
Cu256  N263    2.052   .     S
Cu256  O267    1.967   .     S
Cu256  O271    1.957   .     S
Cu256  O266    1.963   .     S
N263   N960    1.295   1_554 S
N263   S977    1.741   1_554 S
N264   N611    1.295   .     S
N264   S634    1.741   .     S
O273   H274    0.989   .     S
O275   H276    0.989   .     S
O277   H278    0.990   .     S
O277   C5      1.389   1_565 S
O279   H280    0.990   .     S
S281   O282    1.503   .     D
S281   O283    1.496   .     D
S281   N611    1.741   .     S
S281   O632    1.680   .     S
O284   H285    0.991   .     S
O284   S977    1.680   1_554 S
S286   O288    1.502   .     D
S286   O287    1.496   .     D
S286   N960    1.741   1_554 S
S286   O985    1.681   1_554 S
O289   H290    0.991   .     S
O289   S634    1.681   .     S
C291   O323    1.299   .     A
C291   C295    1.448   .     S
C291   O325    1.309   .     A
C292   O324    1.299   .     A
C292   C296    1.448   .     S
C292   O326    1.309   .     A
C293   C310    1.397   .     A
C293   H319    1.084   .     S
C294   C309    1.398   .     A
C294   H320    1.084   .     S
C294   C254    1.390   1_655 S
C296   C63     1.359   1_565 S
C296   O105    1.389   1_565 S
C297   O327    1.306   .     A
C297   C302    1.448   .     S
C297   O329    1.306   .     A
C298   O328    1.307   .     A
C298   C301    1.451   .     S
C298   O330    1.306   .     A
C299   C301    1.394   .     A
C299   H315    1.083   .     S
C299   C309    1.387   .     A
C300   H316    1.083   .     S
C300   C302    1.393   .     A
C300   C310    1.387   .     A
C301   C303    1.406   .     A
C302   C304    1.404   .     A
C303   O331    1.382   .     S
C303   C305    1.414   .     A
C304   C306    1.413   .     A
C304   O333    1.382   .     S
C305   C307    1.420   .     A
C305   C311    1.409   .     A
C306   C308    1.420   .     A
C306   C312    1.408   .     A
C307   C309    1.410   .     A
C307   C250    1.406   1_655 S
C308   C310    1.410   .     A
C311   H317    1.081   .     S
C311   C235    1.390   1_655 S
C312   H318    1.081   .     S
Cu313  Cu314   2.730   .     S
Cu313  N322    2.052   .     S
Cu313  O330    1.957   .     S
Cu313  O326    1.967   .     S
Cu313  O323    1.963   .     S
Cu313  O327    1.957   .     S
Cu314  O328    1.957   .     S
Cu314  N321    2.052   .     S
Cu314  O325    1.967   .     S
Cu314  O329    1.957   .     S
Cu314  O324    1.963   .     S
N321   N1018   1.295   1_554 S
N321   S1035   1.741   1_554 S
N322   N669    1.295   .     S
N322   S692    1.741   .     S
O331   H332    0.989   .     S
O333   H334    0.989   .     S
O335   H336    0.990   .     S
O335   C63     1.389   1_565 S
O337   H338    0.990   .     S
S339   O340    1.503   .     D
S339   O341    1.496   .     D
S339   N669    1.741   .     S
S339   O690    1.680   .     S
O342   H343    0.991   .     S
O342   S1035   1.680   1_554 S
S344   O346    1.502   .     D
S344   O345    1.496   .     D
S344   N1018   1.741   1_554 S
S344   O1043   1.681   1_554 S
O347   H348    0.991   .     S
O347   S692    1.681   .     S
C349   O381    1.299   .     A
C349   C353    1.448   .     S
C349   O383    1.309   .     A
C350   O382    1.299   .     A
C350   C354    1.448   .     S
C350   O384    1.309   .     A
C351   C368    1.397   .     A
C351   H377    1.084   .     S
C351   C427    1.390   1_455 S
C352   C367    1.398   .     A
C352   H378    1.084   .     S
C352   C428    1.390   .     S
C353   C586    1.359   1_545 S
C353   O625    1.389   1_545 S
C354   C469    1.359   .     S
C354   O511    1.389   .     S
C355   O385    1.306   .     A
C355   C360    1.448   .     S
C355   O387    1.306   .     A
C356   O386    1.307   .     A
C356   C359    1.451   .     S
C356   O388    1.306   .     A
C357   C359    1.394   .     A
C357   H373    1.083   .     S
C357   C367    1.387   .     A
C358   H374    1.083   .     S
C358   C360    1.393   .     A
C358   C368    1.387   .     A
C359   C361    1.406   .     A
C360   C362    1.404   .     A
C361   O389    1.382   .     S
C361   C363    1.414   .     A
C362   C364    1.413   .     A
C362   O391    1.382   .     S
C363   C365    1.420   .     A
C363   C369    1.409   .     A
C364   C366    1.420   .     A
C364   C370    1.408   .     A
C365   C367    1.410   .     A
C365   C424    1.406   .     S
C366   C368    1.410   .     A
C366   C423    1.406   1_455 S
C369   H375    1.081   .     S
C369   C409    1.390   .     S
C370   H376    1.081   .     S
C370   C410    1.390   1_455 S
Cu371  Cu372   2.730   .     S
Cu371  N380    2.052   .     S
Cu371  O388    1.957   .     S
Cu371  O384    1.967   .     S
Cu371  O381    1.963   .     S
Cu371  O385    1.957   .     S
Cu372  O386    1.957   .     S
Cu372  N379    2.052   .     S
Cu372  O383    1.967   .     S
Cu372  O387    1.957   .     S
Cu372  O382    1.963   .     S
N380   N727    1.295   .     S
N380   S750    1.741   .     S
O389   H390    0.989   .     S
O391   H392    0.989   .     S
O393   H394    0.990   .     S
O393   C469    1.389   .     S
O395   H396    0.990   .     S
O395   C586    1.389   1_545 S
S397   O398    1.503   .     D
S397   O399    1.496   .     D
S397   N727    1.741   .     S
S397   O748    1.680   .     S
O400   H401    0.991   .     S
S402   O404    1.502   .     D
S402   O403    1.496   .     D
O405   H406    0.991   .     S
O405   S750    1.681   .     S
C407   O439    1.299   .     A
C407   C411    1.448   .     S
C407   O441    1.309   .     A
C408   O440    1.299   .     A
C408   C412    1.448   .     S
C408   O442    1.309   .     A
C409   C426    1.397   .     A
C409   H435    1.084   .     S
C410   C425    1.398   .     A
C410   H436    1.084   .     S
C410   C370    1.390   1_655 S
C411   C644    1.359   1_545 S
C411   O683    1.389   1_545 S
C412   C527    1.359   .     S
C412   O569    1.389   .     S
C413   O443    1.306   .     A
C413   C418    1.448   .     S
C413   O445    1.306   .     A
C414   O444    1.307   .     A
C414   C417    1.451   .     S
C414   O446    1.306   .     A
C415   C417    1.394   .     A
C415   H431    1.083   .     S
C415   C425    1.387   .     A
C416   H432    1.083   .     S
C416   C418    1.393   .     A
C416   C426    1.387   .     A
C417   C419    1.406   .     A
C418   C420    1.404   .     A
C419   O447    1.382   .     S
C419   C421    1.414   .     A
C420   C422    1.413   .     A
C420   O449    1.382   .     S
C421   C423    1.420   .     A
C421   C427    1.409   .     A
C422   C424    1.420   .     A
C422   C428    1.408   .     A
C423   C425    1.410   .     A
C423   C366    1.406   1_655 S
C424   C426    1.410   .     A
C427   H433    1.081   .     S
C427   C351    1.390   1_655 S
C428   H434    1.081   .     S
Cu429  Cu430   2.730   .     S
Cu429  N438    2.052   .     S
Cu429  O446    1.957   .     S
Cu429  O442    1.967   .     S
Cu429  O439    1.963   .     S
Cu429  O443    1.957   .     S
Cu430  O444    1.957   .     S
Cu430  N437    2.052   .     S
Cu430  O441    1.967   .     S
Cu430  O445    1.957   .     S
Cu430  O440    1.963   .     S
N438   N785    1.295   .     S
N438   S808    1.741   .     S
O447   H448    0.989   .     S
O449   H450    0.989   .     S
O451   H452    0.990   .     S
O451   C527    1.389   .     S
O453   H454    0.990   .     S
O453   C644    1.389   1_545 S
S455   O456    1.503   .     D
S455   O457    1.496   .     D
S455   N785    1.741   .     S
S455   O806    1.680   .     S
O458   H459    0.991   .     S
S460   O462    1.502   .     D
S460   O461    1.496   .     D
O463   H464    0.991   .     S
O463   S808    1.681   .     S
C465   O497    1.299   .     A
C465   C469    1.448   .     S
C465   O499    1.309   .     A
C466   O498    1.299   .     A
C466   C470    1.448   .     S
C466   O500    1.309   .     A
C467   C484    1.397   .     A
C467   H493    1.084   .     S
C467   C543    1.390   1_455 S
C468   C483    1.398   .     A
C468   H494    1.084   .     S
C468   C544    1.390   .     S
C470   C585    1.359   .     S
C470   O627    1.389   .     S
C471   O501    1.306   .     A
C471   C476    1.448   .     S
C471   O503    1.306   .     A
C472   O502    1.307   .     A
C472   C475    1.451   .     S
C472   O504    1.306   .     A
C473   C475    1.394   .     A
C473   H489    1.083   .     S
C473   C483    1.387   .     A
C474   H490    1.083   .     S
C474   C476    1.393   .     A
C474   C484    1.387   .     A
C475   C477    1.406   .     A
C476   C478    1.404   .     A
C477   O505    1.382   .     S
C477   C479    1.414   .     A
C478   C480    1.413   .     A
C478   O507    1.382   .     S
C479   C481    1.420   .     A
C479   C485    1.409   .     A
C480   C482    1.420   .     A
C480   C486    1.408   .     A
C481   C483    1.410   .     A
C481   C540    1.406   .     S
C482   C484    1.410   .     A
C482   C539    1.406   1_455 S
C485   H491    1.081   .     S
C485   C525    1.390   .     S
C486   H492    1.081   .     S
C486   C526    1.390   1_455 S
Cu487  Cu488   2.730   .     S
Cu487  N496    2.052   .     S
Cu487  O504    1.957   .     S
Cu487  O500    1.967   .     S
Cu487  O497    1.963   .     S
Cu487  O501    1.957   .     S
Cu488  O502    1.957   .     S
Cu488  N495    2.052   .     S
Cu488  O499    1.967   .     S
Cu488  O503    1.957   .     S
Cu488  O498    1.963   .     S
N496   N843    1.295   .     S
N496   S866    1.741   .     S
O505   H506    0.989   .     S
O507   H508    0.989   .     S
O509   H510    0.990   .     S
O509   C585    1.389   .     S
O511   H512    0.990   .     S
S513   O514    1.503   .     D
S513   O515    1.496   .     D
S513   N843    1.741   .     S
S513   O864    1.680   .     S
O516   H517    0.991   .     S
S518   O520    1.502   .     D
S518   O519    1.496   .     D
O521   H522    0.991   .     S
O521   S866    1.681   .     S
C523   O555    1.299   .     A
C523   C527    1.448   .     S
C523   O557    1.309   .     A
C524   O556    1.299   .     A
C524   C528    1.448   .     S
C524   O558    1.309   .     A
C525   C542    1.397   .     A
C525   H551    1.084   .     S
C526   C541    1.398   .     A
C526   H552    1.084   .     S
C526   C486    1.390   1_655 S
C528   C643    1.359   .     S
C528   O685    1.389   .     S
C529   O559    1.306   .     A
C529   C534    1.448   .     S
C529   O561    1.306   .     A
C530   O560    1.307   .     A
C530   C533    1.451   .     S
C530   O562    1.306   .     A
C531   C533    1.394   .     A
C531   H547    1.083   .     S
C531   C541    1.387   .     A
C532   H548    1.083   .     S
C532   C534    1.393   .     A
C532   C542    1.387   .     A
C533   C535    1.406   .     A
C534   C536    1.404   .     A
C535   O563    1.382   .     S
C535   C537    1.414   .     A
C536   C538    1.413   .     A
C536   O565    1.382   .     S
C537   C539    1.420   .     A
C537   C543    1.409   .     A
C538   C540    1.420   .     A
C538   C544    1.408   .     A
C539   C541    1.410   .     A
C539   C482    1.406   1_655 S
C540   C542    1.410   .     A
C543   H549    1.081   .     S
C543   C467    1.390   1_655 S
C544   H550    1.081   .     S
Cu545  Cu546   2.730   .     S
Cu545  N554    2.052   .     S
Cu545  O562    1.957   .     S
Cu545  O558    1.967   .     S
Cu545  O555    1.963   .     S
Cu545  O559    1.957   .     S
Cu546  O560    1.957   .     S
Cu546  N553    2.052   .     S
Cu546  O557    1.967   .     S
Cu546  O561    1.957   .     S
Cu546  O556    1.963   .     S
N554   N901    1.295   .     S
N554   S924    1.741   .     S
O563   H564    0.989   .     S
O565   H566    0.989   .     S
O567   H568    0.990   .     S
O567   C643    1.389   .     S
O569   H570    0.990   .     S
S571   O572    1.503   .     D
S571   O573    1.496   .     D
S571   N901    1.741   .     S
S571   O922    1.680   .     S
O574   H575    0.991   .     S
S576   O578    1.502   .     D
S576   O577    1.496   .     D
O579   H580    0.991   .     S
O579   S924    1.681   .     S
C581   O613    1.299   .     A
C581   C585    1.448   .     S
C581   O615    1.309   .     A
C582   O614    1.299   .     A
C582   C586    1.448   .     S
C582   O616    1.309   .     A
C583   C600    1.397   .     A
C583   H609    1.084   .     S
C583   C659    1.390   1_455 S
C584   C599    1.398   .     A
C584   H610    1.084   .     S
C584   C660    1.390   .     S
C586   C353    1.359   1_565 S
C586   O395    1.389   1_565 S
C587   O617    1.306   .     A
C587   C592    1.448   .     S
C587   O619    1.306   .     A
C588   O618    1.307   .     A
C588   C591    1.451   .     S
C588   O620    1.306   .     A
C589   C591    1.394   .     A
C589   H605    1.083   .     S
C589   C599    1.387   .     A
C590   H606    1.083   .     S
C590   C592    1.393   .     A
C590   C600    1.387   .     A
C591   C593    1.406   .     A
C592   C594    1.404   .     A
C593   O621    1.382   .     S
C593   C595    1.414   .     A
C594   C596    1.413   .     A
C594   O623    1.382   .     S
C595   C597    1.420   .     A
C595   C601    1.409   .     A
C596   C598    1.420   .     A
C596   C602    1.408   .     A
C597   C599    1.410   .     A
C597   C656    1.406   .     S
C598   C600    1.410   .     A
C598   C655    1.406   1_455 S
C601   H607    1.081   .     S
C601   C641    1.390   .     S
C602   H608    1.081   .     S
C602   C642    1.390   1_455 S
Cu603  Cu604   2.730   .     S
Cu603  N612    2.052   .     S
Cu603  O620    1.957   .     S
Cu603  O616    1.967   .     S
Cu603  O613    1.963   .     S
Cu603  O617    1.957   .     S
Cu604  O618    1.957   .     S
Cu604  N611    2.052   .     S
Cu604  O615    1.967   .     S
Cu604  O619    1.957   .     S
Cu604  O614    1.963   .     S
N612   N959    1.295   .     S
N612   S982    1.741   .     S
O621   H622    0.989   .     S
O623   H624    0.989   .     S
O625   H626    0.990   .     S
O625   C353    1.389   1_565 S
O627   H628    0.990   .     S
S629   O630    1.503   .     D
S629   O631    1.496   .     D
S629   N959    1.741   .     S
S629   O980    1.680   .     S
O632   H633    0.991   .     S
S634   O636    1.502   .     D
S634   O635    1.496   .     D
O637   H638    0.991   .     S
O637   S982    1.681   .     S
C639   O671    1.299   .     A
C639   C643    1.448   .     S
C639   O673    1.309   .     A
C640   O672    1.299   .     A
C640   C644    1.448   .     S
C640   O674    1.309   .     A
C641   C658    1.397   .     A
C641   H667    1.084   .     S
C642   C657    1.398   .     A
C642   H668    1.084   .     S
C642   C602    1.390   1_655 S
C644   C411    1.359   1_565 S
C644   O453    1.389   1_565 S
C645   O675    1.306   .     A
C645   C650    1.448   .     S
C645   O677    1.306   .     A
C646   O676    1.307   .     A
C646   C649    1.451   .     S
C646   O678    1.306   .     A
C647   C649    1.394   .     A
C647   H663    1.083   .     S
C647   C657    1.387   .     A
C648   H664    1.083   .     S
C648   C650    1.393   .     A
C648   C658    1.387   .     A
C649   C651    1.406   .     A
C650   C652    1.404   .     A
C651   O679    1.382   .     S
C651   C653    1.414   .     A
C652   C654    1.413   .     A
C652   O681    1.382   .     S
C653   C655    1.420   .     A
C653   C659    1.409   .     A
C654   C656    1.420   .     A
C654   C660    1.408   .     A
C655   C657    1.410   .     A
C655   C598    1.406   1_655 S
C656   C658    1.410   .     A
C659   H665    1.081   .     S
C659   C583    1.390   1_655 S
C660   H666    1.081   .     S
Cu661  Cu662   2.730   .     S
Cu661  N670    2.052   .     S
Cu661  O678    1.957   .     S
Cu661  O674    1.967   .     S
Cu661  O671    1.963   .     S
Cu661  O675    1.957   .     S
Cu662  O676    1.957   .     S
Cu662  N669    2.052   .     S
Cu662  O673    1.967   .     S
Cu662  O677    1.957   .     S
Cu662  O672    1.963   .     S
N670   N1017   1.295   .     S
N670   S1040   1.741   .     S
O679   H680    0.989   .     S
O681   H682    0.989   .     S
O683   H684    0.990   .     S
O683   C411    1.389   1_565 S
O685   H686    0.990   .     S
S687   O688    1.503   .     D
S687   O689    1.496   .     D
S687   N1017   1.741   .     S
S687   O1038   1.680   .     S
O690   H691    0.991   .     S
S692   O694    1.502   .     D
S692   O693    1.496   .     D
O695   H696    0.991   .     S
O695   S1040   1.681   .     S
C697   O729    1.299   .     A
C697   C701    1.448   .     S
C697   O731    1.309   .     A
C698   O730    1.299   .     A
C698   C702    1.448   .     S
C698   O732    1.309   .     A
C699   C716    1.397   .     A
C699   H725    1.084   .     S
C699   C775    1.390   1_455 S
C700   C715    1.398   .     A
C700   H726    1.084   .     S
C700   C776    1.390   .     S
C701   C934    1.359   1_545 S
C701   O973    1.389   1_545 S
C702   C817    1.359   .     S
C702   O859    1.389   .     S
C703   O733    1.306   .     A
C703   C708    1.448   .     S
C703   O735    1.306   .     A
C704   O734    1.307   .     A
C704   C707    1.451   .     S
C704   O736    1.306   .     A
C705   C707    1.394   .     A
C705   H721    1.083   .     S
C705   C715    1.387   .     A
C706   H722    1.083   .     S
C706   C708    1.393   .     A
C706   C716    1.387   .     A
C707   C709    1.406   .     A
C708   C710    1.404   .     A
C709   O737    1.382   .     S
C709   C711    1.414   .     A
C710   C712    1.413   .     A
C710   O739    1.382   .     S
C711   C713    1.420   .     A
C711   C717    1.409   .     A
C712   C714    1.420   .     A
C712   C718    1.408   .     A
C713   C715    1.410   .     A
C713   C772    1.406   .     S
C714   C716    1.410   .     A
C714   C771    1.406   1_455 S
C717   H723    1.081   .     S
C717   C757    1.390   .     S
C718   H724    1.081   .     S
C718   C758    1.390   1_455 S
Cu719  Cu720   2.730   .     S
Cu719  N728    2.052   .     S
Cu719  O736    1.957   .     S
Cu719  O732    1.967   .     S
Cu719  O729    1.963   .     S
Cu719  O733    1.957   .     S
Cu720  O734    1.957   .     S
Cu720  N727    2.052   .     S
Cu720  O731    1.967   .     S
Cu720  O735    1.957   .     S
Cu720  O730    1.963   .     S
N728   N31     1.295   1_556 S
N728   S54     1.741   1_556 S
O737   H738    0.989   .     S
O739   H740    0.989   .     S
O741   H742    0.990   .     S
O741   C817    1.389   .     S
O743   H744    0.990   .     S
O743   C934    1.389   1_545 S
S745   O746    1.503   .     D
S745   O747    1.496   .     D
S745   N31     1.741   1_556 S
S745   O52     1.680   1_556 S
O748   H749    0.991   .     S
S750   O752    1.502   .     D
S750   O751    1.496   .     D
O753   H754    0.991   .     S
O753   S54     1.681   1_556 S
C755   O787    1.299   .     A
C755   C759    1.448   .     S
C755   O789    1.309   .     A
C756   O788    1.299   .     A
C756   C760    1.448   .     S
C756   O790    1.309   .     A
C757   C774    1.397   .     A
C757   H783    1.084   .     S
C758   C773    1.398   .     A
C758   H784    1.084   .     S
C758   C718    1.390   1_655 S
C759   C992    1.359   1_545 S
C759   O1031   1.389   1_545 S
C760   C875    1.359   .     S
C760   O917    1.389   .     S
C761   O791    1.306   .     A
C761   C766    1.448   .     S
C761   O793    1.306   .     A
C762   O792    1.307   .     A
C762   C765    1.451   .     S
C762   O794    1.306   .     A
C763   C765    1.394   .     A
C763   H779    1.083   .     S
C763   C773    1.387   .     A
C764   H780    1.083   .     S
C764   C766    1.393   .     A
C764   C774    1.387   .     A
C765   C767    1.406   .     A
C766   C768    1.404   .     A
C767   O795    1.382   .     S
C767   C769    1.414   .     A
C768   C770    1.413   .     A
C768   O797    1.382   .     S
C769   C771    1.420   .     A
C769   C775    1.409   .     A
C770   C772    1.420   .     A
C770   C776    1.408   .     A
C771   C773    1.410   .     A
C771   C714    1.406   1_655 S
C772   C774    1.410   .     A
C775   H781    1.081   .     S
C775   C699    1.390   1_655 S
C776   H782    1.081   .     S
Cu777  Cu778   2.730   .     S
Cu777  N786    2.052   .     S
Cu777  O794    1.957   .     S
Cu777  O790    1.967   .     S
Cu777  O787    1.963   .     S
Cu777  O791    1.957   .     S
Cu778  O792    1.957   .     S
Cu778  N785    2.052   .     S
Cu778  O789    1.967   .     S
Cu778  O793    1.957   .     S
Cu778  O788    1.963   .     S
N786   N89     1.295   1_556 S
N786   S112    1.741   1_556 S
O795   H796    0.989   .     S
O797   H798    0.989   .     S
O799   H800    0.990   .     S
O799   C875    1.389   .     S
O801   H802    0.990   .     S
O801   C992    1.389   1_545 S
S803   O804    1.503   .     D
S803   O805    1.496   .     D
S803   N89     1.741   1_556 S
S803   O110    1.680   1_556 S
O806   H807    0.991   .     S
S808   O810    1.502   .     D
S808   O809    1.496   .     D
O811   H812    0.991   .     S
O811   S112    1.681   1_556 S
C813   O845    1.299   .     A
C813   C817    1.448   .     S
C813   O847    1.309   .     A
C814   O846    1.299   .     A
C814   C818    1.448   .     S
C814   O848    1.309   .     A
C815   C832    1.397   .     A
C815   H841    1.084   .     S
C815   C891    1.390   1_455 S
C816   C831    1.398   .     A
C816   H842    1.084   .     S
C816   C892    1.390   .     S
C818   C933    1.359   .     S
C818   O975    1.389   .     S
C819   O849    1.306   .     A
C819   C824    1.448   .     S
C819   O851    1.306   .     A
C820   O850    1.307   .     A
C820   C823    1.451   .     S
C820   O852    1.306   .     A
C821   C823    1.394   .     A
C821   H837    1.083   .     S
C821   C831    1.387   .     A
C822   H838    1.083   .     S
C822   C824    1.393   .     A
C822   C832    1.387   .     A
C823   C825    1.406   .     A
C824   C826    1.404   .     A
C825   O853    1.382   .     S
C825   C827    1.414   .     A
C826   C828    1.413   .     A
C826   O855    1.382   .     S
C827   C829    1.420   .     A
C827   C833    1.409   .     A
C828   C830    1.420   .     A
C828   C834    1.408   .     A
C829   C831    1.410   .     A
C829   C888    1.406   .     S
C830   C832    1.410   .     A
C830   C887    1.406   1_455 S
C833   H839    1.081   .     S
C833   C873    1.390   .     S
C834   H840    1.081   .     S
C834   C874    1.390   1_455 S
Cu835  Cu836   2.730   .     S
Cu835  N844    2.052   .     S
Cu835  O852    1.957   .     S
Cu835  O848    1.967   .     S
Cu835  O845    1.963   .     S
Cu835  O849    1.957   .     S
Cu836  O850    1.957   .     S
Cu836  N843    2.052   .     S
Cu836  O847    1.967   .     S
Cu836  O851    1.957   .     S
Cu836  O846    1.963   .     S
N844   N147    1.295   1_556 S
N844   S170    1.741   1_556 S
O853   H854    0.989   .     S
O855   H856    0.989   .     S
O857   H858    0.990   .     S
O857   C933    1.389   .     S
O859   H860    0.990   .     S
S861   O862    1.503   .     D
S861   O863    1.496   .     D
S861   N147    1.741   1_556 S
S861   O168    1.680   1_556 S
O864   H865    0.991   .     S
S866   O868    1.502   .     D
S866   O867    1.496   .     D
O869   H870    0.991   .     S
O869   S170    1.681   1_556 S
C871   O903    1.299   .     A
C871   C875    1.448   .     S
C871   O905    1.309   .     A
C872   O904    1.299   .     A
C872   C876    1.448   .     S
C872   O906    1.309   .     A
C873   C890    1.397   .     A
C873   H899    1.084   .     S
C874   C889    1.398   .     A
C874   H900    1.084   .     S
C874   C834    1.390   1_655 S
C876   C991    1.359   .     S
C876   O1033   1.389   .     S
C877   O907    1.306   .     A
C877   C882    1.448   .     S
C877   O909    1.306   .     A
C878   O908    1.307   .     A
C878   C881    1.451   .     S
C878   O910    1.306   .     A
C879   C881    1.394   .     A
C879   H895    1.083   .     S
C879   C889    1.387   .     A
C880   H896    1.083   .     S
C880   C882    1.393   .     A
C880   C890    1.387   .     A
C881   C883    1.406   .     A
C882   C884    1.404   .     A
C883   O911    1.382   .     S
C883   C885    1.414   .     A
C884   C886    1.413   .     A
C884   O913    1.382   .     S
C885   C887    1.420   .     A
C885   C891    1.409   .     A
C886   C888    1.420   .     A
C886   C892    1.408   .     A
C887   C889    1.410   .     A
C887   C830    1.406   1_655 S
C888   C890    1.410   .     A
C891   H897    1.081   .     S
C891   C815    1.390   1_655 S
C892   H898    1.081   .     S
Cu893  Cu894   2.730   .     S
Cu893  N902    2.052   .     S
Cu893  O910    1.957   .     S
Cu893  O906    1.967   .     S
Cu893  O903    1.963   .     S
Cu893  O907    1.957   .     S
Cu894  O908    1.957   .     S
Cu894  N901    2.052   .     S
Cu894  O905    1.967   .     S
Cu894  O909    1.957   .     S
Cu894  O904    1.963   .     S
N902   N205    1.295   1_556 S
N902   S228    1.741   1_556 S
O911   H912    0.989   .     S
O913   H914    0.989   .     S
O915   H916    0.990   .     S
O915   C991    1.389   .     S
O917   H918    0.990   .     S
S919   O920    1.503   .     D
S919   O921    1.496   .     D
S919   N205    1.741   1_556 S
S919   O226    1.680   1_556 S
O922   H923    0.991   .     S
S924   O926    1.502   .     D
S924   O925    1.496   .     D
O927   H928    0.991   .     S
O927   S228    1.681   1_556 S
C929   O961    1.299   .     A
C929   C933    1.448   .     S
C929   O963    1.309   .     A
C930   O962    1.299   .     A
C930   C934    1.448   .     S
C930   O964    1.309   .     A
C931   C948    1.397   .     A
C931   H957    1.084   .     S
C931   C1007   1.390   1_455 S
C932   C947    1.398   .     A
C932   H958    1.084   .     S
C932   C1008   1.390   .     S
C934   C701    1.359   1_565 S
C934   O743    1.389   1_565 S
C935   O965    1.306   .     A
C935   C940    1.448   .     S
C935   O967    1.306   .     A
C936   O966    1.307   .     A
C936   C939    1.451   .     S
C936   O968    1.306   .     A
C937   C939    1.394   .     A
C937   H953    1.083   .     S
C937   C947    1.387   .     A
C938   H954    1.083   .     S
C938   C940    1.393   .     A
C938   C948    1.387   .     A
C939   C941    1.406   .     A
C940   C942    1.404   .     A
C941   O969    1.382   .     S
C941   C943    1.414   .     A
C942   C944    1.413   .     A
C942   O971    1.382   .     S
C943   C945    1.420   .     A
C943   C949    1.409   .     A
C944   C946    1.420   .     A
C944   C950    1.408   .     A
C945   C947    1.410   .     A
C945   C1004   1.406   .     S
C946   C948    1.410   .     A
C946   C1003   1.406   1_455 S
C949   H955    1.081   .     S
C949   C989    1.390   .     S
C950   H956    1.081   .     S
C950   C990    1.390   1_455 S
Cu951  Cu952   2.730   .     S
Cu951  N960    2.052   .     S
Cu951  O968    1.957   .     S
Cu951  O964    1.967   .     S
Cu951  O961    1.963   .     S
Cu951  O965    1.957   .     S
Cu952  O966    1.957   .     S
Cu952  N959    2.052   .     S
Cu952  O963    1.967   .     S
Cu952  O967    1.957   .     S
Cu952  O962    1.963   .     S
N960   N263    1.295   1_556 S
N960   S286    1.741   1_556 S
O969   H970    0.989   .     S
O971   H972    0.989   .     S
O973   H974    0.990   .     S
O973   C701    1.389   1_565 S
O975   H976    0.990   .     S
S977   O978    1.503   .     D
S977   O979    1.496   .     D
S977   N263    1.741   1_556 S
S977   O284    1.680   1_556 S
O980   H981    0.991   .     S
S982   O984    1.502   .     D
S982   O983    1.496   .     D
O985   H986    0.991   .     S
O985   S286    1.681   1_556 S
C987   O1019   1.299   .     A
C987   C991    1.448   .     S
C987   O1021   1.309   .     A
C988   O1020   1.299   .     A
C988   C992    1.448   .     S
C988   O1022   1.309   .     A
C989   C1006   1.397   .     A
C989   H1015   1.084   .     S
C990   C1005   1.398   .     A
C990   H1016   1.084   .     S
C990   C950    1.390   1_655 S
C992   C759    1.359   1_565 S
C992   O801    1.389   1_565 S
C993   O1023   1.306   .     A
C993   C998    1.448   .     S
C993   O1025   1.306   .     A
C994   O1024   1.307   .     A
C994   C997    1.451   .     S
C994   O1026   1.306   .     A
C995   C997    1.394   .     A
C995   H1011   1.083   .     S
C995   C1005   1.387   .     A
C996   H1012   1.083   .     S
C996   C998    1.393   .     A
C996   C1006   1.387   .     A
C997   C999    1.406   .     A
C998   C1000   1.404   .     A
C999   O1027   1.382   .     S
C999   C1001   1.414   .     A
C1000  C1002   1.413   .     A
C1000  O1029   1.382   .     S
C1001  C1003   1.420   .     A
C1001  C1007   1.409   .     A
C1002  C1004   1.420   .     A
C1002  C1008   1.408   .     A
C1003  C1005   1.410   .     A
C1003  C946    1.406   1_655 S
C1004  C1006   1.410   .     A
C1007  H1013   1.081   .     S
C1007  C931    1.390   1_655 S
C1008  H1014   1.081   .     S
Cu1009 Cu1010  2.730   .     S
Cu1009 N1018   2.052   .     S
Cu1009 O1026   1.957   .     S
Cu1009 O1022   1.967   .     S
Cu1009 O1019   1.963   .     S
Cu1009 O1023   1.957   .     S
Cu1010 O1024   1.957   .     S
Cu1010 N1017   2.052   .     S
Cu1010 O1021   1.967   .     S
Cu1010 O1025   1.957   .     S
Cu1010 O1020   1.963   .     S
N1018  N321    1.295   1_556 S
N1018  S344    1.741   1_556 S
O1027  H1028   0.989   .     S
O1029  H1030   0.989   .     S
O1031  H1032   0.990   .     S
O1031  C759    1.389   1_565 S
O1033  H1034   0.990   .     S
S1035  O1036   1.503   .     D
S1035  O1037   1.496   .     D
S1035  N321    1.741   1_556 S
S1035  O342    1.680   1_556 S
O1038  H1039   0.991   .     S
S1040  O1042   1.502   .     D
S1040  O1041   1.496   .     D
O1043  H1044   0.991   .     S
O1043  S344    1.681   1_556 S
