data_str_m3_o1_o17_pcu_sym.82
_audit_creation_date              2020-01-03
_audit_creation_method            'Materials Studio'
_symmetry_space_group_name_H-M    'P1'
_symmetry_Int_Tables_number       1
_symmetry_cell_setting            triclinic
loop_
_symmetry_equiv_pos_as_xyz
  x,y,z
_cell_length_a                    31.3600
_cell_length_b                    29.5101
_cell_length_c                    30.0270
_cell_angle_alpha                 90.0005
_cell_angle_beta                  90.0157
_cell_angle_gamma                 89.9999
loop_
_atom_site_label
_atom_site_type_symbol
_atom_site_fract_x
_atom_site_fract_y
_atom_site_fract_z
_atom_site_U_iso_or_equiv
_atom_site_adp_type
_atom_site_occupancy
C1     C     0.08730   0.16667   0.25872   0.00000  Uiso   1.00
C2     C     0.04351   0.16667   0.27506   0.00000  Uiso   1.00
C3     C     0.16669   0.02393   0.28910   0.00000  Uiso   1.00
C4     C     0.16664   0.30939   0.21090   0.00000  Uiso   1.00
C5     C     0.16664   0.02394   0.21090   0.00000  Uiso   1.00
C6     C     0.16669   0.30940   0.28910   0.00000  Uiso   1.00
C7     C     0.16666   0.16667   0.16325   0.00000  Uiso   1.00
C8     C     0.16668   0.16667   0.33674   0.00000  Uiso   1.00
C9     C     0.16667   0.12539   0.40756   0.00000  Uiso   1.00
C10    C     0.16666   0.20794   0.09236   0.00000  Uiso   1.00
C11    C     0.16668   0.16667   0.38467   0.00000  Uiso   1.00
C12    C     0.24604   0.16667   0.25873   0.00000  Uiso   1.00
C13    C     0.16665   0.16667   0.11527   0.00000  Uiso   1.00
C14    C     0.16668   0.20795   0.40756   0.00000  Uiso   1.00
C15    C     0.16665   0.12539   0.09236   0.00000  Uiso   1.00
C16    C     0.16667   0.20826   0.45362   0.00000  Uiso   1.00
C17    C     0.16665   0.12507   0.04629   0.00000  Uiso   1.00
C18    C     0.16667   0.16667   0.47679   0.00000  Uiso   1.00
C19    C     0.16666   0.16667   0.02312   0.00000  Uiso   1.00
C20    C     0.16666   0.12507   0.45362   0.00000  Uiso   1.00
C21    C     0.16666   0.20826   0.04629   0.00000  Uiso   1.00
C22    C     0.16667   0.24942   0.47682   0.00000  Uiso   1.00
C23    C     0.16667   0.24942   0.02309   0.00000  Uiso   1.00
C24    C     0.16665   0.08391   0.02309   0.00000  Uiso   1.00
C25    C     0.16666   0.08391   0.47681   0.00000  Uiso   1.00
C26    C     0.02227   0.12559   0.28445   0.00000  Uiso   1.00
C27    C     0.31109   0.20774   0.28445   0.00000  Uiso   1.00
C28    C     0.31109   0.12559   0.28445   0.00000  Uiso   1.00
C29    C     0.02227   0.20774   0.28445   0.00000  Uiso   1.00
C30    C     0.28984   0.16667   0.27507   0.00000  Uiso   1.00
H31    H     0.16667   0.09348   0.38966   0.00000  Uiso   1.00
H32    H     0.16662   0.29148   0.17953   0.00000  Uiso   1.00
H33    H     0.16662   0.04185   0.17953   0.00000  Uiso   1.00
H34    H     0.16671   0.29151   0.32047   0.00000  Uiso   1.00
H35    H     0.16666   0.23985   0.11025   0.00000  Uiso   1.00
H36    H     0.16667   0.28149   0.04070   0.00000  Uiso   1.00
H37    H     0.16666   0.05185   0.45920   0.00000  Uiso   1.00
H38    H     0.16668   0.23986   0.38966   0.00000  Uiso   1.00
H39    H     0.16665   0.09348   0.11025   0.00000  Uiso   1.00
H40    H     0.16668   0.28149   0.45920   0.00000  Uiso   1.00
H41    H     0.16665   0.05185   0.04070   0.00000  Uiso   1.00
H42    H     0.16671   0.04183   0.32047   0.00000  Uiso   1.00
I43    I     0.05623   0.06651   0.30652   0.00000  Uiso   1.00
I44    I     0.27714   0.26682   0.30653   0.00000  Uiso   1.00
I45    I     0.27714   0.06651   0.30653   0.00000  Uiso   1.00
I46    I     0.05623   0.26682   0.30652   0.00000  Uiso   1.00
N47    N     0.16667   0.28573   0.25000   0.00000  Uiso   1.00
N48    N     0.16667   0.04760   0.25000   0.00000  Uiso   1.00
O49    O     0.10559   0.20487   0.25000   0.00000  Uiso   1.00
O50    O     0.22774   0.12846   0.25000   0.00000  Uiso   1.00
O51    O     0.22774   0.20487   0.25000   0.00000  Uiso   1.00
O52    O     0.10559   0.12846   0.25000   0.00000  Uiso   1.00
O53    O     0.16666   0.20489   0.18392   0.00000  Uiso   1.00
O54    O     0.16667   0.12844   0.31608   0.00000  Uiso   1.00
O55    O     0.16667   0.20489   0.31608   0.00000  Uiso   1.00
O56    O     0.16666   0.12844   0.18392   0.00000  Uiso   1.00
Zn57   Zn    0.16667   0.21771   0.25000   0.00000  Uiso   1.00
Zn58   Zn    0.16667   0.11563   0.25000   0.00000  Uiso   1.00
C59    C     0.42064   0.16667   0.25872   0.00000  Uiso   1.00
C60    C     0.37684   0.16667   0.27506   0.00000  Uiso   1.00
C61    C     0.50002   0.02393   0.28910   0.00000  Uiso   1.00
C62    C     0.49997   0.30939   0.21090   0.00000  Uiso   1.00
C63    C     0.49997   0.02394   0.21090   0.00000  Uiso   1.00
C64    C     0.50002   0.30940   0.28910   0.00000  Uiso   1.00
C65    C     0.49999   0.16667   0.16325   0.00000  Uiso   1.00
C66    C     0.50001   0.16667   0.33674   0.00000  Uiso   1.00
C67    C     0.50000   0.12539   0.40756   0.00000  Uiso   1.00
C68    C     0.49999   0.20794   0.09236   0.00000  Uiso   1.00
C69    C     0.50001   0.16667   0.38467   0.00000  Uiso   1.00
C70    C     0.57937   0.16667   0.25873   0.00000  Uiso   1.00
C71    C     0.49999   0.16667   0.11527   0.00000  Uiso   1.00
C72    C     0.50001   0.20795   0.40756   0.00000  Uiso   1.00
C73    C     0.49998   0.12539   0.09236   0.00000  Uiso   1.00
C74    C     0.50001   0.20826   0.45362   0.00000  Uiso   1.00
C75    C     0.49999   0.12507   0.04629   0.00000  Uiso   1.00
C76    C     0.50000   0.16667   0.47679   0.00000  Uiso   1.00
C77    C     0.49999   0.16667   0.02312   0.00000  Uiso   1.00
C78    C     0.50000   0.12507   0.45362   0.00000  Uiso   1.00
C79    C     0.49999   0.20826   0.04629   0.00000  Uiso   1.00
C80    C     0.50001   0.24942   0.47682   0.00000  Uiso   1.00
C81    C     0.50000   0.24942   0.02309   0.00000  Uiso   1.00
C82    C     0.49999   0.08391   0.02309   0.00000  Uiso   1.00
C83    C     0.49999   0.08391   0.47681   0.00000  Uiso   1.00
C84    C     0.35560   0.12559   0.28445   0.00000  Uiso   1.00
C85    C     0.64442   0.20774   0.28445   0.00000  Uiso   1.00
C86    C     0.64442   0.12559   0.28445   0.00000  Uiso   1.00
C87    C     0.35560   0.20774   0.28445   0.00000  Uiso   1.00
C88    C     0.62317   0.16667   0.27507   0.00000  Uiso   1.00
H89    H     0.50000   0.09348   0.38966   0.00000  Uiso   1.00
H90    H     0.49995   0.29148   0.17953   0.00000  Uiso   1.00
H91    H     0.49995   0.04185   0.17953   0.00000  Uiso   1.00
H92    H     0.50004   0.29151   0.32047   0.00000  Uiso   1.00
H93    H     0.49999   0.23985   0.11025   0.00000  Uiso   1.00
H94    H     0.50000   0.28149   0.04070   0.00000  Uiso   1.00
H95    H     0.49999   0.05185   0.45920   0.00000  Uiso   1.00
H96    H     0.50001   0.23986   0.38966   0.00000  Uiso   1.00
H97    H     0.49998   0.09348   0.11025   0.00000  Uiso   1.00
H98    H     0.50001   0.28149   0.45920   0.00000  Uiso   1.00
H99    H     0.49998   0.05185   0.04070   0.00000  Uiso   1.00
H100   H     0.50004   0.04183   0.32047   0.00000  Uiso   1.00
I101   I     0.38956   0.06651   0.30652   0.00000  Uiso   1.00
I102   I     0.61047   0.26682   0.30653   0.00000  Uiso   1.00
I103   I     0.61047   0.06651   0.30653   0.00000  Uiso   1.00
I104   I     0.38956   0.26682   0.30652   0.00000  Uiso   1.00
N105   N     0.50000   0.28573   0.25000   0.00000  Uiso   1.00
N106   N     0.50000   0.04760   0.25000   0.00000  Uiso   1.00
O107   O     0.43892   0.20487   0.25000   0.00000  Uiso   1.00
O108   O     0.56108   0.12846   0.25000   0.00000  Uiso   1.00
O109   O     0.56108   0.20487   0.25000   0.00000  Uiso   1.00
O110   O     0.43892   0.12846   0.25000   0.00000  Uiso   1.00
O111   O     0.49999   0.20489   0.18392   0.00000  Uiso   1.00
O112   O     0.50001   0.12844   0.31608   0.00000  Uiso   1.00
O113   O     0.50001   0.20489   0.31608   0.00000  Uiso   1.00
O114   O     0.49999   0.12844   0.18392   0.00000  Uiso   1.00
Zn115  Zn    0.50000   0.21771   0.25000   0.00000  Uiso   1.00
Zn116  Zn    0.50000   0.11563   0.25000   0.00000  Uiso   1.00
C117   C     0.75397   0.16667   0.25872   0.00000  Uiso   1.00
C118   C     0.71018   0.16667   0.27506   0.00000  Uiso   1.00
C119   C     0.83336   0.02393   0.28910   0.00000  Uiso   1.00
C120   C     0.83331   0.30939   0.21090   0.00000  Uiso   1.00
C121   C     0.83331   0.02394   0.21090   0.00000  Uiso   1.00
C122   C     0.83336   0.30940   0.28910   0.00000  Uiso   1.00
C123   C     0.83332   0.16667   0.16325   0.00000  Uiso   1.00
C124   C     0.83334   0.16667   0.33674   0.00000  Uiso   1.00
C125   C     0.83334   0.12539   0.40756   0.00000  Uiso   1.00
C126   C     0.83332   0.20794   0.09236   0.00000  Uiso   1.00
C127   C     0.83334   0.16667   0.38467   0.00000  Uiso   1.00
C128   C     0.91270   0.16667   0.25873   0.00000  Uiso   1.00
C129   C     0.83332   0.16667   0.11527   0.00000  Uiso   1.00
C130   C     0.83334   0.20795   0.40756   0.00000  Uiso   1.00
C131   C     0.83332   0.12539   0.09236   0.00000  Uiso   1.00
C132   C     0.83334   0.20826   0.45362   0.00000  Uiso   1.00
C133   C     0.83332   0.12507   0.04629   0.00000  Uiso   1.00
C134   C     0.83333   0.16667   0.47679   0.00000  Uiso   1.00
C135   C     0.83333   0.16667   0.02312   0.00000  Uiso   1.00
C136   C     0.83333   0.12507   0.45362   0.00000  Uiso   1.00
C137   C     0.83333   0.20826   0.04629   0.00000  Uiso   1.00
C138   C     0.83334   0.24942   0.47682   0.00000  Uiso   1.00
C139   C     0.83333   0.24942   0.02309   0.00000  Uiso   1.00
C140   C     0.83332   0.08391   0.02309   0.00000  Uiso   1.00
C141   C     0.83332   0.08391   0.47681   0.00000  Uiso   1.00
C142   C     0.68894   0.12559   0.28445   0.00000  Uiso   1.00
C143   C     0.97775   0.20774   0.28445   0.00000  Uiso   1.00
C144   C     0.97775   0.12559   0.28445   0.00000  Uiso   1.00
C145   C     0.68894   0.20774   0.28445   0.00000  Uiso   1.00
C146   C     0.95651   0.16667   0.27507   0.00000  Uiso   1.00
H147   H     0.83334   0.09348   0.38966   0.00000  Uiso   1.00
H148   H     0.83329   0.29148   0.17953   0.00000  Uiso   1.00
H149   H     0.83329   0.04185   0.17953   0.00000  Uiso   1.00
H150   H     0.83338   0.29151   0.32047   0.00000  Uiso   1.00
H151   H     0.83333   0.23985   0.11025   0.00000  Uiso   1.00
H152   H     0.83333   0.28149   0.04070   0.00000  Uiso   1.00
H153   H     0.83332   0.05185   0.45920   0.00000  Uiso   1.00
H154   H     0.83335   0.23986   0.38966   0.00000  Uiso   1.00
H155   H     0.83331   0.09348   0.11025   0.00000  Uiso   1.00
H156   H     0.83334   0.28149   0.45920   0.00000  Uiso   1.00
H157   H     0.83331   0.05185   0.04070   0.00000  Uiso   1.00
H158   H     0.83338   0.04183   0.32047   0.00000  Uiso   1.00
I159   I     0.72290   0.06651   0.30652   0.00000  Uiso   1.00
I160   I     0.94380   0.26682   0.30653   0.00000  Uiso   1.00
I161   I     0.94380   0.06651   0.30653   0.00000  Uiso   1.00
I162   I     0.72290   0.26682   0.30652   0.00000  Uiso   1.00
N163   N     0.83333   0.28573   0.25000   0.00000  Uiso   1.00
N164   N     0.83333   0.04760   0.25000   0.00000  Uiso   1.00
O165   O     0.77226   0.20487   0.25000   0.00000  Uiso   1.00
O166   O     0.89441   0.12846   0.25000   0.00000  Uiso   1.00
O167   O     0.89441   0.20487   0.25000   0.00000  Uiso   1.00
O168   O     0.77226   0.12846   0.25000   0.00000  Uiso   1.00
O169   O     0.83333   0.20489   0.18392   0.00000  Uiso   1.00
O170   O     0.83334   0.12844   0.31608   0.00000  Uiso   1.00
O171   O     0.83334   0.20489   0.31608   0.00000  Uiso   1.00
O172   O     0.83333   0.12844   0.18392   0.00000  Uiso   1.00
Zn173  Zn    0.83333   0.21771   0.25000   0.00000  Uiso   1.00
Zn174  Zn    0.83333   0.11563   0.25000   0.00000  Uiso   1.00
C175   C     0.08730   0.50000   0.25872   0.00000  Uiso   1.00
C176   C     0.04351   0.50000   0.27506   0.00000  Uiso   1.00
C177   C     0.16669   0.35726   0.28910   0.00000  Uiso   1.00
C178   C     0.16664   0.64272   0.21090   0.00000  Uiso   1.00
C179   C     0.16664   0.35728   0.21090   0.00000  Uiso   1.00
C180   C     0.16669   0.64274   0.28910   0.00000  Uiso   1.00
C181   C     0.16666   0.50000   0.16325   0.00000  Uiso   1.00
C182   C     0.16668   0.50000   0.33674   0.00000  Uiso   1.00
C183   C     0.16667   0.45872   0.40756   0.00000  Uiso   1.00
C184   C     0.16666   0.54128   0.09236   0.00000  Uiso   1.00
C185   C     0.16668   0.50000   0.38467   0.00000  Uiso   1.00
C186   C     0.24604   0.50000   0.25873   0.00000  Uiso   1.00
C187   C     0.16665   0.50000   0.11527   0.00000  Uiso   1.00
C188   C     0.16668   0.54128   0.40756   0.00000  Uiso   1.00
C189   C     0.16665   0.45872   0.09236   0.00000  Uiso   1.00
C190   C     0.16667   0.54160   0.45362   0.00000  Uiso   1.00
C191   C     0.16665   0.45840   0.04629   0.00000  Uiso   1.00
C192   C     0.16667   0.50000   0.47679   0.00000  Uiso   1.00
C193   C     0.16666   0.50000   0.02312   0.00000  Uiso   1.00
C194   C     0.16666   0.45840   0.45362   0.00000  Uiso   1.00
C195   C     0.16666   0.54159   0.04629   0.00000  Uiso   1.00
C196   C     0.16667   0.58276   0.47682   0.00000  Uiso   1.00
C197   C     0.16667   0.58275   0.02309   0.00000  Uiso   1.00
C198   C     0.16665   0.41725   0.02309   0.00000  Uiso   1.00
C199   C     0.16666   0.41724   0.47681   0.00000  Uiso   1.00
C200   C     0.02227   0.45893   0.28445   0.00000  Uiso   1.00
C201   C     0.31109   0.54107   0.28445   0.00000  Uiso   1.00
C202   C     0.31109   0.45893   0.28445   0.00000  Uiso   1.00
C203   C     0.02227   0.54107   0.28445   0.00000  Uiso   1.00
C204   C     0.28984   0.50000   0.27507   0.00000  Uiso   1.00
H205   H     0.16667   0.42681   0.38966   0.00000  Uiso   1.00
H206   H     0.16662   0.62481   0.17953   0.00000  Uiso   1.00
H207   H     0.16662   0.37519   0.17953   0.00000  Uiso   1.00
H208   H     0.16671   0.62484   0.32047   0.00000  Uiso   1.00
H209   H     0.16666   0.57319   0.11025   0.00000  Uiso   1.00
H210   H     0.16667   0.61482   0.04070   0.00000  Uiso   1.00
H211   H     0.16666   0.38518   0.45920   0.00000  Uiso   1.00
H212   H     0.16668   0.57319   0.38966   0.00000  Uiso   1.00
H213   H     0.16665   0.42681   0.11025   0.00000  Uiso   1.00
H214   H     0.16668   0.61482   0.45920   0.00000  Uiso   1.00
H215   H     0.16665   0.38518   0.04070   0.00000  Uiso   1.00
H216   H     0.16671   0.37516   0.32047   0.00000  Uiso   1.00
I217   I     0.05623   0.39985   0.30652   0.00000  Uiso   1.00
I218   I     0.27714   0.60015   0.30653   0.00000  Uiso   1.00
I219   I     0.27714   0.39985   0.30653   0.00000  Uiso   1.00
I220   I     0.05623   0.60015   0.30652   0.00000  Uiso   1.00
N221   N     0.16667   0.61907   0.25000   0.00000  Uiso   1.00
N222   N     0.16667   0.38093   0.25000   0.00000  Uiso   1.00
O223   O     0.10559   0.53821   0.25000   0.00000  Uiso   1.00
O224   O     0.22774   0.46179   0.25000   0.00000  Uiso   1.00
O225   O     0.22774   0.53821   0.25000   0.00000  Uiso   1.00
O226   O     0.10559   0.46179   0.25000   0.00000  Uiso   1.00
O227   O     0.16666   0.53823   0.18392   0.00000  Uiso   1.00
O228   O     0.16667   0.46177   0.31608   0.00000  Uiso   1.00
O229   O     0.16667   0.53823   0.31608   0.00000  Uiso   1.00
O230   O     0.16666   0.46177   0.18392   0.00000  Uiso   1.00
Zn231  Zn    0.16667   0.55104   0.25000   0.00000  Uiso   1.00
Zn232  Zn    0.16667   0.44896   0.25000   0.00000  Uiso   1.00
C233   C     0.42064   0.50000   0.25872   0.00000  Uiso   1.00
C234   C     0.37684   0.50000   0.27506   0.00000  Uiso   1.00
C235   C     0.50002   0.35726   0.28910   0.00000  Uiso   1.00
C236   C     0.49997   0.64272   0.21090   0.00000  Uiso   1.00
C237   C     0.49997   0.35728   0.21090   0.00000  Uiso   1.00
C238   C     0.50002   0.64274   0.28910   0.00000  Uiso   1.00
C239   C     0.49999   0.50000   0.16325   0.00000  Uiso   1.00
C240   C     0.50001   0.50000   0.33674   0.00000  Uiso   1.00
C241   C     0.50000   0.45872   0.40756   0.00000  Uiso   1.00
C242   C     0.49999   0.54128   0.09236   0.00000  Uiso   1.00
C243   C     0.50001   0.50000   0.38467   0.00000  Uiso   1.00
C244   C     0.57937   0.50000   0.25873   0.00000  Uiso   1.00
C245   C     0.49999   0.50000   0.11527   0.00000  Uiso   1.00
C246   C     0.50001   0.54128   0.40756   0.00000  Uiso   1.00
C247   C     0.49998   0.45872   0.09236   0.00000  Uiso   1.00
C248   C     0.50001   0.54160   0.45362   0.00000  Uiso   1.00
C249   C     0.49999   0.45840   0.04629   0.00000  Uiso   1.00
C250   C     0.50000   0.50000   0.47679   0.00000  Uiso   1.00
C251   C     0.49999   0.50000   0.02312   0.00000  Uiso   1.00
C252   C     0.50000   0.45840   0.45362   0.00000  Uiso   1.00
C253   C     0.49999   0.54159   0.04629   0.00000  Uiso   1.00
C254   C     0.50001   0.58276   0.47682   0.00000  Uiso   1.00
C255   C     0.50000   0.58275   0.02309   0.00000  Uiso   1.00
C256   C     0.49999   0.41725   0.02309   0.00000  Uiso   1.00
C257   C     0.49999   0.41724   0.47681   0.00000  Uiso   1.00
C258   C     0.35560   0.45893   0.28445   0.00000  Uiso   1.00
C259   C     0.64442   0.54107   0.28445   0.00000  Uiso   1.00
C260   C     0.64442   0.45893   0.28445   0.00000  Uiso   1.00
C261   C     0.35560   0.54107   0.28445   0.00000  Uiso   1.00
C262   C     0.62317   0.50000   0.27507   0.00000  Uiso   1.00
H263   H     0.50000   0.42681   0.38966   0.00000  Uiso   1.00
H264   H     0.49995   0.62481   0.17953   0.00000  Uiso   1.00
H265   H     0.49995   0.37519   0.17953   0.00000  Uiso   1.00
H266   H     0.50004   0.62484   0.32047   0.00000  Uiso   1.00
H267   H     0.49999   0.57319   0.11025   0.00000  Uiso   1.00
H268   H     0.50000   0.61482   0.04070   0.00000  Uiso   1.00
H269   H     0.49999   0.38518   0.45920   0.00000  Uiso   1.00
H270   H     0.50001   0.57319   0.38966   0.00000  Uiso   1.00
H271   H     0.49998   0.42681   0.11025   0.00000  Uiso   1.00
H272   H     0.50001   0.61482   0.45920   0.00000  Uiso   1.00
H273   H     0.49998   0.38518   0.04070   0.00000  Uiso   1.00
H274   H     0.50004   0.37516   0.32047   0.00000  Uiso   1.00
I275   I     0.38956   0.39985   0.30652   0.00000  Uiso   1.00
I276   I     0.61047   0.60015   0.30653   0.00000  Uiso   1.00
I277   I     0.61047   0.39985   0.30653   0.00000  Uiso   1.00
I278   I     0.38956   0.60015   0.30652   0.00000  Uiso   1.00
N279   N     0.50000   0.61907   0.25000   0.00000  Uiso   1.00
N280   N     0.50000   0.38093   0.25000   0.00000  Uiso   1.00
O281   O     0.43892   0.53821   0.25000   0.00000  Uiso   1.00
O282   O     0.56108   0.46179   0.25000   0.00000  Uiso   1.00
O283   O     0.56108   0.53821   0.25000   0.00000  Uiso   1.00
O284   O     0.43892   0.46179   0.25000   0.00000  Uiso   1.00
O285   O     0.49999   0.53823   0.18392   0.00000  Uiso   1.00
O286   O     0.50001   0.46177   0.31608   0.00000  Uiso   1.00
O287   O     0.50001   0.53823   0.31608   0.00000  Uiso   1.00
O288   O     0.49999   0.46177   0.18392   0.00000  Uiso   1.00
Zn289  Zn    0.50000   0.55104   0.25000   0.00000  Uiso   1.00
Zn290  Zn    0.50000   0.44896   0.25000   0.00000  Uiso   1.00
C291   C     0.75397   0.50000   0.25872   0.00000  Uiso   1.00
C292   C     0.71018   0.50000   0.27506   0.00000  Uiso   1.00
C293   C     0.83336   0.35726   0.28910   0.00000  Uiso   1.00
C294   C     0.83331   0.64272   0.21090   0.00000  Uiso   1.00
C295   C     0.83331   0.35728   0.21090   0.00000  Uiso   1.00
C296   C     0.83336   0.64274   0.28910   0.00000  Uiso   1.00
C297   C     0.83332   0.50000   0.16325   0.00000  Uiso   1.00
C298   C     0.83334   0.50000   0.33674   0.00000  Uiso   1.00
C299   C     0.83334   0.45872   0.40756   0.00000  Uiso   1.00
C300   C     0.83332   0.54128   0.09236   0.00000  Uiso   1.00
C301   C     0.83334   0.50000   0.38467   0.00000  Uiso   1.00
C302   C     0.91270   0.50000   0.25873   0.00000  Uiso   1.00
C303   C     0.83332   0.50000   0.11527   0.00000  Uiso   1.00
C304   C     0.83334   0.54128   0.40756   0.00000  Uiso   1.00
C305   C     0.83332   0.45872   0.09236   0.00000  Uiso   1.00
C306   C     0.83334   0.54160   0.45362   0.00000  Uiso   1.00
C307   C     0.83332   0.45840   0.04629   0.00000  Uiso   1.00
C308   C     0.83333   0.50000   0.47679   0.00000  Uiso   1.00
C309   C     0.83333   0.50000   0.02312   0.00000  Uiso   1.00
C310   C     0.83333   0.45840   0.45362   0.00000  Uiso   1.00
C311   C     0.83333   0.54159   0.04629   0.00000  Uiso   1.00
C312   C     0.83334   0.58276   0.47682   0.00000  Uiso   1.00
C313   C     0.83333   0.58275   0.02309   0.00000  Uiso   1.00
C314   C     0.83332   0.41725   0.02309   0.00000  Uiso   1.00
C315   C     0.83332   0.41724   0.47681   0.00000  Uiso   1.00
C316   C     0.68894   0.45893   0.28445   0.00000  Uiso   1.00
C317   C     0.97775   0.54107   0.28445   0.00000  Uiso   1.00
C318   C     0.97775   0.45893   0.28445   0.00000  Uiso   1.00
C319   C     0.68894   0.54107   0.28445   0.00000  Uiso   1.00
C320   C     0.95651   0.50000   0.27507   0.00000  Uiso   1.00
H321   H     0.83334   0.42681   0.38966   0.00000  Uiso   1.00
H322   H     0.83329   0.62481   0.17953   0.00000  Uiso   1.00
H323   H     0.83329   0.37519   0.17953   0.00000  Uiso   1.00
H324   H     0.83338   0.62484   0.32047   0.00000  Uiso   1.00
H325   H     0.83333   0.57319   0.11025   0.00000  Uiso   1.00
H326   H     0.83333   0.61482   0.04070   0.00000  Uiso   1.00
H327   H     0.83332   0.38518   0.45920   0.00000  Uiso   1.00
H328   H     0.83335   0.57319   0.38966   0.00000  Uiso   1.00
H329   H     0.83331   0.42681   0.11025   0.00000  Uiso   1.00
H330   H     0.83334   0.61482   0.45920   0.00000  Uiso   1.00
H331   H     0.83331   0.38518   0.04070   0.00000  Uiso   1.00
H332   H     0.83338   0.37516   0.32047   0.00000  Uiso   1.00
I333   I     0.72290   0.39985   0.30652   0.00000  Uiso   1.00
I334   I     0.94380   0.60015   0.30653   0.00000  Uiso   1.00
I335   I     0.94380   0.39985   0.30653   0.00000  Uiso   1.00
I336   I     0.72290   0.60015   0.30652   0.00000  Uiso   1.00
N337   N     0.83333   0.61907   0.25000   0.00000  Uiso   1.00
N338   N     0.83333   0.38093   0.25000   0.00000  Uiso   1.00
O339   O     0.77226   0.53821   0.25000   0.00000  Uiso   1.00
O340   O     0.89441   0.46179   0.25000   0.00000  Uiso   1.00
O341   O     0.89441   0.53821   0.25000   0.00000  Uiso   1.00
O342   O     0.77226   0.46179   0.25000   0.00000  Uiso   1.00
O343   O     0.83333   0.53823   0.18392   0.00000  Uiso   1.00
O344   O     0.83334   0.46177   0.31608   0.00000  Uiso   1.00
O345   O     0.83334   0.53823   0.31608   0.00000  Uiso   1.00
O346   O     0.83333   0.46177   0.18392   0.00000  Uiso   1.00
Zn347  Zn    0.83333   0.55104   0.25000   0.00000  Uiso   1.00
Zn348  Zn    0.83333   0.44896   0.25000   0.00000  Uiso   1.00
C349   C     0.08730   0.83333   0.25872   0.00000  Uiso   1.00
C350   C     0.04351   0.83333   0.27506   0.00000  Uiso   1.00
C351   C     0.16669   0.69060   0.28910   0.00000  Uiso   1.00
C352   C     0.16664   0.97606   0.21090   0.00000  Uiso   1.00
C353   C     0.16664   0.69061   0.21090   0.00000  Uiso   1.00
C354   C     0.16669   0.97607   0.28910   0.00000  Uiso   1.00
C355   C     0.16666   0.83333   0.16325   0.00000  Uiso   1.00
C356   C     0.16668   0.83333   0.33674   0.00000  Uiso   1.00
C357   C     0.16667   0.79205   0.40756   0.00000  Uiso   1.00
C358   C     0.16666   0.87461   0.09236   0.00000  Uiso   1.00
C359   C     0.16668   0.83333   0.38467   0.00000  Uiso   1.00
C360   C     0.24604   0.83333   0.25873   0.00000  Uiso   1.00
C361   C     0.16665   0.83333   0.11527   0.00000  Uiso   1.00
C362   C     0.16668   0.87461   0.40756   0.00000  Uiso   1.00
C363   C     0.16665   0.79206   0.09236   0.00000  Uiso   1.00
C364   C     0.16667   0.87493   0.45362   0.00000  Uiso   1.00
C365   C     0.16665   0.79174   0.04629   0.00000  Uiso   1.00
C366   C     0.16667   0.83333   0.47679   0.00000  Uiso   1.00
C367   C     0.16666   0.83333   0.02312   0.00000  Uiso   1.00
C368   C     0.16666   0.79174   0.45362   0.00000  Uiso   1.00
C369   C     0.16666   0.87493   0.04629   0.00000  Uiso   1.00
C370   C     0.16667   0.91609   0.47682   0.00000  Uiso   1.00
C371   C     0.16667   0.91609   0.02309   0.00000  Uiso   1.00
C372   C     0.16665   0.75058   0.02309   0.00000  Uiso   1.00
C373   C     0.16666   0.75058   0.47681   0.00000  Uiso   1.00
C374   C     0.02227   0.79226   0.28445   0.00000  Uiso   1.00
C375   C     0.31109   0.87441   0.28445   0.00000  Uiso   1.00
C376   C     0.31109   0.79226   0.28445   0.00000  Uiso   1.00
C377   C     0.02227   0.87441   0.28445   0.00000  Uiso   1.00
C378   C     0.28984   0.83333   0.27507   0.00000  Uiso   1.00
H379   H     0.16667   0.76014   0.38966   0.00000  Uiso   1.00
H380   H     0.16662   0.95815   0.17953   0.00000  Uiso   1.00
H381   H     0.16662   0.70852   0.17953   0.00000  Uiso   1.00
H382   H     0.16671   0.95817   0.32047   0.00000  Uiso   1.00
H383   H     0.16666   0.90652   0.11025   0.00000  Uiso   1.00
H384   H     0.16667   0.94815   0.04070   0.00000  Uiso   1.00
H385   H     0.16666   0.71851   0.45920   0.00000  Uiso   1.00
H386   H     0.16668   0.90652   0.38966   0.00000  Uiso   1.00
H387   H     0.16665   0.76015   0.11025   0.00000  Uiso   1.00
H388   H     0.16668   0.94815   0.45920   0.00000  Uiso   1.00
H389   H     0.16665   0.71851   0.04070   0.00000  Uiso   1.00
H390   H     0.16671   0.70849   0.32047   0.00000  Uiso   1.00
I391   I     0.05623   0.73318   0.30652   0.00000  Uiso   1.00
I392   I     0.27714   0.93349   0.30653   0.00000  Uiso   1.00
I393   I     0.27714   0.73318   0.30653   0.00000  Uiso   1.00
I394   I     0.05623   0.93349   0.30652   0.00000  Uiso   1.00
N395   N     0.16667   0.95240   0.25000   0.00000  Uiso   1.00
N396   N     0.16667   0.71427   0.25000   0.00000  Uiso   1.00
O397   O     0.10559   0.87154   0.25000   0.00000  Uiso   1.00
O398   O     0.22774   0.79513   0.25000   0.00000  Uiso   1.00
O399   O     0.22774   0.87154   0.25000   0.00000  Uiso   1.00
O400   O     0.10559   0.79513   0.25000   0.00000  Uiso   1.00
O401   O     0.16666   0.87156   0.18392   0.00000  Uiso   1.00
O402   O     0.16667   0.79511   0.31608   0.00000  Uiso   1.00
O403   O     0.16667   0.87156   0.31608   0.00000  Uiso   1.00
O404   O     0.16666   0.79511   0.18392   0.00000  Uiso   1.00
Zn405  Zn    0.16667   0.88437   0.25000   0.00000  Uiso   1.00
Zn406  Zn    0.16667   0.78229   0.25000   0.00000  Uiso   1.00
C407   C     0.42064   0.83333   0.25872   0.00000  Uiso   1.00
C408   C     0.37684   0.83333   0.27506   0.00000  Uiso   1.00
C409   C     0.50002   0.69060   0.28910   0.00000  Uiso   1.00
C410   C     0.49997   0.97606   0.21090   0.00000  Uiso   1.00
C411   C     0.49997   0.69061   0.21090   0.00000  Uiso   1.00
C412   C     0.50002   0.97607   0.28910   0.00000  Uiso   1.00
C413   C     0.49999   0.83333   0.16325   0.00000  Uiso   1.00
C414   C     0.50001   0.83333   0.33674   0.00000  Uiso   1.00
C415   C     0.50000   0.79205   0.40756   0.00000  Uiso   1.00
C416   C     0.49999   0.87461   0.09236   0.00000  Uiso   1.00
C417   C     0.50001   0.83333   0.38467   0.00000  Uiso   1.00
C418   C     0.57937   0.83333   0.25873   0.00000  Uiso   1.00
C419   C     0.49999   0.83333   0.11527   0.00000  Uiso   1.00
C420   C     0.50001   0.87461   0.40756   0.00000  Uiso   1.00
C421   C     0.49998   0.79206   0.09236   0.00000  Uiso   1.00
C422   C     0.50001   0.87493   0.45362   0.00000  Uiso   1.00
C423   C     0.49999   0.79174   0.04629   0.00000  Uiso   1.00
C424   C     0.50000   0.83333   0.47679   0.00000  Uiso   1.00
C425   C     0.49999   0.83333   0.02312   0.00000  Uiso   1.00
C426   C     0.50000   0.79174   0.45362   0.00000  Uiso   1.00
C427   C     0.49999   0.87493   0.04629   0.00000  Uiso   1.00
C428   C     0.50001   0.91609   0.47682   0.00000  Uiso   1.00
C429   C     0.50000   0.91609   0.02309   0.00000  Uiso   1.00
C430   C     0.49999   0.75058   0.02309   0.00000  Uiso   1.00
C431   C     0.49999   0.75058   0.47681   0.00000  Uiso   1.00
C432   C     0.35560   0.79226   0.28445   0.00000  Uiso   1.00
C433   C     0.64442   0.87441   0.28445   0.00000  Uiso   1.00
C434   C     0.64442   0.79226   0.28445   0.00000  Uiso   1.00
C435   C     0.35560   0.87441   0.28445   0.00000  Uiso   1.00
C436   C     0.62317   0.83333   0.27507   0.00000  Uiso   1.00
H437   H     0.50000   0.76014   0.38966   0.00000  Uiso   1.00
H438   H     0.49995   0.95815   0.17953   0.00000  Uiso   1.00
H439   H     0.49995   0.70852   0.17953   0.00000  Uiso   1.00
H440   H     0.50004   0.95817   0.32047   0.00000  Uiso   1.00
H441   H     0.49999   0.90652   0.11025   0.00000  Uiso   1.00
H442   H     0.50000   0.94815   0.04070   0.00000  Uiso   1.00
H443   H     0.49999   0.71851   0.45920   0.00000  Uiso   1.00
H444   H     0.50001   0.90652   0.38966   0.00000  Uiso   1.00
H445   H     0.49998   0.76015   0.11025   0.00000  Uiso   1.00
H446   H     0.50001   0.94815   0.45920   0.00000  Uiso   1.00
H447   H     0.49998   0.71851   0.04070   0.00000  Uiso   1.00
H448   H     0.50004   0.70849   0.32047   0.00000  Uiso   1.00
I449   I     0.38956   0.73318   0.30652   0.00000  Uiso   1.00
I450   I     0.61047   0.93349   0.30653   0.00000  Uiso   1.00
I451   I     0.61047   0.73318   0.30653   0.00000  Uiso   1.00
I452   I     0.38956   0.93349   0.30652   0.00000  Uiso   1.00
N453   N     0.50000   0.95240   0.25000   0.00000  Uiso   1.00
N454   N     0.50000   0.71427   0.25000   0.00000  Uiso   1.00
O455   O     0.43892   0.87154   0.25000   0.00000  Uiso   1.00
O456   O     0.56108   0.79513   0.25000   0.00000  Uiso   1.00
O457   O     0.56108   0.87154   0.25000   0.00000  Uiso   1.00
O458   O     0.43892   0.79513   0.25000   0.00000  Uiso   1.00
O459   O     0.49999   0.87156   0.18392   0.00000  Uiso   1.00
O460   O     0.50001   0.79511   0.31608   0.00000  Uiso   1.00
O461   O     0.50001   0.87156   0.31608   0.00000  Uiso   1.00
O462   O     0.49999   0.79511   0.18392   0.00000  Uiso   1.00
Zn463  Zn    0.50000   0.88437   0.25000   0.00000  Uiso   1.00
Zn464  Zn    0.50000   0.78229   0.25000   0.00000  Uiso   1.00
C465   C     0.75397   0.83333   0.25872   0.00000  Uiso   1.00
C466   C     0.71018   0.83333   0.27506   0.00000  Uiso   1.00
C467   C     0.83336   0.69060   0.28910   0.00000  Uiso   1.00
C468   C     0.83331   0.97606   0.21090   0.00000  Uiso   1.00
C469   C     0.83331   0.69061   0.21090   0.00000  Uiso   1.00
C470   C     0.83336   0.97607   0.28910   0.00000  Uiso   1.00
C471   C     0.83332   0.83333   0.16325   0.00000  Uiso   1.00
C472   C     0.83334   0.83333   0.33674   0.00000  Uiso   1.00
C473   C     0.83334   0.79205   0.40756   0.00000  Uiso   1.00
C474   C     0.83332   0.87461   0.09236   0.00000  Uiso   1.00
C475   C     0.83334   0.83333   0.38467   0.00000  Uiso   1.00
C476   C     0.91270   0.83333   0.25873   0.00000  Uiso   1.00
C477   C     0.83332   0.83333   0.11527   0.00000  Uiso   1.00
C478   C     0.83334   0.87461   0.40756   0.00000  Uiso   1.00
C479   C     0.83332   0.79206   0.09236   0.00000  Uiso   1.00
C480   C     0.83334   0.87493   0.45362   0.00000  Uiso   1.00
C481   C     0.83332   0.79174   0.04629   0.00000  Uiso   1.00
C482   C     0.83333   0.83333   0.47679   0.00000  Uiso   1.00
C483   C     0.83333   0.83333   0.02312   0.00000  Uiso   1.00
C484   C     0.83333   0.79174   0.45362   0.00000  Uiso   1.00
C485   C     0.83333   0.87493   0.04629   0.00000  Uiso   1.00
C486   C     0.83334   0.91609   0.47682   0.00000  Uiso   1.00
C487   C     0.83333   0.91609   0.02309   0.00000  Uiso   1.00
C488   C     0.83332   0.75058   0.02309   0.00000  Uiso   1.00
C489   C     0.83332   0.75058   0.47681   0.00000  Uiso   1.00
C490   C     0.68894   0.79226   0.28445   0.00000  Uiso   1.00
C491   C     0.97775   0.87441   0.28445   0.00000  Uiso   1.00
C492   C     0.97775   0.79226   0.28445   0.00000  Uiso   1.00
C493   C     0.68894   0.87441   0.28445   0.00000  Uiso   1.00
C494   C     0.95651   0.83333   0.27507   0.00000  Uiso   1.00
H495   H     0.83334   0.76014   0.38966   0.00000  Uiso   1.00
H496   H     0.83329   0.95815   0.17953   0.00000  Uiso   1.00
H497   H     0.83329   0.70852   0.17953   0.00000  Uiso   1.00
H498   H     0.83338   0.95817   0.32047   0.00000  Uiso   1.00
H499   H     0.83333   0.90652   0.11025   0.00000  Uiso   1.00
H500   H     0.83333   0.94815   0.04070   0.00000  Uiso   1.00
H501   H     0.83332   0.71851   0.45920   0.00000  Uiso   1.00
H502   H     0.83335   0.90652   0.38966   0.00000  Uiso   1.00
H503   H     0.83331   0.76015   0.11025   0.00000  Uiso   1.00
H504   H     0.83334   0.94815   0.45920   0.00000  Uiso   1.00
H505   H     0.83331   0.71851   0.04070   0.00000  Uiso   1.00
H506   H     0.83338   0.70849   0.32047   0.00000  Uiso   1.00
I507   I     0.72290   0.73318   0.30652   0.00000  Uiso   1.00
I508   I     0.94380   0.93349   0.30653   0.00000  Uiso   1.00
I509   I     0.94380   0.73318   0.30653   0.00000  Uiso   1.00
I510   I     0.72290   0.93349   0.30652   0.00000  Uiso   1.00
N511   N     0.83333   0.95240   0.25000   0.00000  Uiso   1.00
N512   N     0.83333   0.71427   0.25000   0.00000  Uiso   1.00
O513   O     0.77226   0.87154   0.25000   0.00000  Uiso   1.00
O514   O     0.89441   0.79513   0.25000   0.00000  Uiso   1.00
O515   O     0.89441   0.87154   0.25000   0.00000  Uiso   1.00
O516   O     0.77226   0.79513   0.25000   0.00000  Uiso   1.00
O517   O     0.83333   0.87156   0.18392   0.00000  Uiso   1.00
O518   O     0.83334   0.79511   0.31608   0.00000  Uiso   1.00
O519   O     0.83334   0.87156   0.31608   0.00000  Uiso   1.00
O520   O     0.83333   0.79511   0.18392   0.00000  Uiso   1.00
Zn521  Zn    0.83333   0.88437   0.25000   0.00000  Uiso   1.00
Zn522  Zn    0.83333   0.78229   0.25000   0.00000  Uiso   1.00
C523   C     0.08730   0.16667   0.75872   0.00000  Uiso   1.00
C524   C     0.04351   0.16667   0.77506   0.00000  Uiso   1.00
C525   C     0.16669   0.02393   0.78910   0.00000  Uiso   1.00
C526   C     0.16664   0.30939   0.71090   0.00000  Uiso   1.00
C527   C     0.16664   0.02394   0.71090   0.00000  Uiso   1.00
C528   C     0.16669   0.30940   0.78910   0.00000  Uiso   1.00
C529   C     0.16666   0.16667   0.66325   0.00000  Uiso   1.00
C530   C     0.16668   0.16667   0.83674   0.00000  Uiso   1.00
C531   C     0.16667   0.12539   0.90756   0.00000  Uiso   1.00
C532   C     0.16666   0.20794   0.59236   0.00000  Uiso   1.00
C533   C     0.16668   0.16667   0.88467   0.00000  Uiso   1.00
C534   C     0.24604   0.16667   0.75873   0.00000  Uiso   1.00
C535   C     0.16665   0.16667   0.61527   0.00000  Uiso   1.00
C536   C     0.16668   0.20795   0.90756   0.00000  Uiso   1.00
C537   C     0.16665   0.12539   0.59236   0.00000  Uiso   1.00
C538   C     0.16667   0.20826   0.95362   0.00000  Uiso   1.00
C539   C     0.16665   0.12507   0.54629   0.00000  Uiso   1.00
C540   C     0.16667   0.16667   0.97679   0.00000  Uiso   1.00
C541   C     0.16666   0.16667   0.52312   0.00000  Uiso   1.00
C542   C     0.16666   0.12507   0.95362   0.00000  Uiso   1.00
C543   C     0.16666   0.20826   0.54629   0.00000  Uiso   1.00
C544   C     0.16667   0.24942   0.97682   0.00000  Uiso   1.00
C545   C     0.16667   0.24942   0.52309   0.00000  Uiso   1.00
C546   C     0.16665   0.08391   0.52309   0.00000  Uiso   1.00
C547   C     0.16666   0.08391   0.97681   0.00000  Uiso   1.00
C548   C     0.02227   0.12559   0.78445   0.00000  Uiso   1.00
C549   C     0.31109   0.20774   0.78445   0.00000  Uiso   1.00
C550   C     0.31109   0.12559   0.78445   0.00000  Uiso   1.00
C551   C     0.02227   0.20774   0.78445   0.00000  Uiso   1.00
C552   C     0.28984   0.16667   0.77507   0.00000  Uiso   1.00
H553   H     0.16667   0.09348   0.88966   0.00000  Uiso   1.00
H554   H     0.16662   0.29148   0.67953   0.00000  Uiso   1.00
H555   H     0.16662   0.04185   0.67953   0.00000  Uiso   1.00
H556   H     0.16671   0.29151   0.82047   0.00000  Uiso   1.00
H557   H     0.16666   0.23985   0.61025   0.00000  Uiso   1.00
H558   H     0.16667   0.28149   0.54070   0.00000  Uiso   1.00
H559   H     0.16666   0.05185   0.95920   0.00000  Uiso   1.00
H560   H     0.16668   0.23986   0.88966   0.00000  Uiso   1.00
H561   H     0.16665   0.09348   0.61025   0.00000  Uiso   1.00
H562   H     0.16668   0.28149   0.95920   0.00000  Uiso   1.00
H563   H     0.16665   0.05185   0.54070   0.00000  Uiso   1.00
H564   H     0.16671   0.04183   0.82047   0.00000  Uiso   1.00
I565   I     0.05623   0.06651   0.80652   0.00000  Uiso   1.00
I566   I     0.27714   0.26682   0.80653   0.00000  Uiso   1.00
I567   I     0.27714   0.06651   0.80653   0.00000  Uiso   1.00
I568   I     0.05623   0.26682   0.80652   0.00000  Uiso   1.00
N569   N     0.16667   0.28573   0.75000   0.00000  Uiso   1.00
N570   N     0.16667   0.04760   0.75000   0.00000  Uiso   1.00
O571   O     0.10559   0.20487   0.75000   0.00000  Uiso   1.00
O572   O     0.22774   0.12846   0.75000   0.00000  Uiso   1.00
O573   O     0.22774   0.20487   0.75000   0.00000  Uiso   1.00
O574   O     0.10559   0.12846   0.75000   0.00000  Uiso   1.00
O575   O     0.16666   0.20489   0.68392   0.00000  Uiso   1.00
O576   O     0.16667   0.12844   0.81608   0.00000  Uiso   1.00
O577   O     0.16667   0.20489   0.81608   0.00000  Uiso   1.00
O578   O     0.16666   0.12844   0.68392   0.00000  Uiso   1.00
Zn579  Zn    0.16667   0.21771   0.75000   0.00000  Uiso   1.00
Zn580  Zn    0.16667   0.11563   0.75000   0.00000  Uiso   1.00
C581   C     0.42064   0.16667   0.75872   0.00000  Uiso   1.00
C582   C     0.37684   0.16667   0.77506   0.00000  Uiso   1.00
C583   C     0.50002   0.02393   0.78910   0.00000  Uiso   1.00
C584   C     0.49997   0.30939   0.71090   0.00000  Uiso   1.00
C585   C     0.49997   0.02394   0.71090   0.00000  Uiso   1.00
C586   C     0.50002   0.30940   0.78910   0.00000  Uiso   1.00
C587   C     0.49999   0.16667   0.66325   0.00000  Uiso   1.00
C588   C     0.50001   0.16667   0.83674   0.00000  Uiso   1.00
C589   C     0.50000   0.12539   0.90756   0.00000  Uiso   1.00
C590   C     0.49999   0.20794   0.59236   0.00000  Uiso   1.00
C591   C     0.50001   0.16667   0.88467   0.00000  Uiso   1.00
C592   C     0.57937   0.16667   0.75873   0.00000  Uiso   1.00
C593   C     0.49999   0.16667   0.61527   0.00000  Uiso   1.00
C594   C     0.50001   0.20795   0.90756   0.00000  Uiso   1.00
C595   C     0.49998   0.12539   0.59236   0.00000  Uiso   1.00
C596   C     0.50001   0.20826   0.95362   0.00000  Uiso   1.00
C597   C     0.49999   0.12507   0.54629   0.00000  Uiso   1.00
C598   C     0.50000   0.16667   0.97679   0.00000  Uiso   1.00
C599   C     0.49999   0.16667   0.52312   0.00000  Uiso   1.00
C600   C     0.50000   0.12507   0.95362   0.00000  Uiso   1.00
C601   C     0.49999   0.20826   0.54629   0.00000  Uiso   1.00
C602   C     0.50001   0.24942   0.97682   0.00000  Uiso   1.00
C603   C     0.50000   0.24942   0.52309   0.00000  Uiso   1.00
C604   C     0.49999   0.08391   0.52309   0.00000  Uiso   1.00
C605   C     0.49999   0.08391   0.97681   0.00000  Uiso   1.00
C606   C     0.35560   0.12559   0.78445   0.00000  Uiso   1.00
C607   C     0.64442   0.20774   0.78445   0.00000  Uiso   1.00
C608   C     0.64442   0.12559   0.78445   0.00000  Uiso   1.00
C609   C     0.35560   0.20774   0.78445   0.00000  Uiso   1.00
C610   C     0.62317   0.16667   0.77507   0.00000  Uiso   1.00
H611   H     0.50000   0.09348   0.88966   0.00000  Uiso   1.00
H612   H     0.49995   0.29148   0.67953   0.00000  Uiso   1.00
H613   H     0.49995   0.04185   0.67953   0.00000  Uiso   1.00
H614   H     0.50004   0.29151   0.82047   0.00000  Uiso   1.00
H615   H     0.49999   0.23985   0.61025   0.00000  Uiso   1.00
H616   H     0.50000   0.28149   0.54070   0.00000  Uiso   1.00
H617   H     0.49999   0.05185   0.95920   0.00000  Uiso   1.00
H618   H     0.50001   0.23986   0.88966   0.00000  Uiso   1.00
H619   H     0.49998   0.09348   0.61025   0.00000  Uiso   1.00
H620   H     0.50001   0.28149   0.95920   0.00000  Uiso   1.00
H621   H     0.49998   0.05185   0.54070   0.00000  Uiso   1.00
H622   H     0.50004   0.04183   0.82047   0.00000  Uiso   1.00
I623   I     0.38956   0.06651   0.80652   0.00000  Uiso   1.00
I624   I     0.61047   0.26682   0.80653   0.00000  Uiso   1.00
I625   I     0.61047   0.06651   0.80653   0.00000  Uiso   1.00
I626   I     0.38956   0.26682   0.80652   0.00000  Uiso   1.00
N627   N     0.50000   0.28573   0.75000   0.00000  Uiso   1.00
N628   N     0.50000   0.04760   0.75000   0.00000  Uiso   1.00
O629   O     0.43892   0.20487   0.75000   0.00000  Uiso   1.00
O630   O     0.56108   0.12846   0.75000   0.00000  Uiso   1.00
O631   O     0.56108   0.20487   0.75000   0.00000  Uiso   1.00
O632   O     0.43892   0.12846   0.75000   0.00000  Uiso   1.00
O633   O     0.49999   0.20489   0.68392   0.00000  Uiso   1.00
O634   O     0.50001   0.12844   0.81608   0.00000  Uiso   1.00
O635   O     0.50001   0.20489   0.81608   0.00000  Uiso   1.00
O636   O     0.49999   0.12844   0.68392   0.00000  Uiso   1.00
Zn637  Zn    0.50000   0.21771   0.75000   0.00000  Uiso   1.00
Zn638  Zn    0.50000   0.11563   0.75000   0.00000  Uiso   1.00
C639   C     0.75397   0.16667   0.75872   0.00000  Uiso   1.00
C640   C     0.71018   0.16667   0.77506   0.00000  Uiso   1.00
C641   C     0.83336   0.02393   0.78910   0.00000  Uiso   1.00
C642   C     0.83331   0.30939   0.71090   0.00000  Uiso   1.00
C643   C     0.83331   0.02394   0.71090   0.00000  Uiso   1.00
C644   C     0.83336   0.30940   0.78910   0.00000  Uiso   1.00
C645   C     0.83332   0.16667   0.66325   0.00000  Uiso   1.00
C646   C     0.83334   0.16667   0.83674   0.00000  Uiso   1.00
C647   C     0.83334   0.12539   0.90756   0.00000  Uiso   1.00
C648   C     0.83332   0.20794   0.59236   0.00000  Uiso   1.00
C649   C     0.83334   0.16667   0.88467   0.00000  Uiso   1.00
C650   C     0.91270   0.16667   0.75873   0.00000  Uiso   1.00
C651   C     0.83332   0.16667   0.61527   0.00000  Uiso   1.00
C652   C     0.83334   0.20795   0.90756   0.00000  Uiso   1.00
C653   C     0.83332   0.12539   0.59236   0.00000  Uiso   1.00
C654   C     0.83334   0.20826   0.95362   0.00000  Uiso   1.00
C655   C     0.83332   0.12507   0.54629   0.00000  Uiso   1.00
C656   C     0.83333   0.16667   0.97679   0.00000  Uiso   1.00
C657   C     0.83333   0.16667   0.52312   0.00000  Uiso   1.00
C658   C     0.83333   0.12507   0.95362   0.00000  Uiso   1.00
C659   C     0.83333   0.20826   0.54629   0.00000  Uiso   1.00
C660   C     0.83334   0.24942   0.97682   0.00000  Uiso   1.00
C661   C     0.83333   0.24942   0.52309   0.00000  Uiso   1.00
C662   C     0.83332   0.08391   0.52309   0.00000  Uiso   1.00
C663   C     0.83332   0.08391   0.97681   0.00000  Uiso   1.00
C664   C     0.68894   0.12559   0.78445   0.00000  Uiso   1.00
C665   C     0.97775   0.20774   0.78445   0.00000  Uiso   1.00
C666   C     0.97775   0.12559   0.78445   0.00000  Uiso   1.00
C667   C     0.68894   0.20774   0.78445   0.00000  Uiso   1.00
C668   C     0.95651   0.16667   0.77507   0.00000  Uiso   1.00
H669   H     0.83334   0.09348   0.88966   0.00000  Uiso   1.00
H670   H     0.83329   0.29148   0.67953   0.00000  Uiso   1.00
H671   H     0.83329   0.04185   0.67953   0.00000  Uiso   1.00
H672   H     0.83338   0.29151   0.82047   0.00000  Uiso   1.00
H673   H     0.83333   0.23985   0.61025   0.00000  Uiso   1.00
H674   H     0.83333   0.28149   0.54070   0.00000  Uiso   1.00
H675   H     0.83332   0.05185   0.95920   0.00000  Uiso   1.00
H676   H     0.83335   0.23986   0.88966   0.00000  Uiso   1.00
H677   H     0.83331   0.09348   0.61025   0.00000  Uiso   1.00
H678   H     0.83334   0.28149   0.95920   0.00000  Uiso   1.00
H679   H     0.83331   0.05185   0.54070   0.00000  Uiso   1.00
H680   H     0.83338   0.04183   0.82047   0.00000  Uiso   1.00
I681   I     0.72290   0.06651   0.80652   0.00000  Uiso   1.00
I682   I     0.94380   0.26682   0.80653   0.00000  Uiso   1.00
I683   I     0.94380   0.06651   0.80653   0.00000  Uiso   1.00
I684   I     0.72290   0.26682   0.80652   0.00000  Uiso   1.00
N685   N     0.83333   0.28573   0.75000   0.00000  Uiso   1.00
N686   N     0.83333   0.04760   0.75000   0.00000  Uiso   1.00
O687   O     0.77226   0.20487   0.75000   0.00000  Uiso   1.00
O688   O     0.89441   0.12846   0.75000   0.00000  Uiso   1.00
O689   O     0.89441   0.20487   0.75000   0.00000  Uiso   1.00
O690   O     0.77226   0.12846   0.75000   0.00000  Uiso   1.00
O691   O     0.83333   0.20489   0.68392   0.00000  Uiso   1.00
O692   O     0.83334   0.12844   0.81608   0.00000  Uiso   1.00
O693   O     0.83334   0.20489   0.81608   0.00000  Uiso   1.00
O694   O     0.83333   0.12844   0.68392   0.00000  Uiso   1.00
Zn695  Zn    0.83333   0.21771   0.75000   0.00000  Uiso   1.00
Zn696  Zn    0.83333   0.11563   0.75000   0.00000  Uiso   1.00
C697   C     0.08730   0.50000   0.75872   0.00000  Uiso   1.00
C698   C     0.04351   0.50000   0.77506   0.00000  Uiso   1.00
C699   C     0.16669   0.35726   0.78910   0.00000  Uiso   1.00
C700   C     0.16664   0.64272   0.71090   0.00000  Uiso   1.00
C701   C     0.16664   0.35728   0.71090   0.00000  Uiso   1.00
C702   C     0.16669   0.64274   0.78910   0.00000  Uiso   1.00
C703   C     0.16666   0.50000   0.66325   0.00000  Uiso   1.00
C704   C     0.16668   0.50000   0.83674   0.00000  Uiso   1.00
C705   C     0.16667   0.45872   0.90756   0.00000  Uiso   1.00
C706   C     0.16666   0.54128   0.59236   0.00000  Uiso   1.00
C707   C     0.16668   0.50000   0.88467   0.00000  Uiso   1.00
C708   C     0.24604   0.50000   0.75873   0.00000  Uiso   1.00
C709   C     0.16665   0.50000   0.61527   0.00000  Uiso   1.00
C710   C     0.16668   0.54128   0.90756   0.00000  Uiso   1.00
C711   C     0.16665   0.45872   0.59236   0.00000  Uiso   1.00
C712   C     0.16667   0.54160   0.95362   0.00000  Uiso   1.00
C713   C     0.16665   0.45840   0.54629   0.00000  Uiso   1.00
C714   C     0.16667   0.50000   0.97679   0.00000  Uiso   1.00
C715   C     0.16666   0.50000   0.52312   0.00000  Uiso   1.00
C716   C     0.16666   0.45840   0.95362   0.00000  Uiso   1.00
C717   C     0.16666   0.54159   0.54629   0.00000  Uiso   1.00
C718   C     0.16667   0.58276   0.97682   0.00000  Uiso   1.00
C719   C     0.16667   0.58275   0.52309   0.00000  Uiso   1.00
C720   C     0.16665   0.41725   0.52309   0.00000  Uiso   1.00
C721   C     0.16666   0.41724   0.97681   0.00000  Uiso   1.00
C722   C     0.02227   0.45893   0.78445   0.00000  Uiso   1.00
C723   C     0.31109   0.54107   0.78445   0.00000  Uiso   1.00
C724   C     0.31109   0.45893   0.78445   0.00000  Uiso   1.00
C725   C     0.02227   0.54107   0.78445   0.00000  Uiso   1.00
C726   C     0.28984   0.50000   0.77507   0.00000  Uiso   1.00
H727   H     0.16667   0.42681   0.88966   0.00000  Uiso   1.00
H728   H     0.16662   0.62481   0.67953   0.00000  Uiso   1.00
H729   H     0.16662   0.37519   0.67953   0.00000  Uiso   1.00
H730   H     0.16671   0.62484   0.82047   0.00000  Uiso   1.00
H731   H     0.16666   0.57319   0.61025   0.00000  Uiso   1.00
H732   H     0.16667   0.61482   0.54070   0.00000  Uiso   1.00
H733   H     0.16666   0.38518   0.95920   0.00000  Uiso   1.00
H734   H     0.16668   0.57319   0.88966   0.00000  Uiso   1.00
H735   H     0.16665   0.42681   0.61025   0.00000  Uiso   1.00
H736   H     0.16668   0.61482   0.95920   0.00000  Uiso   1.00
H737   H     0.16665   0.38518   0.54070   0.00000  Uiso   1.00
H738   H     0.16671   0.37516   0.82047   0.00000  Uiso   1.00
I739   I     0.05623   0.39985   0.80652   0.00000  Uiso   1.00
I740   I     0.27714   0.60015   0.80653   0.00000  Uiso   1.00
I741   I     0.27714   0.39985   0.80653   0.00000  Uiso   1.00
I742   I     0.05623   0.60015   0.80652   0.00000  Uiso   1.00
N743   N     0.16667   0.61907   0.75000   0.00000  Uiso   1.00
N744   N     0.16667   0.38093   0.75000   0.00000  Uiso   1.00
O745   O     0.10559   0.53821   0.75000   0.00000  Uiso   1.00
O746   O     0.22774   0.46179   0.75000   0.00000  Uiso   1.00
O747   O     0.22774   0.53821   0.75000   0.00000  Uiso   1.00
O748   O     0.10559   0.46179   0.75000   0.00000  Uiso   1.00
O749   O     0.16666   0.53823   0.68392   0.00000  Uiso   1.00
O750   O     0.16667   0.46177   0.81608   0.00000  Uiso   1.00
O751   O     0.16667   0.53823   0.81608   0.00000  Uiso   1.00
O752   O     0.16666   0.46177   0.68392   0.00000  Uiso   1.00
Zn753  Zn    0.16667   0.55104   0.75000   0.00000  Uiso   1.00
Zn754  Zn    0.16667   0.44896   0.75000   0.00000  Uiso   1.00
C755   C     0.42064   0.50000   0.75872   0.00000  Uiso   1.00
C756   C     0.37684   0.50000   0.77506   0.00000  Uiso   1.00
C757   C     0.50002   0.35726   0.78910   0.00000  Uiso   1.00
C758   C     0.49997   0.64272   0.71090   0.00000  Uiso   1.00
C759   C     0.49997   0.35728   0.71090   0.00000  Uiso   1.00
C760   C     0.50002   0.64274   0.78910   0.00000  Uiso   1.00
C761   C     0.49999   0.50000   0.66325   0.00000  Uiso   1.00
C762   C     0.50001   0.50000   0.83674   0.00000  Uiso   1.00
C763   C     0.50000   0.45872   0.90756   0.00000  Uiso   1.00
C764   C     0.49999   0.54128   0.59236   0.00000  Uiso   1.00
C765   C     0.50001   0.50000   0.88467   0.00000  Uiso   1.00
C766   C     0.57937   0.50000   0.75873   0.00000  Uiso   1.00
C767   C     0.49999   0.50000   0.61527   0.00000  Uiso   1.00
C768   C     0.50001   0.54128   0.90756   0.00000  Uiso   1.00
C769   C     0.49998   0.45872   0.59236   0.00000  Uiso   1.00
C770   C     0.50001   0.54160   0.95362   0.00000  Uiso   1.00
C771   C     0.49999   0.45840   0.54629   0.00000  Uiso   1.00
C772   C     0.50000   0.50000   0.97679   0.00000  Uiso   1.00
C773   C     0.49999   0.50000   0.52312   0.00000  Uiso   1.00
C774   C     0.50000   0.45840   0.95362   0.00000  Uiso   1.00
C775   C     0.49999   0.54159   0.54629   0.00000  Uiso   1.00
C776   C     0.50001   0.58276   0.97682   0.00000  Uiso   1.00
C777   C     0.50000   0.58275   0.52309   0.00000  Uiso   1.00
C778   C     0.49999   0.41725   0.52309   0.00000  Uiso   1.00
C779   C     0.49999   0.41724   0.97681   0.00000  Uiso   1.00
C780   C     0.35560   0.45893   0.78445   0.00000  Uiso   1.00
C781   C     0.64442   0.54107   0.78445   0.00000  Uiso   1.00
C782   C     0.64442   0.45893   0.78445   0.00000  Uiso   1.00
C783   C     0.35560   0.54107   0.78445   0.00000  Uiso   1.00
C784   C     0.62317   0.50000   0.77507   0.00000  Uiso   1.00
H785   H     0.50000   0.42681   0.88966   0.00000  Uiso   1.00
H786   H     0.49995   0.62481   0.67953   0.00000  Uiso   1.00
H787   H     0.49995   0.37519   0.67953   0.00000  Uiso   1.00
H788   H     0.50004   0.62484   0.82047   0.00000  Uiso   1.00
H789   H     0.49999   0.57319   0.61025   0.00000  Uiso   1.00
H790   H     0.50000   0.61482   0.54070   0.00000  Uiso   1.00
H791   H     0.49999   0.38518   0.95920   0.00000  Uiso   1.00
H792   H     0.50001   0.57319   0.88966   0.00000  Uiso   1.00
H793   H     0.49998   0.42681   0.61025   0.00000  Uiso   1.00
H794   H     0.50001   0.61482   0.95920   0.00000  Uiso   1.00
H795   H     0.49998   0.38518   0.54070   0.00000  Uiso   1.00
H796   H     0.50004   0.37516   0.82047   0.00000  Uiso   1.00
I797   I     0.38956   0.39985   0.80652   0.00000  Uiso   1.00
I798   I     0.61047   0.60015   0.80653   0.00000  Uiso   1.00
I799   I     0.61047   0.39985   0.80653   0.00000  Uiso   1.00
I800   I     0.38956   0.60015   0.80652   0.00000  Uiso   1.00
N801   N     0.50000   0.61907   0.75000   0.00000  Uiso   1.00
N802   N     0.50000   0.38093   0.75000   0.00000  Uiso   1.00
O803   O     0.43892   0.53821   0.75000   0.00000  Uiso   1.00
O804   O     0.56108   0.46179   0.75000   0.00000  Uiso   1.00
O805   O     0.56108   0.53821   0.75000   0.00000  Uiso   1.00
O806   O     0.43892   0.46179   0.75000   0.00000  Uiso   1.00
O807   O     0.49999   0.53823   0.68392   0.00000  Uiso   1.00
O808   O     0.50001   0.46177   0.81608   0.00000  Uiso   1.00
O809   O     0.50001   0.53823   0.81608   0.00000  Uiso   1.00
O810   O     0.49999   0.46177   0.68392   0.00000  Uiso   1.00
Zn811  Zn    0.50000   0.55104   0.75000   0.00000  Uiso   1.00
Zn812  Zn    0.50000   0.44896   0.75000   0.00000  Uiso   1.00
C813   C     0.75397   0.50000   0.75872   0.00000  Uiso   1.00
C814   C     0.71018   0.50000   0.77506   0.00000  Uiso   1.00
C815   C     0.83336   0.35726   0.78910   0.00000  Uiso   1.00
C816   C     0.83331   0.64272   0.71090   0.00000  Uiso   1.00
C817   C     0.83331   0.35728   0.71090   0.00000  Uiso   1.00
C818   C     0.83336   0.64274   0.78910   0.00000  Uiso   1.00
C819   C     0.83332   0.50000   0.66325   0.00000  Uiso   1.00
C820   C     0.83334   0.50000   0.83674   0.00000  Uiso   1.00
C821   C     0.83334   0.45872   0.90756   0.00000  Uiso   1.00
C822   C     0.83332   0.54128   0.59236   0.00000  Uiso   1.00
C823   C     0.83334   0.50000   0.88467   0.00000  Uiso   1.00
C824   C     0.91270   0.50000   0.75873   0.00000  Uiso   1.00
C825   C     0.83332   0.50000   0.61527   0.00000  Uiso   1.00
C826   C     0.83334   0.54128   0.90756   0.00000  Uiso   1.00
C827   C     0.83332   0.45872   0.59236   0.00000  Uiso   1.00
C828   C     0.83334   0.54160   0.95362   0.00000  Uiso   1.00
C829   C     0.83332   0.45840   0.54629   0.00000  Uiso   1.00
C830   C     0.83333   0.50000   0.97679   0.00000  Uiso   1.00
C831   C     0.83333   0.50000   0.52312   0.00000  Uiso   1.00
C832   C     0.83333   0.45840   0.95362   0.00000  Uiso   1.00
C833   C     0.83333   0.54159   0.54629   0.00000  Uiso   1.00
C834   C     0.83334   0.58276   0.97682   0.00000  Uiso   1.00
C835   C     0.83333   0.58275   0.52309   0.00000  Uiso   1.00
C836   C     0.83332   0.41725   0.52309   0.00000  Uiso   1.00
C837   C     0.83332   0.41724   0.97681   0.00000  Uiso   1.00
C838   C     0.68894   0.45893   0.78445   0.00000  Uiso   1.00
C839   C     0.97775   0.54107   0.78445   0.00000  Uiso   1.00
C840   C     0.97775   0.45893   0.78445   0.00000  Uiso   1.00
C841   C     0.68894   0.54107   0.78445   0.00000  Uiso   1.00
C842   C     0.95651   0.50000   0.77507   0.00000  Uiso   1.00
H843   H     0.83334   0.42681   0.88966   0.00000  Uiso   1.00
H844   H     0.83329   0.62481   0.67953   0.00000  Uiso   1.00
H845   H     0.83329   0.37519   0.67953   0.00000  Uiso   1.00
H846   H     0.83338   0.62484   0.82047   0.00000  Uiso   1.00
H847   H     0.83333   0.57319   0.61025   0.00000  Uiso   1.00
H848   H     0.83333   0.61482   0.54070   0.00000  Uiso   1.00
H849   H     0.83332   0.38518   0.95920   0.00000  Uiso   1.00
H850   H     0.83335   0.57319   0.88966   0.00000  Uiso   1.00
H851   H     0.83331   0.42681   0.61025   0.00000  Uiso   1.00
H852   H     0.83334   0.61482   0.95920   0.00000  Uiso   1.00
H853   H     0.83331   0.38518   0.54070   0.00000  Uiso   1.00
H854   H     0.83338   0.37516   0.82047   0.00000  Uiso   1.00
I855   I     0.72290   0.39985   0.80652   0.00000  Uiso   1.00
I856   I     0.94380   0.60015   0.80653   0.00000  Uiso   1.00
I857   I     0.94380   0.39985   0.80653   0.00000  Uiso   1.00
I858   I     0.72290   0.60015   0.80652   0.00000  Uiso   1.00
N859   N     0.83333   0.61907   0.75000   0.00000  Uiso   1.00
N860   N     0.83333   0.38093   0.75000   0.00000  Uiso   1.00
O861   O     0.77226   0.53821   0.75000   0.00000  Uiso   1.00
O862   O     0.89441   0.46179   0.75000   0.00000  Uiso   1.00
O863   O     0.89441   0.53821   0.75000   0.00000  Uiso   1.00
O864   O     0.77226   0.46179   0.75000   0.00000  Uiso   1.00
O865   O     0.83333   0.53823   0.68392   0.00000  Uiso   1.00
O866   O     0.83334   0.46177   0.81608   0.00000  Uiso   1.00
O867   O     0.83334   0.53823   0.81608   0.00000  Uiso   1.00
O868   O     0.83333   0.46177   0.68392   0.00000  Uiso   1.00
Zn869  Zn    0.83333   0.55104   0.75000   0.00000  Uiso   1.00
Zn870  Zn    0.83333   0.44896   0.75000   0.00000  Uiso   1.00
C871   C     0.08730   0.83333   0.75872   0.00000  Uiso   1.00
C872   C     0.04351   0.83333   0.77506   0.00000  Uiso   1.00
C873   C     0.16669   0.69060   0.78910   0.00000  Uiso   1.00
C874   C     0.16664   0.97606   0.71090   0.00000  Uiso   1.00
C875   C     0.16664   0.69061   0.71090   0.00000  Uiso   1.00
C876   C     0.16669   0.97607   0.78910   0.00000  Uiso   1.00
C877   C     0.16666   0.83333   0.66325   0.00000  Uiso   1.00
C878   C     0.16668   0.83333   0.83674   0.00000  Uiso   1.00
C879   C     0.16667   0.79205   0.90756   0.00000  Uiso   1.00
C880   C     0.16666   0.87461   0.59236   0.00000  Uiso   1.00
C881   C     0.16668   0.83333   0.88467   0.00000  Uiso   1.00
C882   C     0.24604   0.83333   0.75873   0.00000  Uiso   1.00
C883   C     0.16665   0.83333   0.61527   0.00000  Uiso   1.00
C884   C     0.16668   0.87461   0.90756   0.00000  Uiso   1.00
C885   C     0.16665   0.79206   0.59236   0.00000  Uiso   1.00
C886   C     0.16667   0.87493   0.95362   0.00000  Uiso   1.00
C887   C     0.16665   0.79174   0.54629   0.00000  Uiso   1.00
C888   C     0.16667   0.83333   0.97679   0.00000  Uiso   1.00
C889   C     0.16666   0.83333   0.52312   0.00000  Uiso   1.00
C890   C     0.16666   0.79174   0.95362   0.00000  Uiso   1.00
C891   C     0.16666   0.87493   0.54629   0.00000  Uiso   1.00
C892   C     0.16667   0.91609   0.97682   0.00000  Uiso   1.00
C893   C     0.16667   0.91609   0.52309   0.00000  Uiso   1.00
C894   C     0.16665   0.75058   0.52309   0.00000  Uiso   1.00
C895   C     0.16666   0.75058   0.97681   0.00000  Uiso   1.00
C896   C     0.02227   0.79226   0.78445   0.00000  Uiso   1.00
C897   C     0.31109   0.87441   0.78445   0.00000  Uiso   1.00
C898   C     0.31109   0.79226   0.78445   0.00000  Uiso   1.00
C899   C     0.02227   0.87441   0.78445   0.00000  Uiso   1.00
C900   C     0.28984   0.83333   0.77507   0.00000  Uiso   1.00
H901   H     0.16667   0.76014   0.88966   0.00000  Uiso   1.00
H902   H     0.16662   0.95815   0.67953   0.00000  Uiso   1.00
H903   H     0.16662   0.70852   0.67953   0.00000  Uiso   1.00
H904   H     0.16671   0.95817   0.82047   0.00000  Uiso   1.00
H905   H     0.16666   0.90652   0.61025   0.00000  Uiso   1.00
H906   H     0.16667   0.94815   0.54070   0.00000  Uiso   1.00
H907   H     0.16666   0.71851   0.95920   0.00000  Uiso   1.00
H908   H     0.16668   0.90652   0.88966   0.00000  Uiso   1.00
H909   H     0.16665   0.76015   0.61025   0.00000  Uiso   1.00
H910   H     0.16668   0.94815   0.95920   0.00000  Uiso   1.00
H911   H     0.16665   0.71851   0.54070   0.00000  Uiso   1.00
H912   H     0.16671   0.70849   0.82047   0.00000  Uiso   1.00
I913   I     0.05623   0.73318   0.80652   0.00000  Uiso   1.00
I914   I     0.27714   0.93349   0.80653   0.00000  Uiso   1.00
I915   I     0.27714   0.73318   0.80653   0.00000  Uiso   1.00
I916   I     0.05623   0.93349   0.80652   0.00000  Uiso   1.00
N917   N     0.16667   0.95240   0.75000   0.00000  Uiso   1.00
N918   N     0.16667   0.71427   0.75000   0.00000  Uiso   1.00
O919   O     0.10559   0.87154   0.75000   0.00000  Uiso   1.00
O920   O     0.22774   0.79513   0.75000   0.00000  Uiso   1.00
O921   O     0.22774   0.87154   0.75000   0.00000  Uiso   1.00
O922   O     0.10559   0.79513   0.75000   0.00000  Uiso   1.00
O923   O     0.16666   0.87156   0.68392   0.00000  Uiso   1.00
O924   O     0.16667   0.79511   0.81608   0.00000  Uiso   1.00
O925   O     0.16667   0.87156   0.81608   0.00000  Uiso   1.00
O926   O     0.16666   0.79511   0.68392   0.00000  Uiso   1.00
Zn927  Zn    0.16667   0.88437   0.75000   0.00000  Uiso   1.00
Zn928  Zn    0.16667   0.78229   0.75000   0.00000  Uiso   1.00
C929   C     0.42064   0.83333   0.75872   0.00000  Uiso   1.00
C930   C     0.37684   0.83333   0.77506   0.00000  Uiso   1.00
C931   C     0.50002   0.69060   0.78910   0.00000  Uiso   1.00
C932   C     0.49997   0.97606   0.71090   0.00000  Uiso   1.00
C933   C     0.49997   0.69061   0.71090   0.00000  Uiso   1.00
C934   C     0.50002   0.97607   0.78910   0.00000  Uiso   1.00
C935   C     0.49999   0.83333   0.66325   0.00000  Uiso   1.00
C936   C     0.50001   0.83333   0.83674   0.00000  Uiso   1.00
C937   C     0.50000   0.79205   0.90756   0.00000  Uiso   1.00
C938   C     0.49999   0.87461   0.59236   0.00000  Uiso   1.00
C939   C     0.50001   0.83333   0.88467   0.00000  Uiso   1.00
C940   C     0.57937   0.83333   0.75873   0.00000  Uiso   1.00
C941   C     0.49999   0.83333   0.61527   0.00000  Uiso   1.00
C942   C     0.50001   0.87461   0.90756   0.00000  Uiso   1.00
C943   C     0.49998   0.79206   0.59236   0.00000  Uiso   1.00
C944   C     0.50001   0.87493   0.95362   0.00000  Uiso   1.00
C945   C     0.49999   0.79174   0.54629   0.00000  Uiso   1.00
C946   C     0.50000   0.83333   0.97679   0.00000  Uiso   1.00
C947   C     0.49999   0.83333   0.52312   0.00000  Uiso   1.00
C948   C     0.50000   0.79174   0.95362   0.00000  Uiso   1.00
C949   C     0.49999   0.87493   0.54629   0.00000  Uiso   1.00
C950   C     0.50001   0.91609   0.97682   0.00000  Uiso   1.00
C951   C     0.50000   0.91609   0.52309   0.00000  Uiso   1.00
C952   C     0.49999   0.75058   0.52309   0.00000  Uiso   1.00
C953   C     0.49999   0.75058   0.97681   0.00000  Uiso   1.00
C954   C     0.35560   0.79226   0.78445   0.00000  Uiso   1.00
C955   C     0.64442   0.87441   0.78445   0.00000  Uiso   1.00
C956   C     0.64442   0.79226   0.78445   0.00000  Uiso   1.00
C957   C     0.35560   0.87441   0.78445   0.00000  Uiso   1.00
C958   C     0.62317   0.83333   0.77507   0.00000  Uiso   1.00
H959   H     0.50000   0.76014   0.88966   0.00000  Uiso   1.00
H960   H     0.49995   0.95815   0.67953   0.00000  Uiso   1.00
H961   H     0.49995   0.70852   0.67953   0.00000  Uiso   1.00
H962   H     0.50004   0.95817   0.82047   0.00000  Uiso   1.00
H963   H     0.49999   0.90652   0.61025   0.00000  Uiso   1.00
H964   H     0.50000   0.94815   0.54070   0.00000  Uiso   1.00
H965   H     0.49999   0.71851   0.95920   0.00000  Uiso   1.00
H966   H     0.50001   0.90652   0.88966   0.00000  Uiso   1.00
H967   H     0.49998   0.76015   0.61025   0.00000  Uiso   1.00
H968   H     0.50001   0.94815   0.95920   0.00000  Uiso   1.00
H969   H     0.49998   0.71851   0.54070   0.00000  Uiso   1.00
H970   H     0.50004   0.70849   0.82047   0.00000  Uiso   1.00
I971   I     0.38956   0.73318   0.80652   0.00000  Uiso   1.00
I972   I     0.61047   0.93349   0.80653   0.00000  Uiso   1.00
I973   I     0.61047   0.73318   0.80653   0.00000  Uiso   1.00
I974   I     0.38956   0.93349   0.80652   0.00000  Uiso   1.00
N975   N     0.50000   0.95240   0.75000   0.00000  Uiso   1.00
N976   N     0.50000   0.71427   0.75000   0.00000  Uiso   1.00
O977   O     0.43892   0.87154   0.75000   0.00000  Uiso   1.00
O978   O     0.56108   0.79513   0.75000   0.00000  Uiso   1.00
O979   O     0.56108   0.87154   0.75000   0.00000  Uiso   1.00
O980   O     0.43892   0.79513   0.75000   0.00000  Uiso   1.00
O981   O     0.49999   0.87156   0.68392   0.00000  Uiso   1.00
O982   O     0.50001   0.79511   0.81608   0.00000  Uiso   1.00
O983   O     0.50001   0.87156   0.81608   0.00000  Uiso   1.00
O984   O     0.49999   0.79511   0.68392   0.00000  Uiso   1.00
Zn985  Zn    0.50000   0.88437   0.75000   0.00000  Uiso   1.00
Zn986  Zn    0.50000   0.78229   0.75000   0.00000  Uiso   1.00
C987   C     0.75397   0.83333   0.75872   0.00000  Uiso   1.00
C988   C     0.71018   0.83333   0.77506   0.00000  Uiso   1.00
C989   C     0.83336   0.69060   0.78910   0.00000  Uiso   1.00
C990   C     0.83331   0.97606   0.71090   0.00000  Uiso   1.00
C991   C     0.83331   0.69061   0.71090   0.00000  Uiso   1.00
C992   C     0.83336   0.97607   0.78910   0.00000  Uiso   1.00
C993   C     0.83332   0.83333   0.66325   0.00000  Uiso   1.00
C994   C     0.83334   0.83333   0.83674   0.00000  Uiso   1.00
C995   C     0.83334   0.79205   0.90756   0.00000  Uiso   1.00
C996   C     0.83332   0.87461   0.59236   0.00000  Uiso   1.00
C997   C     0.83334   0.83333   0.88467   0.00000  Uiso   1.00
C998   C     0.91270   0.83333   0.75873   0.00000  Uiso   1.00
C999   C     0.83332   0.83333   0.61527   0.00000  Uiso   1.00
C1000  C     0.83334   0.87461   0.90756   0.00000  Uiso   1.00
C1001  C     0.83332   0.79206   0.59236   0.00000  Uiso   1.00
C1002  C     0.83334   0.87493   0.95362   0.00000  Uiso   1.00
C1003  C     0.83332   0.79174   0.54629   0.00000  Uiso   1.00
C1004  C     0.83333   0.83333   0.97679   0.00000  Uiso   1.00
C1005  C     0.83333   0.83333   0.52312   0.00000  Uiso   1.00
C1006  C     0.83333   0.79174   0.95362   0.00000  Uiso   1.00
C1007  C     0.83333   0.87493   0.54629   0.00000  Uiso   1.00
C1008  C     0.83334   0.91609   0.97682   0.00000  Uiso   1.00
C1009  C     0.83333   0.91609   0.52309   0.00000  Uiso   1.00
C1010  C     0.83332   0.75058   0.52309   0.00000  Uiso   1.00
C1011  C     0.83332   0.75058   0.97681   0.00000  Uiso   1.00
C1012  C     0.68894   0.79226   0.78445   0.00000  Uiso   1.00
C1013  C     0.97775   0.87441   0.78445   0.00000  Uiso   1.00
C1014  C     0.97775   0.79226   0.78445   0.00000  Uiso   1.00
C1015  C     0.68894   0.87441   0.78445   0.00000  Uiso   1.00
C1016  C     0.95651   0.83333   0.77507   0.00000  Uiso   1.00
H1017  H     0.83334   0.76014   0.88966   0.00000  Uiso   1.00
H1018  H     0.83329   0.95815   0.67953   0.00000  Uiso   1.00
H1019  H     0.83329   0.70852   0.67953   0.00000  Uiso   1.00
H1020  H     0.83338   0.95817   0.82047   0.00000  Uiso   1.00
H1021  H     0.83333   0.90652   0.61025   0.00000  Uiso   1.00
H1022  H     0.83333   0.94815   0.54070   0.00000  Uiso   1.00
H1023  H     0.83332   0.71851   0.95920   0.00000  Uiso   1.00
H1024  H     0.83335   0.90652   0.88966   0.00000  Uiso   1.00
H1025  H     0.83331   0.76015   0.61025   0.00000  Uiso   1.00
H1026  H     0.83334   0.94815   0.95920   0.00000  Uiso   1.00
H1027  H     0.83331   0.71851   0.54070   0.00000  Uiso   1.00
H1028  H     0.83338   0.70849   0.82047   0.00000  Uiso   1.00
I1029  I     0.72290   0.73318   0.80652   0.00000  Uiso   1.00
I1030  I     0.94380   0.93349   0.80653   0.00000  Uiso   1.00
I1031  I     0.94380   0.73318   0.80653   0.00000  Uiso   1.00
I1032  I     0.72290   0.93349   0.80652   0.00000  Uiso   1.00
N1033  N     0.83333   0.95240   0.75000   0.00000  Uiso   1.00
N1034  N     0.83333   0.71427   0.75000   0.00000  Uiso   1.00
O1035  O     0.77226   0.87154   0.75000   0.00000  Uiso   1.00
O1036  O     0.89441   0.79513   0.75000   0.00000  Uiso   1.00
O1037  O     0.89441   0.87154   0.75000   0.00000  Uiso   1.00
O1038  O     0.77226   0.79513   0.75000   0.00000  Uiso   1.00
O1039  O     0.83333   0.87156   0.68392   0.00000  Uiso   1.00
O1040  O     0.83334   0.79511   0.81608   0.00000  Uiso   1.00
O1041  O     0.83334   0.87156   0.81608   0.00000  Uiso   1.00
O1042  O     0.83333   0.79511   0.68392   0.00000  Uiso   1.00
Zn1043 Zn    0.83333   0.88437   0.75000   0.00000  Uiso   1.00
Zn1044 Zn    0.83333   0.78229   0.75000   0.00000  Uiso   1.00
loop_
_geom_bond_atom_site_label_1
_geom_bond_atom_site_label_2
_geom_bond_distance
_geom_bond_site_symmetry_2
_ccdc_geom_bond_type
C1     O52     1.292   .     A
C1     C2      1.458   .     S
C1     O49     1.292   .     A
C2     C26     1.412   .     A
C2     C29     1.412   .     A
C3     H42     1.080   .     S
C3     N48     1.366   .     A
C3     C354    1.412   1_545 S
C4     H32     1.080   .     S
C4     N47     1.366   .     A
C4     C179    1.413   .     S
C5     N48     1.366   .     A
C5     H33     1.080   .     S
C5     C352    1.413   1_545 S
C6     N47     1.366   .     A
C6     H34     1.080   .     S
C6     C177    1.412   .     S
C7     O56     1.288   .     A
C7     O53     1.288   .     A
C7     C13     1.441   .     S
C8     C11     1.439   .     S
C8     O55     1.287   .     A
C8     O54     1.287   .     A
C9     C20     1.383   .     A
C9     C11     1.399   .     A
C9     H31     1.084   .     S
C10    H35     1.084   .     S
C10    C21     1.383   .     A
C10    C13     1.399   .     A
C11    C14     1.399   .     A
C12    O50     1.292   .     A
C12    O51     1.292   .     A
C12    C30     1.458   .     S
C13    C15     1.399   .     A
C14    C16     1.383   .     A
C14    H38     1.084   .     S
C15    H39     1.084   .     S
C15    C17     1.383   .     A
C16    C18     1.411   .     A
C16    C22     1.400   .     A
C17    C19     1.411   .     A
C17    C24     1.400   .     A
C18    C20     1.411   .     A
C18    C541    1.391   .     S
C19    C21     1.411   .     A
C19    C540    1.391   1_554 S
C20    C25     1.400   .     A
C21    C23     1.400   .     A
C22    H40     1.084   .     S
C22    C545    1.389   .     S
C23    H36     1.084   .     S
C23    C544    1.389   1_554 S
C24    H41     1.084   .     S
C24    C547    1.389   1_554 S
C25    H37     1.084   .     S
C25    C546    1.389   .     S
C26    I43     2.148   .     S
C26    C144    1.396   1_455 S
C27    C30     1.412   .     A
C27    I44     2.148   .     S
C27    C87     1.396   .     S
C28    C30     1.412   .     A
C28    I45     2.148   .     S
C28    C84     1.396   .     S
C29    I46     2.148   .     S
C29    C143    1.396   1_455 S
N47    Zn57    2.007   .     S
N48    Zn58    2.007   .     S
O49    Zn57    1.952   .     S
O50    Zn58    1.952   .     S
O51    Zn57    1.952   .     S
O52    Zn58    1.952   .     S
O53    Zn57    2.020   .     S
O54    Zn58    2.020   .     S
O55    Zn57    2.020   .     S
O56    Zn58    2.020   .     S
C59    O110    1.292   .     A
C59    C60     1.458   .     S
C59    O107    1.292   .     A
C60    C84     1.412   .     A
C60    C87     1.412   .     A
C61    H100    1.080   .     S
C61    N106    1.366   .     A
C61    C412    1.412   1_545 S
C62    H90     1.080   .     S
C62    N105    1.366   .     A
C62    C237    1.413   .     S
C63    N106    1.366   .     A
C63    H91     1.080   .     S
C63    C410    1.413   1_545 S
C64    N105    1.366   .     A
C64    H92     1.080   .     S
C64    C235    1.412   .     S
C65    O114    1.288   .     A
C65    O111    1.288   .     A
C65    C71     1.441   .     S
C66    C69     1.439   .     S
C66    O113    1.287   .     A
C66    O112    1.287   .     A
C67    C78     1.383   .     A
C67    C69     1.399   .     A
C67    H89     1.084   .     S
C68    H93     1.084   .     S
C68    C79     1.383   .     A
C68    C71     1.399   .     A
C69    C72     1.399   .     A
C70    O108    1.292   .     A
C70    O109    1.292   .     A
C70    C88     1.458   .     S
C71    C73     1.399   .     A
C72    C74     1.383   .     A
C72    H96     1.084   .     S
C73    H97     1.084   .     S
C73    C75     1.383   .     A
C74    C76     1.411   .     A
C74    C80     1.400   .     A
C75    C77     1.411   .     A
C75    C82     1.400   .     A
C76    C78     1.411   .     A
C76    C599    1.391   .     S
C77    C79     1.411   .     A
C77    C598    1.391   1_554 S
C78    C83     1.400   .     A
C79    C81     1.400   .     A
C80    H98     1.084   .     S
C80    C603    1.389   .     S
C81    H94     1.084   .     S
C81    C602    1.389   1_554 S
C82    H99     1.084   .     S
C82    C605    1.389   1_554 S
C83    H95     1.084   .     S
C83    C604    1.389   .     S
C84    I101    2.148   .     S
C85    C88     1.412   .     A
C85    I102    2.148   .     S
C85    C145    1.396   .     S
C86    C88     1.412   .     A
C86    I103    2.148   .     S
C86    C142    1.396   .     S
C87    I104    2.148   .     S
N105   Zn115   2.007   .     S
N106   Zn116   2.007   .     S
O107   Zn115   1.952   .     S
O108   Zn116   1.952   .     S
O109   Zn115   1.952   .     S
O110   Zn116   1.952   .     S
O111   Zn115   2.020   .     S
O112   Zn116   2.020   .     S
O113   Zn115   2.020   .     S
O114   Zn116   2.020   .     S
C117   O168    1.292   .     A
C117   C118    1.458   .     S
C117   O165    1.292   .     A
C118   C142    1.412   .     A
C118   C145    1.412   .     A
C119   H158    1.080   .     S
C119   N164    1.366   .     A
C119   C470    1.412   1_545 S
C120   H148    1.080   .     S
C120   N163    1.366   .     A
C120   C295    1.413   .     S
C121   N164    1.366   .     A
C121   H149    1.080   .     S
C121   C468    1.413   1_545 S
C122   N163    1.366   .     A
C122   H150    1.080   .     S
C122   C293    1.412   .     S
C123   O172    1.288   .     A
C123   O169    1.288   .     A
C123   C129    1.441   .     S
C124   C127    1.439   .     S
C124   O171    1.287   .     A
C124   O170    1.287   .     A
C125   C136    1.383   .     A
C125   C127    1.399   .     A
C125   H147    1.084   .     S
C126   H151    1.084   .     S
C126   C137    1.383   .     A
C126   C129    1.399   .     A
C127   C130    1.399   .     A
C128   O166    1.292   .     A
C128   O167    1.292   .     A
C128   C146    1.458   .     S
C129   C131    1.399   .     A
C130   C132    1.383   .     A
C130   H154    1.084   .     S
C131   H155    1.084   .     S
C131   C133    1.383   .     A
C132   C134    1.411   .     A
C132   C138    1.400   .     A
C133   C135    1.411   .     A
C133   C140    1.400   .     A
C134   C136    1.411   .     A
C134   C657    1.391   .     S
C135   C137    1.411   .     A
C135   C656    1.391   1_554 S
C136   C141    1.400   .     A
C137   C139    1.400   .     A
C138   H156    1.084   .     S
C138   C661    1.389   .     S
C139   H152    1.084   .     S
C139   C660    1.389   1_554 S
C140   H157    1.084   .     S
C140   C663    1.389   1_554 S
C141   H153    1.084   .     S
C141   C662    1.389   .     S
C142   I159    2.148   .     S
C143   C146    1.412   .     A
C143   I160    2.148   .     S
C143   C29     1.396   1_655 S
C144   C146    1.412   .     A
C144   I161    2.148   .     S
C144   C26     1.396   1_655 S
C145   I162    2.148   .     S
N163   Zn173   2.007   .     S
N164   Zn174   2.007   .     S
O165   Zn173   1.952   .     S
O166   Zn174   1.952   .     S
O167   Zn173   1.952   .     S
O168   Zn174   1.952   .     S
O169   Zn173   2.020   .     S
O170   Zn174   2.020   .     S
O171   Zn173   2.020   .     S
O172   Zn174   2.020   .     S
C175   O226    1.292   .     A
C175   C176    1.458   .     S
C175   O223    1.292   .     A
C176   C200    1.412   .     A
C176   C203    1.412   .     A
C177   H216    1.080   .     S
C177   N222    1.366   .     A
C178   H206    1.080   .     S
C178   N221    1.366   .     A
C178   C353    1.413   .     S
C179   N222    1.366   .     A
C179   H207    1.080   .     S
C180   N221    1.366   .     A
C180   H208    1.080   .     S
C180   C351    1.412   .     S
C181   O230    1.288   .     A
C181   O227    1.288   .     A
C181   C187    1.441   .     S
C182   C185    1.439   .     S
C182   O229    1.287   .     A
C182   O228    1.287   .     A
C183   C194    1.383   .     A
C183   C185    1.399   .     A
C183   H205    1.084   .     S
C184   H209    1.084   .     S
C184   C195    1.383   .     A
C184   C187    1.399   .     A
C185   C188    1.399   .     A
C186   O224    1.292   .     A
C186   O225    1.292   .     A
C186   C204    1.458   .     S
C187   C189    1.399   .     A
C188   C190    1.383   .     A
C188   H212    1.084   .     S
C189   H213    1.084   .     S
C189   C191    1.383   .     A
C190   C192    1.411   .     A
C190   C196    1.400   .     A
C191   C193    1.411   .     A
C191   C198    1.400   .     A
C192   C194    1.411   .     A
C192   C715    1.391   .     S
C193   C195    1.411   .     A
C193   C714    1.391   1_554 S
C194   C199    1.400   .     A
C195   C197    1.400   .     A
C196   H214    1.084   .     S
C196   C719    1.389   .     S
C197   H210    1.084   .     S
C197   C718    1.389   1_554 S
C198   H215    1.084   .     S
C198   C721    1.389   1_554 S
C199   H211    1.084   .     S
C199   C720    1.389   .     S
C200   I217    2.148   .     S
C200   C318    1.396   1_455 S
C201   C204    1.412   .     A
C201   I218    2.148   .     S
C201   C261    1.396   .     S
C202   C204    1.412   .     A
C202   I219    2.148   .     S
C202   C258    1.396   .     S
C203   I220    2.148   .     S
C203   C317    1.396   1_455 S
N221   Zn231   2.007   .     S
N222   Zn232   2.007   .     S
O223   Zn231   1.952   .     S
O224   Zn232   1.952   .     S
O225   Zn231   1.952   .     S
O226   Zn232   1.952   .     S
O227   Zn231   2.020   .     S
O228   Zn232   2.020   .     S
O229   Zn231   2.020   .     S
O230   Zn232   2.020   .     S
C233   O284    1.292   .     A
C233   C234    1.458   .     S
C233   O281    1.292   .     A
C234   C258    1.412   .     A
C234   C261    1.412   .     A
C235   H274    1.080   .     S
C235   N280    1.366   .     A
C236   H264    1.080   .     S
C236   N279    1.366   .     A
C236   C411    1.413   .     S
C237   N280    1.366   .     A
C237   H265    1.080   .     S
C238   N279    1.366   .     A
C238   H266    1.080   .     S
C238   C409    1.412   .     S
C239   O288    1.288   .     A
C239   O285    1.288   .     A
C239   C245    1.441   .     S
C240   C243    1.439   .     S
C240   O287    1.287   .     A
C240   O286    1.287   .     A
C241   C252    1.383   .     A
C241   C243    1.399   .     A
C241   H263    1.084   .     S
C242   H267    1.084   .     S
C242   C253    1.383   .     A
C242   C245    1.399   .     A
C243   C246    1.399   .     A
C244   O282    1.292   .     A
C244   O283    1.292   .     A
C244   C262    1.458   .     S
C245   C247    1.399   .     A
C246   C248    1.383   .     A
C246   H270    1.084   .     S
C247   H271    1.084   .     S
C247   C249    1.383   .     A
C248   C250    1.411   .     A
C248   C254    1.400   .     A
C249   C251    1.411   .     A
C249   C256    1.400   .     A
C250   C252    1.411   .     A
C250   C773    1.391   .     S
C251   C253    1.411   .     A
C251   C772    1.391   1_554 S
C252   C257    1.400   .     A
C253   C255    1.400   .     A
C254   H272    1.084   .     S
C254   C777    1.389   .     S
C255   H268    1.084   .     S
C255   C776    1.389   1_554 S
C256   H273    1.084   .     S
C256   C779    1.389   1_554 S
C257   H269    1.084   .     S
C257   C778    1.389   .     S
C258   I275    2.148   .     S
C259   C262    1.412   .     A
C259   I276    2.148   .     S
C259   C319    1.396   .     S
C260   C262    1.412   .     A
C260   I277    2.148   .     S
C260   C316    1.396   .     S
C261   I278    2.148   .     S
N279   Zn289   2.007   .     S
N280   Zn290   2.007   .     S
O281   Zn289   1.952   .     S
O282   Zn290   1.952   .     S
O283   Zn289   1.952   .     S
O284   Zn290   1.952   .     S
O285   Zn289   2.020   .     S
O286   Zn290   2.020   .     S
O287   Zn289   2.020   .     S
O288   Zn290   2.020   .     S
C291   O342    1.292   .     A
C291   C292    1.458   .     S
C291   O339    1.292   .     A
C292   C316    1.412   .     A
C292   C319    1.412   .     A
C293   H332    1.080   .     S
C293   N338    1.366   .     A
C294   H322    1.080   .     S
C294   N337    1.366   .     A
C294   C469    1.413   .     S
C295   N338    1.366   .     A
C295   H323    1.080   .     S
C296   N337    1.366   .     A
C296   H324    1.080   .     S
C296   C467    1.412   .     S
C297   O346    1.288   .     A
C297   O343    1.288   .     A
C297   C303    1.441   .     S
C298   C301    1.439   .     S
C298   O345    1.287   .     A
C298   O344    1.287   .     A
C299   C310    1.383   .     A
C299   C301    1.399   .     A
C299   H321    1.084   .     S
C300   H325    1.084   .     S
C300   C311    1.383   .     A
C300   C303    1.399   .     A
C301   C304    1.399   .     A
C302   O340    1.292   .     A
C302   O341    1.292   .     A
C302   C320    1.458   .     S
C303   C305    1.399   .     A
C304   C306    1.383   .     A
C304   H328    1.084   .     S
C305   H329    1.084   .     S
C305   C307    1.383   .     A
C306   C308    1.411   .     A
C306   C312    1.400   .     A
C307   C309    1.411   .     A
C307   C314    1.400   .     A
C308   C310    1.411   .     A
C308   C831    1.391   .     S
C309   C311    1.411   .     A
C309   C830    1.391   1_554 S
C310   C315    1.400   .     A
C311   C313    1.400   .     A
C312   H330    1.084   .     S
C312   C835    1.389   .     S
C313   H326    1.084   .     S
C313   C834    1.389   1_554 S
C314   H331    1.084   .     S
C314   C837    1.389   1_554 S
C315   H327    1.084   .     S
C315   C836    1.389   .     S
C316   I333    2.148   .     S
C317   C320    1.412   .     A
C317   I334    2.148   .     S
C317   C203    1.396   1_655 S
C318   C320    1.412   .     A
C318   I335    2.148   .     S
C318   C200    1.396   1_655 S
C319   I336    2.148   .     S
N337   Zn347   2.007   .     S
N338   Zn348   2.007   .     S
O339   Zn347   1.952   .     S
O340   Zn348   1.952   .     S
O341   Zn347   1.952   .     S
O342   Zn348   1.952   .     S
O343   Zn347   2.020   .     S
O344   Zn348   2.020   .     S
O345   Zn347   2.020   .     S
O346   Zn348   2.020   .     S
C349   O400    1.292   .     A
C349   C350    1.458   .     S
C349   O397    1.292   .     A
C350   C374    1.412   .     A
C350   C377    1.412   .     A
C351   H390    1.080   .     S
C351   N396    1.366   .     A
C352   H380    1.080   .     S
C352   N395    1.366   .     A
C352   C5      1.413   1_565 S
C353   N396    1.366   .     A
C353   H381    1.080   .     S
C354   N395    1.366   .     A
C354   H382    1.080   .     S
C354   C3      1.412   1_565 S
C355   O404    1.288   .     A
C355   O401    1.288   .     A
C355   C361    1.441   .     S
C356   C359    1.439   .     S
C356   O403    1.287   .     A
C356   O402    1.287   .     A
C357   C368    1.383   .     A
C357   C359    1.399   .     A
C357   H379    1.084   .     S
C358   H383    1.084   .     S
C358   C369    1.383   .     A
C358   C361    1.399   .     A
C359   C362    1.399   .     A
C360   O398    1.292   .     A
C360   O399    1.292   .     A
C360   C378    1.458   .     S
C361   C363    1.399   .     A
C362   C364    1.383   .     A
C362   H386    1.084   .     S
C363   H387    1.084   .     S
C363   C365    1.383   .     A
C364   C366    1.411   .     A
C364   C370    1.400   .     A
C365   C367    1.411   .     A
C365   C372    1.400   .     A
C366   C368    1.411   .     A
C366   C889    1.391   .     S
C367   C369    1.411   .     A
C367   C888    1.391   1_554 S
C368   C373    1.400   .     A
C369   C371    1.400   .     A
C370   H388    1.084   .     S
C370   C893    1.389   .     S
C371   H384    1.084   .     S
C371   C892    1.389   1_554 S
C372   H389    1.084   .     S
C372   C895    1.389   1_554 S
C373   H385    1.084   .     S
C373   C894    1.389   .     S
C374   I391    2.148   .     S
C374   C492    1.396   1_455 S
C375   C378    1.412   .     A
C375   I392    2.148   .     S
C375   C435    1.396   .     S
C376   C378    1.412   .     A
C376   I393    2.148   .     S
C376   C432    1.396   .     S
C377   I394    2.148   .     S
C377   C491    1.396   1_455 S
N395   Zn405   2.007   .     S
N396   Zn406   2.007   .     S
O397   Zn405   1.952   .     S
O398   Zn406   1.952   .     S
O399   Zn405   1.952   .     S
O400   Zn406   1.952   .     S
O401   Zn405   2.020   .     S
O402   Zn406   2.020   .     S
O403   Zn405   2.020   .     S
O404   Zn406   2.020   .     S
C407   O458    1.292   .     A
C407   C408    1.458   .     S
C407   O455    1.292   .     A
C408   C432    1.412   .     A
C408   C435    1.412   .     A
C409   H448    1.080   .     S
C409   N454    1.366   .     A
C410   H438    1.080   .     S
C410   N453    1.366   .     A
C410   C63     1.413   1_565 S
C411   N454    1.366   .     A
C411   H439    1.080   .     S
C412   N453    1.366   .     A
C412   H440    1.080   .     S
C412   C61     1.412   1_565 S
C413   O462    1.288   .     A
C413   O459    1.288   .     A
C413   C419    1.441   .     S
C414   C417    1.439   .     S
C414   O461    1.287   .     A
C414   O460    1.287   .     A
C415   C426    1.383   .     A
C415   C417    1.399   .     A
C415   H437    1.084   .     S
C416   H441    1.084   .     S
C416   C427    1.383   .     A
C416   C419    1.399   .     A
C417   C420    1.399   .     A
C418   O456    1.292   .     A
C418   O457    1.292   .     A
C418   C436    1.458   .     S
C419   C421    1.399   .     A
C420   C422    1.383   .     A
C420   H444    1.084   .     S
C421   H445    1.084   .     S
C421   C423    1.383   .     A
C422   C424    1.411   .     A
C422   C428    1.400   .     A
C423   C425    1.411   .     A
C423   C430    1.400   .     A
C424   C426    1.411   .     A
C424   C947    1.391   .     S
C425   C427    1.411   .     A
C425   C946    1.391   1_554 S
C426   C431    1.400   .     A
C427   C429    1.400   .     A
C428   H446    1.084   .     S
C428   C951    1.389   .     S
C429   H442    1.084   .     S
C429   C950    1.389   1_554 S
C430   H447    1.084   .     S
C430   C953    1.389   1_554 S
C431   H443    1.084   .     S
C431   C952    1.389   .     S
C432   I449    2.148   .     S
C433   C436    1.412   .     A
C433   I450    2.148   .     S
C433   C493    1.396   .     S
C434   C436    1.412   .     A
C434   I451    2.148   .     S
C434   C490    1.396   .     S
C435   I452    2.148   .     S
N453   Zn463   2.007   .     S
N454   Zn464   2.007   .     S
O455   Zn463   1.952   .     S
O456   Zn464   1.952   .     S
O457   Zn463   1.952   .     S
O458   Zn464   1.952   .     S
O459   Zn463   2.020   .     S
O460   Zn464   2.020   .     S
O461   Zn463   2.020   .     S
O462   Zn464   2.020   .     S
C465   O516    1.292   .     A
C465   C466    1.458   .     S
C465   O513    1.292   .     A
C466   C490    1.412   .     A
C466   C493    1.412   .     A
C467   H506    1.080   .     S
C467   N512    1.366   .     A
C468   H496    1.080   .     S
C468   N511    1.366   .     A
C468   C121    1.413   1_565 S
C469   N512    1.366   .     A
C469   H497    1.080   .     S
C470   N511    1.366   .     A
C470   H498    1.080   .     S
C470   C119    1.412   1_565 S
C471   O520    1.288   .     A
C471   O517    1.288   .     A
C471   C477    1.441   .     S
C472   C475    1.439   .     S
C472   O519    1.287   .     A
C472   O518    1.287   .     A
C473   C484    1.383   .     A
C473   C475    1.399   .     A
C473   H495    1.084   .     S
C474   H499    1.084   .     S
C474   C485    1.383   .     A
C474   C477    1.399   .     A
C475   C478    1.399   .     A
C476   O514    1.292   .     A
C476   O515    1.292   .     A
C476   C494    1.458   .     S
C477   C479    1.399   .     A
C478   C480    1.383   .     A
C478   H502    1.084   .     S
C479   H503    1.084   .     S
C479   C481    1.383   .     A
C480   C482    1.411   .     A
C480   C486    1.400   .     A
C481   C483    1.411   .     A
C481   C488    1.400   .     A
C482   C484    1.411   .     A
C482   C1005   1.391   .     S
C483   C485    1.411   .     A
C483   C1004   1.391   1_554 S
C484   C489    1.400   .     A
C485   C487    1.400   .     A
C486   H504    1.084   .     S
C486   C1009   1.389   .     S
C487   H500    1.084   .     S
C487   C1008   1.389   1_554 S
C488   H505    1.084   .     S
C488   C1011   1.389   1_554 S
C489   H501    1.084   .     S
C489   C1010   1.389   .     S
C490   I507    2.148   .     S
C491   C494    1.412   .     A
C491   I508    2.148   .     S
C491   C377    1.396   1_655 S
C492   C494    1.412   .     A
C492   I509    2.148   .     S
C492   C374    1.396   1_655 S
C493   I510    2.148   .     S
N511   Zn521   2.007   .     S
N512   Zn522   2.007   .     S
O513   Zn521   1.952   .     S
O514   Zn522   1.952   .     S
O515   Zn521   1.952   .     S
O516   Zn522   1.952   .     S
O517   Zn521   2.020   .     S
O518   Zn522   2.020   .     S
O519   Zn521   2.020   .     S
O520   Zn522   2.020   .     S
C523   O574    1.292   .     A
C523   C524    1.458   .     S
C523   O571    1.292   .     A
C524   C548    1.412   .     A
C524   C551    1.412   .     A
C525   H564    1.080   .     S
C525   N570    1.366   .     A
C525   C876    1.412   1_545 S
C526   H554    1.080   .     S
C526   N569    1.366   .     A
C526   C701    1.413   .     S
C527   N570    1.366   .     A
C527   H555    1.080   .     S
C527   C874    1.413   1_545 S
C528   N569    1.366   .     A
C528   H556    1.080   .     S
C528   C699    1.412   .     S
C529   O578    1.288   .     A
C529   O575    1.288   .     A
C529   C535    1.441   .     S
C530   C533    1.439   .     S
C530   O577    1.287   .     A
C530   O576    1.287   .     A
C531   C542    1.383   .     A
C531   C533    1.399   .     A
C531   H553    1.084   .     S
C532   H557    1.084   .     S
C532   C543    1.383   .     A
C532   C535    1.399   .     A
C533   C536    1.399   .     A
C534   O572    1.292   .     A
C534   O573    1.292   .     A
C534   C552    1.458   .     S
C535   C537    1.399   .     A
C536   C538    1.383   .     A
C536   H560    1.084   .     S
C537   H561    1.084   .     S
C537   C539    1.383   .     A
C538   C540    1.411   .     A
C538   C544    1.400   .     A
C539   C541    1.411   .     A
C539   C546    1.400   .     A
C540   C542    1.411   .     A
C540   C19     1.391   1_556 S
C541   C543    1.411   .     A
C542   C547    1.400   .     A
C543   C545    1.400   .     A
C544   H562    1.084   .     S
C544   C23     1.389   1_556 S
C545   H558    1.084   .     S
C546   H563    1.084   .     S
C547   H559    1.084   .     S
C547   C24     1.389   1_556 S
C548   I565    2.148   .     S
C548   C666    1.396   1_455 S
C549   C552    1.412   .     A
C549   I566    2.148   .     S
C549   C609    1.396   .     S
C550   C552    1.412   .     A
C550   I567    2.148   .     S
C550   C606    1.396   .     S
C551   I568    2.148   .     S
C551   C665    1.396   1_455 S
N569   Zn579   2.007   .     S
N570   Zn580   2.007   .     S
O571   Zn579   1.952   .     S
O572   Zn580   1.952   .     S
O573   Zn579   1.952   .     S
O574   Zn580   1.952   .     S
O575   Zn579   2.020   .     S
O576   Zn580   2.020   .     S
O577   Zn579   2.020   .     S
O578   Zn580   2.020   .     S
C581   O632    1.292   .     A
C581   C582    1.458   .     S
C581   O629    1.292   .     A
C582   C606    1.412   .     A
C582   C609    1.412   .     A
C583   H622    1.080   .     S
C583   N628    1.366   .     A
C583   C934    1.412   1_545 S
C584   H612    1.080   .     S
C584   N627    1.366   .     A
C584   C759    1.413   .     S
C585   N628    1.366   .     A
C585   H613    1.080   .     S
C585   C932    1.413   1_545 S
C586   N627    1.366   .     A
C586   H614    1.080   .     S
C586   C757    1.412   .     S
C587   O636    1.288   .     A
C587   O633    1.288   .     A
C587   C593    1.441   .     S
C588   C591    1.439   .     S
C588   O635    1.287   .     A
C588   O634    1.287   .     A
C589   C600    1.383   .     A
C589   C591    1.399   .     A
C589   H611    1.084   .     S
C590   H615    1.084   .     S
C590   C601    1.383   .     A
C590   C593    1.399   .     A
C591   C594    1.399   .     A
C592   O630    1.292   .     A
C592   O631    1.292   .     A
C592   C610    1.458   .     S
C593   C595    1.399   .     A
C594   C596    1.383   .     A
C594   H618    1.084   .     S
C595   H619    1.084   .     S
C595   C597    1.383   .     A
C596   C598    1.411   .     A
C596   C602    1.400   .     A
C597   C599    1.411   .     A
C597   C604    1.400   .     A
C598   C600    1.411   .     A
C598   C77     1.391   1_556 S
C599   C601    1.411   .     A
C600   C605    1.400   .     A
C601   C603    1.400   .     A
C602   H620    1.084   .     S
C602   C81     1.389   1_556 S
C603   H616    1.084   .     S
C604   H621    1.084   .     S
C605   H617    1.084   .     S
C605   C82     1.389   1_556 S
C606   I623    2.148   .     S
C607   C610    1.412   .     A
C607   I624    2.148   .     S
C607   C667    1.396   .     S
C608   C610    1.412   .     A
C608   I625    2.148   .     S
C608   C664    1.396   .     S
C609   I626    2.148   .     S
N627   Zn637   2.007   .     S
N628   Zn638   2.007   .     S
O629   Zn637   1.952   .     S
O630   Zn638   1.952   .     S
O631   Zn637   1.952   .     S
O632   Zn638   1.952   .     S
O633   Zn637   2.020   .     S
O634   Zn638   2.020   .     S
O635   Zn637   2.020   .     S
O636   Zn638   2.020   .     S
C639   O690    1.292   .     A
C639   C640    1.458   .     S
C639   O687    1.292   .     A
C640   C664    1.412   .     A
C640   C667    1.412   .     A
C641   H680    1.080   .     S
C641   N686    1.366   .     A
C641   C992    1.412   1_545 S
C642   H670    1.080   .     S
C642   N685    1.366   .     A
C642   C817    1.413   .     S
C643   N686    1.366   .     A
C643   H671    1.080   .     S
C643   C990    1.413   1_545 S
C644   N685    1.366   .     A
C644   H672    1.080   .     S
C644   C815    1.412   .     S
C645   O694    1.288   .     A
C645   O691    1.288   .     A
C645   C651    1.441   .     S
C646   C649    1.439   .     S
C646   O693    1.287   .     A
C646   O692    1.287   .     A
C647   C658    1.383   .     A
C647   C649    1.399   .     A
C647   H669    1.084   .     S
C648   H673    1.084   .     S
C648   C659    1.383   .     A
C648   C651    1.399   .     A
C649   C652    1.399   .     A
C650   O688    1.292   .     A
C650   O689    1.292   .     A
C650   C668    1.458   .     S
C651   C653    1.399   .     A
C652   C654    1.383   .     A
C652   H676    1.084   .     S
C653   H677    1.084   .     S
C653   C655    1.383   .     A
C654   C656    1.411   .     A
C654   C660    1.400   .     A
C655   C657    1.411   .     A
C655   C662    1.400   .     A
C656   C658    1.411   .     A
C656   C135    1.391   1_556 S
C657   C659    1.411   .     A
C658   C663    1.400   .     A
C659   C661    1.400   .     A
C660   H678    1.084   .     S
C660   C139    1.389   1_556 S
C661   H674    1.084   .     S
C662   H679    1.084   .     S
C663   H675    1.084   .     S
C663   C140    1.389   1_556 S
C664   I681    2.148   .     S
C665   C668    1.412   .     A
C665   I682    2.148   .     S
C665   C551    1.396   1_655 S
C666   C668    1.412   .     A
C666   I683    2.148   .     S
C666   C548    1.396   1_655 S
C667   I684    2.148   .     S
N685   Zn695   2.007   .     S
N686   Zn696   2.007   .     S
O687   Zn695   1.952   .     S
O688   Zn696   1.952   .     S
O689   Zn695   1.952   .     S
O690   Zn696   1.952   .     S
O691   Zn695   2.020   .     S
O692   Zn696   2.020   .     S
O693   Zn695   2.020   .     S
O694   Zn696   2.020   .     S
C697   O748    1.292   .     A
C697   C698    1.458   .     S
C697   O745    1.292   .     A
C698   C722    1.412   .     A
C698   C725    1.412   .     A
C699   H738    1.080   .     S
C699   N744    1.366   .     A
C700   H728    1.080   .     S
C700   N743    1.366   .     A
C700   C875    1.413   .     S
C701   N744    1.366   .     A
C701   H729    1.080   .     S
C702   N743    1.366   .     A
C702   H730    1.080   .     S
C702   C873    1.412   .     S
C703   O752    1.288   .     A
C703   O749    1.288   .     A
C703   C709    1.441   .     S
C704   C707    1.439   .     S
C704   O751    1.287   .     A
C704   O750    1.287   .     A
C705   C716    1.383   .     A
C705   C707    1.399   .     A
C705   H727    1.084   .     S
C706   H731    1.084   .     S
C706   C717    1.383   .     A
C706   C709    1.399   .     A
C707   C710    1.399   .     A
C708   O746    1.292   .     A
C708   O747    1.292   .     A
C708   C726    1.458   .     S
C709   C711    1.399   .     A
C710   C712    1.383   .     A
C710   H734    1.084   .     S
C711   H735    1.084   .     S
C711   C713    1.383   .     A
C712   C714    1.411   .     A
C712   C718    1.400   .     A
C713   C715    1.411   .     A
C713   C720    1.400   .     A
C714   C716    1.411   .     A
C714   C193    1.391   1_556 S
C715   C717    1.411   .     A
C716   C721    1.400   .     A
C717   C719    1.400   .     A
C718   H736    1.084   .     S
C718   C197    1.389   1_556 S
C719   H732    1.084   .     S
C720   H737    1.084   .     S
C721   H733    1.084   .     S
C721   C198    1.389   1_556 S
C722   I739    2.148   .     S
C722   C840    1.396   1_455 S
C723   C726    1.412   .     A
C723   I740    2.148   .     S
C723   C783    1.396   .     S
C724   C726    1.412   .     A
C724   I741    2.148   .     S
C724   C780    1.396   .     S
C725   I742    2.148   .     S
C725   C839    1.396   1_455 S
N743   Zn753   2.007   .     S
N744   Zn754   2.007   .     S
O745   Zn753   1.952   .     S
O746   Zn754   1.952   .     S
O747   Zn753   1.952   .     S
O748   Zn754   1.952   .     S
O749   Zn753   2.020   .     S
O750   Zn754   2.020   .     S
O751   Zn753   2.020   .     S
O752   Zn754   2.020   .     S
C755   O806    1.292   .     A
C755   C756    1.458   .     S
C755   O803    1.292   .     A
C756   C780    1.412   .     A
C756   C783    1.412   .     A
C757   H796    1.080   .     S
C757   N802    1.366   .     A
C758   H786    1.080   .     S
C758   N801    1.366   .     A
C758   C933    1.413   .     S
C759   N802    1.366   .     A
C759   H787    1.080   .     S
C760   N801    1.366   .     A
C760   H788    1.080   .     S
C760   C931    1.412   .     S
C761   O810    1.288   .     A
C761   O807    1.288   .     A
C761   C767    1.441   .     S
C762   C765    1.439   .     S
C762   O809    1.287   .     A
C762   O808    1.287   .     A
C763   C774    1.383   .     A
C763   C765    1.399   .     A
C763   H785    1.084   .     S
C764   H789    1.084   .     S
C764   C775    1.383   .     A
C764   C767    1.399   .     A
C765   C768    1.399   .     A
C766   O804    1.292   .     A
C766   O805    1.292   .     A
C766   C784    1.458   .     S
C767   C769    1.399   .     A
C768   C770    1.383   .     A
C768   H792    1.084   .     S
C769   H793    1.084   .     S
C769   C771    1.383   .     A
C770   C772    1.411   .     A
C770   C776    1.400   .     A
C771   C773    1.411   .     A
C771   C778    1.400   .     A
C772   C774    1.411   .     A
C772   C251    1.391   1_556 S
C773   C775    1.411   .     A
C774   C779    1.400   .     A
C775   C777    1.400   .     A
C776   H794    1.084   .     S
C776   C255    1.389   1_556 S
C777   H790    1.084   .     S
C778   H795    1.084   .     S
C779   H791    1.084   .     S
C779   C256    1.389   1_556 S
C780   I797    2.148   .     S
C781   C784    1.412   .     A
C781   I798    2.148   .     S
C781   C841    1.396   .     S
C782   C784    1.412   .     A
C782   I799    2.148   .     S
C782   C838    1.396   .     S
C783   I800    2.148   .     S
N801   Zn811   2.007   .     S
N802   Zn812   2.007   .     S
O803   Zn811   1.952   .     S
O804   Zn812   1.952   .     S
O805   Zn811   1.952   .     S
O806   Zn812   1.952   .     S
O807   Zn811   2.020   .     S
O808   Zn812   2.020   .     S
O809   Zn811   2.020   .     S
O810   Zn812   2.020   .     S
C813   O864    1.292   .     A
C813   C814    1.458   .     S
C813   O861    1.292   .     A
C814   C838    1.412   .     A
C814   C841    1.412   .     A
C815   H854    1.080   .     S
C815   N860    1.366   .     A
C816   H844    1.080   .     S
C816   N859    1.366   .     A
C816   C991    1.413   .     S
C817   N860    1.366   .     A
C817   H845    1.080   .     S
C818   N859    1.366   .     A
C818   H846    1.080   .     S
C818   C989    1.412   .     S
C819   O868    1.288   .     A
C819   O865    1.288   .     A
C819   C825    1.441   .     S
C820   C823    1.439   .     S
C820   O867    1.287   .     A
C820   O866    1.287   .     A
C821   C832    1.383   .     A
C821   C823    1.399   .     A
C821   H843    1.084   .     S
C822   H847    1.084   .     S
C822   C833    1.383   .     A
C822   C825    1.399   .     A
C823   C826    1.399   .     A
C824   O862    1.292   .     A
C824   O863    1.292   .     A
C824   C842    1.458   .     S
C825   C827    1.399   .     A
C826   C828    1.383   .     A
C826   H850    1.084   .     S
C827   H851    1.084   .     S
C827   C829    1.383   .     A
C828   C830    1.411   .     A
C828   C834    1.400   .     A
C829   C831    1.411   .     A
C829   C836    1.400   .     A
C830   C832    1.411   .     A
C830   C309    1.391   1_556 S
C831   C833    1.411   .     A
C832   C837    1.400   .     A
C833   C835    1.400   .     A
C834   H852    1.084   .     S
C834   C313    1.389   1_556 S
C835   H848    1.084   .     S
C836   H853    1.084   .     S
C837   H849    1.084   .     S
C837   C314    1.389   1_556 S
C838   I855    2.148   .     S
C839   C842    1.412   .     A
C839   I856    2.148   .     S
C839   C725    1.396   1_655 S
C840   C842    1.412   .     A
C840   I857    2.148   .     S
C840   C722    1.396   1_655 S
C841   I858    2.148   .     S
N859   Zn869   2.007   .     S
N860   Zn870   2.007   .     S
O861   Zn869   1.952   .     S
O862   Zn870   1.952   .     S
O863   Zn869   1.952   .     S
O864   Zn870   1.952   .     S
O865   Zn869   2.020   .     S
O866   Zn870   2.020   .     S
O867   Zn869   2.020   .     S
O868   Zn870   2.020   .     S
C871   O922    1.292   .     A
C871   C872    1.458   .     S
C871   O919    1.292   .     A
C872   C896    1.412   .     A
C872   C899    1.412   .     A
C873   H912    1.080   .     S
C873   N918    1.366   .     A
C874   H902    1.080   .     S
C874   N917    1.366   .     A
C874   C527    1.413   1_565 S
C875   N918    1.366   .     A
C875   H903    1.080   .     S
C876   N917    1.366   .     A
C876   H904    1.080   .     S
C876   C525    1.412   1_565 S
C877   O926    1.288   .     A
C877   O923    1.288   .     A
C877   C883    1.441   .     S
C878   C881    1.439   .     S
C878   O925    1.287   .     A
C878   O924    1.287   .     A
C879   C890    1.383   .     A
C879   C881    1.399   .     A
C879   H901    1.084   .     S
C880   H905    1.084   .     S
C880   C891    1.383   .     A
C880   C883    1.399   .     A
C881   C884    1.399   .     A
C882   O920    1.292   .     A
C882   O921    1.292   .     A
C882   C900    1.458   .     S
C883   C885    1.399   .     A
C884   C886    1.383   .     A
C884   H908    1.084   .     S
C885   H909    1.084   .     S
C885   C887    1.383   .     A
C886   C888    1.411   .     A
C886   C892    1.400   .     A
C887   C889    1.411   .     A
C887   C894    1.400   .     A
C888   C890    1.411   .     A
C888   C367    1.391   1_556 S
C889   C891    1.411   .     A
C890   C895    1.400   .     A
C891   C893    1.400   .     A
C892   H910    1.084   .     S
C892   C371    1.389   1_556 S
C893   H906    1.084   .     S
C894   H911    1.084   .     S
C895   H907    1.084   .     S
C895   C372    1.389   1_556 S
C896   I913    2.148   .     S
C896   C1014   1.396   1_455 S
C897   C900    1.412   .     A
C897   I914    2.148   .     S
C897   C957    1.396   .     S
C898   C900    1.412   .     A
C898   I915    2.148   .     S
C898   C954    1.396   .     S
C899   I916    2.148   .     S
C899   C1013   1.396   1_455 S
N917   Zn927   2.007   .     S
N918   Zn928   2.007   .     S
O919   Zn927   1.952   .     S
O920   Zn928   1.952   .     S
O921   Zn927   1.952   .     S
O922   Zn928   1.952   .     S
O923   Zn927   2.020   .     S
O924   Zn928   2.020   .     S
O925   Zn927   2.020   .     S
O926   Zn928   2.020   .     S
C929   O980    1.292   .     A
C929   C930    1.458   .     S
C929   O977    1.292   .     A
C930   C954    1.412   .     A
C930   C957    1.412   .     A
C931   H970    1.080   .     S
C931   N976    1.366   .     A
C932   H960    1.080   .     S
C932   N975    1.366   .     A
C932   C585    1.413   1_565 S
C933   N976    1.366   .     A
C933   H961    1.080   .     S
C934   N975    1.366   .     A
C934   H962    1.080   .     S
C934   C583    1.412   1_565 S
C935   O984    1.288   .     A
C935   O981    1.288   .     A
C935   C941    1.441   .     S
C936   C939    1.439   .     S
C936   O983    1.287   .     A
C936   O982    1.287   .     A
C937   C948    1.383   .     A
C937   C939    1.399   .     A
C937   H959    1.084   .     S
C938   H963    1.084   .     S
C938   C949    1.383   .     A
C938   C941    1.399   .     A
C939   C942    1.399   .     A
C940   O978    1.292   .     A
C940   O979    1.292   .     A
C940   C958    1.458   .     S
C941   C943    1.399   .     A
C942   C944    1.383   .     A
C942   H966    1.084   .     S
C943   H967    1.084   .     S
C943   C945    1.383   .     A
C944   C946    1.411   .     A
C944   C950    1.400   .     A
C945   C947    1.411   .     A
C945   C952    1.400   .     A
C946   C948    1.411   .     A
C946   C425    1.391   1_556 S
C947   C949    1.411   .     A
C948   C953    1.400   .     A
C949   C951    1.400   .     A
C950   H968    1.084   .     S
C950   C429    1.389   1_556 S
C951   H964    1.084   .     S
C952   H969    1.084   .     S
C953   H965    1.084   .     S
C953   C430    1.389   1_556 S
C954   I971    2.148   .     S
C955   C958    1.412   .     A
C955   I972    2.148   .     S
C955   C1015   1.396   .     S
C956   C958    1.412   .     A
C956   I973    2.148   .     S
C956   C1012   1.396   .     S
C957   I974    2.148   .     S
N975   Zn985   2.007   .     S
N976   Zn986   2.007   .     S
O977   Zn985   1.952   .     S
O978   Zn986   1.952   .     S
O979   Zn985   1.952   .     S
O980   Zn986   1.952   .     S
O981   Zn985   2.020   .     S
O982   Zn986   2.020   .     S
O983   Zn985   2.020   .     S
O984   Zn986   2.020   .     S
C987   O1038   1.292   .     A
C987   C988    1.458   .     S
C987   O1035   1.292   .     A
C988   C1012   1.412   .     A
C988   C1015   1.412   .     A
C989   H1028   1.080   .     S
C989   N1034   1.366   .     A
C990   H1018   1.080   .     S
C990   N1033   1.366   .     A
C990   C643    1.413   1_565 S
C991   N1034   1.366   .     A
C991   H1019   1.080   .     S
C992   N1033   1.366   .     A
C992   H1020   1.080   .     S
C992   C641    1.412   1_565 S
C993   O1042   1.288   .     A
C993   O1039   1.288   .     A
C993   C999    1.441   .     S
C994   C997    1.439   .     S
C994   O1041   1.287   .     A
C994   O1040   1.287   .     A
C995   C1006   1.383   .     A
C995   C997    1.399   .     A
C995   H1017   1.084   .     S
C996   H1021   1.084   .     S
C996   C1007   1.383   .     A
C996   C999    1.399   .     A
C997   C1000   1.399   .     A
C998   O1036   1.292   .     A
C998   O1037   1.292   .     A
C998   C1016   1.458   .     S
C999   C1001   1.399   .     A
C1000  C1002   1.383   .     A
C1000  H1024   1.084   .     S
C1001  H1025   1.084   .     S
C1001  C1003   1.383   .     A
C1002  C1004   1.411   .     A
C1002  C1008   1.400   .     A
C1003  C1005   1.411   .     A
C1003  C1010   1.400   .     A
C1004  C1006   1.411   .     A
C1004  C483    1.391   1_556 S
C1005  C1007   1.411   .     A
C1006  C1011   1.400   .     A
C1007  C1009   1.400   .     A
C1008  H1026   1.084   .     S
C1008  C487    1.389   1_556 S
C1009  H1022   1.084   .     S
C1010  H1027   1.084   .     S
C1011  H1023   1.084   .     S
C1011  C488    1.389   1_556 S
C1012  I1029   2.148   .     S
C1013  C1016   1.412   .     A
C1013  I1030   2.148   .     S
C1013  C899    1.396   1_655 S
C1014  C1016   1.412   .     A
C1014  I1031   2.148   .     S
C1014  C896    1.396   1_655 S
C1015  I1032   2.148   .     S
N1033  Zn1043  2.007   .     S
N1034  Zn1044  2.007   .     S
O1035  Zn1043  1.952   .     S
O1036  Zn1044  1.952   .     S
O1037  Zn1043  1.952   .     S
O1038  Zn1044  1.952   .     S
O1039  Zn1043  2.020   .     S
O1040  Zn1044  2.020   .     S
O1041  Zn1043  2.020   .     S
O1042  Zn1044  2.020   .     S
