data_str_m2_o2_o5_pcu_sym.72
_audit_creation_date              2020-01-03
_audit_creation_method            'Materials Studio'
_symmetry_space_group_name_H-M    'P1'
_symmetry_Int_Tables_number       1
_symmetry_cell_setting            triclinic
loop_
_symmetry_equiv_pos_as_xyz
  x,y,z
_cell_length_a                    30.2772
_cell_length_b                    27.8842
_cell_length_c                    27.2390
_cell_angle_alpha                 90.0000
_cell_angle_beta                  90.8662
_cell_angle_gamma                 90.0000
loop_
_atom_site_label
_atom_site_type_symbol
_atom_site_fract_x
_atom_site_fract_y
_atom_site_fract_z
_atom_site_U_iso_or_equiv
_atom_site_adp_type
_atom_site_occupancy
C1     C     0.16500   0.24999   0.16659   0.00000  Uiso   1.00
C2     C     0.27458   0.44590   0.20155   0.00000  Uiso   1.00
C3     C     0.24994   0.25000   0.07357   0.00000  Uiso   1.00
C4     C     0.25006   0.25000   0.25977   0.00000  Uiso   1.00
C5     C     0.25000   0.02739   0.16667   0.00000  Uiso   1.00
C6     C     0.25000   0.47265   0.16667   0.00000  Uiso   1.00
C7     C     0.24998   0.25001   0.02185   0.00000  Uiso   1.00
C8     C     0.25002   0.25001   0.31148   0.00000  Uiso   1.00
C9     C     0.04737   0.29081   0.15173   0.00000  Uiso   1.00
C10    C     0.45212   0.20876   0.15198   0.00000  Uiso   1.00
C11    C     0.45263   0.29081   0.18160   0.00000  Uiso   1.00
C12    C     0.33500   0.24999   0.16674   0.00000  Uiso   1.00
C13    C     0.04788   0.20876   0.18136   0.00000  Uiso   1.00
C14    C     0.09328   0.29099   0.15207   0.00000  Uiso   1.00
C15    C     0.40621   0.20871   0.15236   0.00000  Uiso   1.00
C16    C     0.40672   0.29099   0.18126   0.00000  Uiso   1.00
C17    C     0.09379   0.20871   0.18098   0.00000  Uiso   1.00
C18    C     0.11675   0.24991   0.16655   0.00000  Uiso   1.00
C19    C     0.38325   0.24991   0.16679   0.00000  Uiso   1.00
C20    C     0.02429   0.24976   0.16660   0.00000  Uiso   1.00
C21    C     0.47571   0.24976   0.16674   0.00000  Uiso   1.00
C22    C     0.28015   0.10472   0.19478   0.00000  Uiso   1.00
C23    C     0.22498   0.39531   0.13291   0.00000  Uiso   1.00
C24    C     0.21985   0.10472   0.13856   0.00000  Uiso   1.00
C25    C     0.27502   0.39531   0.20042   0.00000  Uiso   1.00
C26    C     0.28115   0.05414   0.19434   0.00000  Uiso   1.00
C27    C     0.22542   0.44590   0.13178   0.00000  Uiso   1.00
C28    C     0.21885   0.05414   0.13899   0.00000  Uiso   1.00
Cu29   Cu    0.25000   0.29822   0.16667   0.00000  Uiso   1.00
Cu30   Cu    0.25000   0.20179   0.16667   0.00000  Uiso   1.00
H31    H     0.02997   0.32259   0.13931   0.00000  Uiso   1.00
H32    H     0.20644   0.46325   0.10305   0.00000  Uiso   1.00
H33    H     0.19319   0.03679   0.11760   0.00000  Uiso   1.00
H34    H     0.29357   0.46325   0.23029   0.00000  Uiso   1.00
H35    H     0.30672   0.11941   0.26141   0.00000  Uiso   1.00
H36    H     0.34287   0.12063   0.21473   0.00000  Uiso   1.00
H37    H     0.20780   0.37922   0.06304   0.00000  Uiso   1.00
H38    H     0.16532   0.38109   0.10247   0.00000  Uiso   1.00
H39    H     0.19328   0.11941   0.07192   0.00000  Uiso   1.00
H40    H     0.15713   0.12062   0.11860   0.00000  Uiso   1.00
H41    H     0.29220   0.37923   0.27029   0.00000  Uiso   1.00
H42    H     0.46910   0.17692   0.13953   0.00000  Uiso   1.00
H43    H     0.33468   0.38108   0.23086   0.00000  Uiso   1.00
H44    H     0.47003   0.32259   0.19403   0.00000  Uiso   1.00
H45    H     0.03090   0.17692   0.19380   0.00000  Uiso   1.00
H46    H     0.11036   0.32304   0.14040   0.00000  Uiso   1.00
H47    H     0.38870   0.17671   0.14068   0.00000  Uiso   1.00
H48    H     0.38964   0.32304   0.19294   0.00000  Uiso   1.00
H49    H     0.11130   0.17670   0.19265   0.00000  Uiso   1.00
H50    H     0.30681   0.03679   0.21573   0.00000  Uiso   1.00
N51    N     0.25000   0.12935   0.16667   0.00000  Uiso   1.00
N52    N     0.25000   0.37066   0.16667   0.00000  Uiso   1.00
N53    N     0.31099   0.13039   0.22509   0.00000  Uiso   1.00
N54    N     0.19795   0.36971   0.09835   0.00000  Uiso   1.00
N55    N     0.18901   0.13039   0.10825   0.00000  Uiso   1.00
N56    N     0.30205   0.36971   0.23498   0.00000  Uiso   1.00
O57    O     0.18573   0.29072   0.16667   0.00000  Uiso   1.00
O58    O     0.31427   0.20929   0.16666   0.00000  Uiso   1.00
O59    O     0.31427   0.29072   0.16666   0.00000  Uiso   1.00
O60    O     0.18573   0.20929   0.16667   0.00000  Uiso   1.00
O61    O     0.25000   0.29071   0.09613   0.00000  Uiso   1.00
O62    O     0.25000   0.20929   0.23720   0.00000  Uiso   1.00
O63    O     0.25000   0.29071   0.23720   0.00000  Uiso   1.00
O64    O     0.25000   0.20929   0.09613   0.00000  Uiso   1.00
C65    C     0.66500   0.24999   0.16659   0.00000  Uiso   1.00
C66    C     0.77458   0.44590   0.20155   0.00000  Uiso   1.00
C67    C     0.74994   0.25000   0.07357   0.00000  Uiso   1.00
C68    C     0.75006   0.25000   0.25977   0.00000  Uiso   1.00
C69    C     0.75000   0.02739   0.16667   0.00000  Uiso   1.00
C70    C     0.75000   0.47265   0.16667   0.00000  Uiso   1.00
C71    C     0.74998   0.25001   0.02185   0.00000  Uiso   1.00
C72    C     0.75002   0.25001   0.31148   0.00000  Uiso   1.00
C73    C     0.54737   0.29081   0.15173   0.00000  Uiso   1.00
C74    C     0.95212   0.20876   0.15198   0.00000  Uiso   1.00
C75    C     0.95263   0.29081   0.18160   0.00000  Uiso   1.00
C76    C     0.83500   0.24999   0.16674   0.00000  Uiso   1.00
C77    C     0.54788   0.20876   0.18136   0.00000  Uiso   1.00
C78    C     0.59328   0.29099   0.15207   0.00000  Uiso   1.00
C79    C     0.90621   0.20871   0.15236   0.00000  Uiso   1.00
C80    C     0.90672   0.29099   0.18126   0.00000  Uiso   1.00
C81    C     0.59379   0.20871   0.18098   0.00000  Uiso   1.00
C82    C     0.61675   0.24991   0.16655   0.00000  Uiso   1.00
C83    C     0.88325   0.24991   0.16679   0.00000  Uiso   1.00
C84    C     0.52429   0.24976   0.16660   0.00000  Uiso   1.00
C85    C     0.97571   0.24976   0.16674   0.00000  Uiso   1.00
C86    C     0.78015   0.10472   0.19478   0.00000  Uiso   1.00
C87    C     0.72498   0.39531   0.13291   0.00000  Uiso   1.00
C88    C     0.71985   0.10472   0.13856   0.00000  Uiso   1.00
C89    C     0.77502   0.39531   0.20042   0.00000  Uiso   1.00
C90    C     0.78115   0.05414   0.19434   0.00000  Uiso   1.00
C91    C     0.72542   0.44590   0.13178   0.00000  Uiso   1.00
C92    C     0.71885   0.05414   0.13899   0.00000  Uiso   1.00
Cu93   Cu    0.75000   0.29822   0.16667   0.00000  Uiso   1.00
Cu94   Cu    0.75000   0.20179   0.16667   0.00000  Uiso   1.00
H95    H     0.52997   0.32259   0.13931   0.00000  Uiso   1.00
H96    H     0.70644   0.46325   0.10305   0.00000  Uiso   1.00
H97    H     0.69319   0.03679   0.11760   0.00000  Uiso   1.00
H98    H     0.79357   0.46325   0.23029   0.00000  Uiso   1.00
H99    H     0.80672   0.11941   0.26141   0.00000  Uiso   1.00
H100   H     0.84287   0.12063   0.21473   0.00000  Uiso   1.00
H101   H     0.70780   0.37922   0.06304   0.00000  Uiso   1.00
H102   H     0.66532   0.38109   0.10247   0.00000  Uiso   1.00
H103   H     0.69328   0.11941   0.07192   0.00000  Uiso   1.00
H104   H     0.65713   0.12062   0.11860   0.00000  Uiso   1.00
H105   H     0.79220   0.37923   0.27029   0.00000  Uiso   1.00
H106   H     0.96910   0.17692   0.13953   0.00000  Uiso   1.00
H107   H     0.83468   0.38108   0.23086   0.00000  Uiso   1.00
H108   H     0.97003   0.32259   0.19403   0.00000  Uiso   1.00
H109   H     0.53090   0.17692   0.19380   0.00000  Uiso   1.00
H110   H     0.61036   0.32304   0.14040   0.00000  Uiso   1.00
H111   H     0.88870   0.17671   0.14068   0.00000  Uiso   1.00
H112   H     0.88964   0.32304   0.19294   0.00000  Uiso   1.00
H113   H     0.61130   0.17670   0.19265   0.00000  Uiso   1.00
H114   H     0.80681   0.03679   0.21573   0.00000  Uiso   1.00
N115   N     0.75000   0.12935   0.16667   0.00000  Uiso   1.00
N116   N     0.75000   0.37066   0.16667   0.00000  Uiso   1.00
N117   N     0.81099   0.13039   0.22509   0.00000  Uiso   1.00
N118   N     0.69795   0.36971   0.09835   0.00000  Uiso   1.00
N119   N     0.68901   0.13039   0.10825   0.00000  Uiso   1.00
N120   N     0.80205   0.36971   0.23498   0.00000  Uiso   1.00
O121   O     0.68573   0.29072   0.16667   0.00000  Uiso   1.00
O122   O     0.81427   0.20929   0.16666   0.00000  Uiso   1.00
O123   O     0.81427   0.29072   0.16666   0.00000  Uiso   1.00
O124   O     0.68573   0.20929   0.16667   0.00000  Uiso   1.00
O125   O     0.75000   0.29071   0.09613   0.00000  Uiso   1.00
O126   O     0.75000   0.20929   0.23720   0.00000  Uiso   1.00
O127   O     0.75000   0.29071   0.23720   0.00000  Uiso   1.00
O128   O     0.75000   0.20929   0.09613   0.00000  Uiso   1.00
C129   C     0.16500   0.74999   0.16659   0.00000  Uiso   1.00
C130   C     0.27458   0.94590   0.20155   0.00000  Uiso   1.00
C131   C     0.24994   0.75000   0.07357   0.00000  Uiso   1.00
C132   C     0.25006   0.75000   0.25977   0.00000  Uiso   1.00
C133   C     0.25000   0.52739   0.16667   0.00000  Uiso   1.00
C134   C     0.25000   0.97265   0.16667   0.00000  Uiso   1.00
C135   C     0.24998   0.75001   0.02185   0.00000  Uiso   1.00
C136   C     0.25002   0.75001   0.31148   0.00000  Uiso   1.00
C137   C     0.04737   0.79081   0.15173   0.00000  Uiso   1.00
C138   C     0.45212   0.70876   0.15198   0.00000  Uiso   1.00
C139   C     0.45263   0.79081   0.18160   0.00000  Uiso   1.00
C140   C     0.33500   0.74999   0.16674   0.00000  Uiso   1.00
C141   C     0.04788   0.70876   0.18136   0.00000  Uiso   1.00
C142   C     0.09328   0.79099   0.15207   0.00000  Uiso   1.00
C143   C     0.40621   0.70871   0.15236   0.00000  Uiso   1.00
C144   C     0.40672   0.79099   0.18126   0.00000  Uiso   1.00
C145   C     0.09379   0.70871   0.18098   0.00000  Uiso   1.00
C146   C     0.11675   0.74991   0.16655   0.00000  Uiso   1.00
C147   C     0.38325   0.74991   0.16679   0.00000  Uiso   1.00
C148   C     0.02429   0.74976   0.16660   0.00000  Uiso   1.00
C149   C     0.47571   0.74976   0.16674   0.00000  Uiso   1.00
C150   C     0.28015   0.60472   0.19478   0.00000  Uiso   1.00
C151   C     0.22498   0.89531   0.13291   0.00000  Uiso   1.00
C152   C     0.21985   0.60472   0.13856   0.00000  Uiso   1.00
C153   C     0.27502   0.89531   0.20042   0.00000  Uiso   1.00
C154   C     0.28115   0.55414   0.19434   0.00000  Uiso   1.00
C155   C     0.22542   0.94590   0.13178   0.00000  Uiso   1.00
C156   C     0.21885   0.55414   0.13899   0.00000  Uiso   1.00
Cu157  Cu    0.25000   0.79822   0.16667   0.00000  Uiso   1.00
Cu158  Cu    0.25000   0.70179   0.16667   0.00000  Uiso   1.00
H159   H     0.02997   0.82259   0.13931   0.00000  Uiso   1.00
H160   H     0.20644   0.96325   0.10305   0.00000  Uiso   1.00
H161   H     0.19319   0.53679   0.11760   0.00000  Uiso   1.00
H162   H     0.29357   0.96325   0.23029   0.00000  Uiso   1.00
H163   H     0.30672   0.61941   0.26141   0.00000  Uiso   1.00
H164   H     0.34287   0.62063   0.21473   0.00000  Uiso   1.00
H165   H     0.20780   0.87922   0.06304   0.00000  Uiso   1.00
H166   H     0.16532   0.88109   0.10247   0.00000  Uiso   1.00
H167   H     0.19328   0.61941   0.07192   0.00000  Uiso   1.00
H168   H     0.15713   0.62062   0.11860   0.00000  Uiso   1.00
H169   H     0.29220   0.87923   0.27029   0.00000  Uiso   1.00
H170   H     0.46910   0.67692   0.13953   0.00000  Uiso   1.00
H171   H     0.33468   0.88108   0.23086   0.00000  Uiso   1.00
H172   H     0.47003   0.82259   0.19403   0.00000  Uiso   1.00
H173   H     0.03090   0.67692   0.19380   0.00000  Uiso   1.00
H174   H     0.11036   0.82304   0.14040   0.00000  Uiso   1.00
H175   H     0.38870   0.67671   0.14068   0.00000  Uiso   1.00
H176   H     0.38964   0.82304   0.19294   0.00000  Uiso   1.00
H177   H     0.11130   0.67670   0.19265   0.00000  Uiso   1.00
H178   H     0.30681   0.53679   0.21573   0.00000  Uiso   1.00
N179   N     0.25000   0.62935   0.16667   0.00000  Uiso   1.00
N180   N     0.25000   0.87066   0.16667   0.00000  Uiso   1.00
N181   N     0.31099   0.63039   0.22509   0.00000  Uiso   1.00
N182   N     0.19795   0.86971   0.09835   0.00000  Uiso   1.00
N183   N     0.18901   0.63039   0.10825   0.00000  Uiso   1.00
N184   N     0.30205   0.86971   0.23498   0.00000  Uiso   1.00
O185   O     0.18573   0.79072   0.16667   0.00000  Uiso   1.00
O186   O     0.31427   0.70929   0.16666   0.00000  Uiso   1.00
O187   O     0.31427   0.79072   0.16666   0.00000  Uiso   1.00
O188   O     0.18573   0.70929   0.16667   0.00000  Uiso   1.00
O189   O     0.25000   0.79071   0.09613   0.00000  Uiso   1.00
O190   O     0.25000   0.70929   0.23720   0.00000  Uiso   1.00
O191   O     0.25000   0.79071   0.23720   0.00000  Uiso   1.00
O192   O     0.25000   0.70929   0.09613   0.00000  Uiso   1.00
C193   C     0.66500   0.74999   0.16659   0.00000  Uiso   1.00
C194   C     0.77458   0.94590   0.20155   0.00000  Uiso   1.00
C195   C     0.74994   0.75000   0.07357   0.00000  Uiso   1.00
C196   C     0.75006   0.75000   0.25977   0.00000  Uiso   1.00
C197   C     0.75000   0.52739   0.16667   0.00000  Uiso   1.00
C198   C     0.75000   0.97265   0.16667   0.00000  Uiso   1.00
C199   C     0.74998   0.75001   0.02185   0.00000  Uiso   1.00
C200   C     0.75002   0.75001   0.31148   0.00000  Uiso   1.00
C201   C     0.54737   0.79081   0.15173   0.00000  Uiso   1.00
C202   C     0.95212   0.70876   0.15198   0.00000  Uiso   1.00
C203   C     0.95263   0.79081   0.18160   0.00000  Uiso   1.00
C204   C     0.83500   0.74999   0.16674   0.00000  Uiso   1.00
C205   C     0.54788   0.70876   0.18136   0.00000  Uiso   1.00
C206   C     0.59328   0.79099   0.15207   0.00000  Uiso   1.00
C207   C     0.90621   0.70871   0.15236   0.00000  Uiso   1.00
C208   C     0.90672   0.79099   0.18126   0.00000  Uiso   1.00
C209   C     0.59379   0.70871   0.18098   0.00000  Uiso   1.00
C210   C     0.61675   0.74991   0.16655   0.00000  Uiso   1.00
C211   C     0.88325   0.74991   0.16679   0.00000  Uiso   1.00
C212   C     0.52429   0.74976   0.16660   0.00000  Uiso   1.00
C213   C     0.97571   0.74976   0.16674   0.00000  Uiso   1.00
C214   C     0.78015   0.60472   0.19478   0.00000  Uiso   1.00
C215   C     0.72498   0.89531   0.13291   0.00000  Uiso   1.00
C216   C     0.71985   0.60472   0.13856   0.00000  Uiso   1.00
C217   C     0.77502   0.89531   0.20042   0.00000  Uiso   1.00
C218   C     0.78115   0.55414   0.19434   0.00000  Uiso   1.00
C219   C     0.72542   0.94590   0.13178   0.00000  Uiso   1.00
C220   C     0.71885   0.55414   0.13899   0.00000  Uiso   1.00
Cu221  Cu    0.75000   0.79822   0.16667   0.00000  Uiso   1.00
Cu222  Cu    0.75000   0.70179   0.16667   0.00000  Uiso   1.00
H223   H     0.52997   0.82259   0.13931   0.00000  Uiso   1.00
H224   H     0.70644   0.96325   0.10305   0.00000  Uiso   1.00
H225   H     0.69319   0.53679   0.11760   0.00000  Uiso   1.00
H226   H     0.79357   0.96325   0.23029   0.00000  Uiso   1.00
H227   H     0.80672   0.61941   0.26141   0.00000  Uiso   1.00
H228   H     0.84287   0.62063   0.21473   0.00000  Uiso   1.00
H229   H     0.70780   0.87922   0.06304   0.00000  Uiso   1.00
H230   H     0.66532   0.88109   0.10247   0.00000  Uiso   1.00
H231   H     0.69328   0.61941   0.07192   0.00000  Uiso   1.00
H232   H     0.65713   0.62062   0.11860   0.00000  Uiso   1.00
H233   H     0.79220   0.87923   0.27029   0.00000  Uiso   1.00
H234   H     0.96910   0.67692   0.13953   0.00000  Uiso   1.00
H235   H     0.83468   0.88108   0.23086   0.00000  Uiso   1.00
H236   H     0.97003   0.82259   0.19403   0.00000  Uiso   1.00
H237   H     0.53090   0.67692   0.19380   0.00000  Uiso   1.00
H238   H     0.61036   0.82304   0.14040   0.00000  Uiso   1.00
H239   H     0.88870   0.67671   0.14068   0.00000  Uiso   1.00
H240   H     0.88964   0.82304   0.19294   0.00000  Uiso   1.00
H241   H     0.61130   0.67670   0.19265   0.00000  Uiso   1.00
H242   H     0.80681   0.53679   0.21573   0.00000  Uiso   1.00
N243   N     0.75000   0.62935   0.16667   0.00000  Uiso   1.00
N244   N     0.75000   0.87066   0.16667   0.00000  Uiso   1.00
N245   N     0.81099   0.63039   0.22509   0.00000  Uiso   1.00
N246   N     0.69795   0.86971   0.09835   0.00000  Uiso   1.00
N247   N     0.68901   0.63039   0.10825   0.00000  Uiso   1.00
N248   N     0.80205   0.86971   0.23498   0.00000  Uiso   1.00
O249   O     0.68573   0.79072   0.16667   0.00000  Uiso   1.00
O250   O     0.81427   0.70929   0.16666   0.00000  Uiso   1.00
O251   O     0.81427   0.79072   0.16666   0.00000  Uiso   1.00
O252   O     0.68573   0.70929   0.16667   0.00000  Uiso   1.00
O253   O     0.75000   0.79071   0.09613   0.00000  Uiso   1.00
O254   O     0.75000   0.70929   0.23720   0.00000  Uiso   1.00
O255   O     0.75000   0.79071   0.23720   0.00000  Uiso   1.00
O256   O     0.75000   0.70929   0.09613   0.00000  Uiso   1.00
C257   C     0.16500   0.24999   0.49992   0.00000  Uiso   1.00
C258   C     0.27458   0.44590   0.53489   0.00000  Uiso   1.00
C259   C     0.24994   0.25000   0.40690   0.00000  Uiso   1.00
C260   C     0.25006   0.25000   0.59310   0.00000  Uiso   1.00
C261   C     0.25000   0.02739   0.50000   0.00000  Uiso   1.00
C262   C     0.25000   0.47265   0.50000   0.00000  Uiso   1.00
C263   C     0.24998   0.25001   0.35518   0.00000  Uiso   1.00
C264   C     0.25002   0.25001   0.64482   0.00000  Uiso   1.00
C265   C     0.04737   0.29081   0.48507   0.00000  Uiso   1.00
C266   C     0.45212   0.20876   0.48531   0.00000  Uiso   1.00
C267   C     0.45263   0.29081   0.51494   0.00000  Uiso   1.00
C268   C     0.33500   0.24999   0.50008   0.00000  Uiso   1.00
C269   C     0.04788   0.20876   0.51469   0.00000  Uiso   1.00
C270   C     0.09328   0.29099   0.48541   0.00000  Uiso   1.00
C271   C     0.40621   0.20871   0.48569   0.00000  Uiso   1.00
C272   C     0.40672   0.29099   0.51460   0.00000  Uiso   1.00
C273   C     0.09379   0.20871   0.51431   0.00000  Uiso   1.00
C274   C     0.11675   0.24991   0.49988   0.00000  Uiso   1.00
C275   C     0.38325   0.24991   0.50012   0.00000  Uiso   1.00
C276   C     0.02429   0.24976   0.49993   0.00000  Uiso   1.00
C277   C     0.47571   0.24976   0.50007   0.00000  Uiso   1.00
C278   C     0.28015   0.10472   0.52811   0.00000  Uiso   1.00
C279   C     0.22498   0.39531   0.46624   0.00000  Uiso   1.00
C280   C     0.21985   0.10472   0.47189   0.00000  Uiso   1.00
C281   C     0.27502   0.39531   0.53376   0.00000  Uiso   1.00
C282   C     0.28115   0.05414   0.52767   0.00000  Uiso   1.00
C283   C     0.22542   0.44590   0.46511   0.00000  Uiso   1.00
C284   C     0.21885   0.05414   0.47233   0.00000  Uiso   1.00
Cu285  Cu    0.25000   0.29822   0.50000   0.00000  Uiso   1.00
Cu286  Cu    0.25000   0.20179   0.50000   0.00000  Uiso   1.00
H287   H     0.02997   0.32259   0.47264   0.00000  Uiso   1.00
H288   H     0.20644   0.46325   0.43638   0.00000  Uiso   1.00
H289   H     0.19319   0.03679   0.45093   0.00000  Uiso   1.00
H290   H     0.29357   0.46325   0.56362   0.00000  Uiso   1.00
H291   H     0.30672   0.11941   0.59474   0.00000  Uiso   1.00
H292   H     0.34287   0.12063   0.54806   0.00000  Uiso   1.00
H293   H     0.20780   0.37922   0.39637   0.00000  Uiso   1.00
H294   H     0.16532   0.38109   0.43581   0.00000  Uiso   1.00
H295   H     0.19328   0.11941   0.40526   0.00000  Uiso   1.00
H296   H     0.15713   0.12062   0.45193   0.00000  Uiso   1.00
H297   H     0.29220   0.37923   0.60363   0.00000  Uiso   1.00
H298   H     0.46910   0.17692   0.47287   0.00000  Uiso   1.00
H299   H     0.33468   0.38108   0.56419   0.00000  Uiso   1.00
H300   H     0.47003   0.32259   0.52736   0.00000  Uiso   1.00
H301   H     0.03090   0.17692   0.52713   0.00000  Uiso   1.00
H302   H     0.11036   0.32304   0.47373   0.00000  Uiso   1.00
H303   H     0.38870   0.17671   0.47401   0.00000  Uiso   1.00
H304   H     0.38964   0.32304   0.52627   0.00000  Uiso   1.00
H305   H     0.11130   0.17670   0.52599   0.00000  Uiso   1.00
H306   H     0.30681   0.03679   0.54906   0.00000  Uiso   1.00
N307   N     0.25000   0.12935   0.50000   0.00000  Uiso   1.00
N308   N     0.25000   0.37066   0.50000   0.00000  Uiso   1.00
N309   N     0.31099   0.13039   0.55842   0.00000  Uiso   1.00
N310   N     0.19795   0.36971   0.43169   0.00000  Uiso   1.00
N311   N     0.18901   0.13039   0.44158   0.00000  Uiso   1.00
N312   N     0.30205   0.36971   0.56831   0.00000  Uiso   1.00
O313   O     0.18573   0.29072   0.50000   0.00000  Uiso   1.00
O314   O     0.31427   0.20929   0.50000   0.00000  Uiso   1.00
O315   O     0.31427   0.29072   0.50000   0.00000  Uiso   1.00
O316   O     0.18573   0.20929   0.50000   0.00000  Uiso   1.00
O317   O     0.25000   0.29071   0.42946   0.00000  Uiso   1.00
O318   O     0.25000   0.20929   0.57054   0.00000  Uiso   1.00
O319   O     0.25000   0.29071   0.57054   0.00000  Uiso   1.00
O320   O     0.25000   0.20929   0.42946   0.00000  Uiso   1.00
C321   C     0.66500   0.24999   0.49992   0.00000  Uiso   1.00
C322   C     0.77458   0.44590   0.53489   0.00000  Uiso   1.00
C323   C     0.74994   0.25000   0.40690   0.00000  Uiso   1.00
C324   C     0.75006   0.25000   0.59310   0.00000  Uiso   1.00
C325   C     0.75000   0.02739   0.50000   0.00000  Uiso   1.00
C326   C     0.75000   0.47265   0.50000   0.00000  Uiso   1.00
C327   C     0.74998   0.25001   0.35518   0.00000  Uiso   1.00
C328   C     0.75002   0.25001   0.64482   0.00000  Uiso   1.00
C329   C     0.54737   0.29081   0.48507   0.00000  Uiso   1.00
C330   C     0.95212   0.20876   0.48531   0.00000  Uiso   1.00
C331   C     0.95263   0.29081   0.51494   0.00000  Uiso   1.00
C332   C     0.83500   0.24999   0.50008   0.00000  Uiso   1.00
C333   C     0.54788   0.20876   0.51469   0.00000  Uiso   1.00
C334   C     0.59328   0.29099   0.48541   0.00000  Uiso   1.00
C335   C     0.90621   0.20871   0.48569   0.00000  Uiso   1.00
C336   C     0.90672   0.29099   0.51460   0.00000  Uiso   1.00
C337   C     0.59379   0.20871   0.51431   0.00000  Uiso   1.00
C338   C     0.61675   0.24991   0.49988   0.00000  Uiso   1.00
C339   C     0.88325   0.24991   0.50012   0.00000  Uiso   1.00
C340   C     0.52429   0.24976   0.49993   0.00000  Uiso   1.00
C341   C     0.97571   0.24976   0.50007   0.00000  Uiso   1.00
C342   C     0.78015   0.10472   0.52811   0.00000  Uiso   1.00
C343   C     0.72498   0.39531   0.46624   0.00000  Uiso   1.00
C344   C     0.71985   0.10472   0.47189   0.00000  Uiso   1.00
C345   C     0.77502   0.39531   0.53376   0.00000  Uiso   1.00
C346   C     0.78115   0.05414   0.52767   0.00000  Uiso   1.00
C347   C     0.72542   0.44590   0.46511   0.00000  Uiso   1.00
C348   C     0.71885   0.05414   0.47233   0.00000  Uiso   1.00
Cu349  Cu    0.75000   0.29822   0.50000   0.00000  Uiso   1.00
Cu350  Cu    0.75000   0.20179   0.50000   0.00000  Uiso   1.00
H351   H     0.52997   0.32259   0.47264   0.00000  Uiso   1.00
H352   H     0.70644   0.46325   0.43638   0.00000  Uiso   1.00
H353   H     0.69319   0.03679   0.45093   0.00000  Uiso   1.00
H354   H     0.79357   0.46325   0.56362   0.00000  Uiso   1.00
H355   H     0.80672   0.11941   0.59474   0.00000  Uiso   1.00
H356   H     0.84287   0.12063   0.54806   0.00000  Uiso   1.00
H357   H     0.70780   0.37922   0.39637   0.00000  Uiso   1.00
H358   H     0.66532   0.38109   0.43581   0.00000  Uiso   1.00
H359   H     0.69328   0.11941   0.40526   0.00000  Uiso   1.00
H360   H     0.65713   0.12062   0.45193   0.00000  Uiso   1.00
H361   H     0.79220   0.37923   0.60363   0.00000  Uiso   1.00
H362   H     0.96910   0.17692   0.47287   0.00000  Uiso   1.00
H363   H     0.83468   0.38108   0.56419   0.00000  Uiso   1.00
H364   H     0.97003   0.32259   0.52736   0.00000  Uiso   1.00
H365   H     0.53090   0.17692   0.52713   0.00000  Uiso   1.00
H366   H     0.61036   0.32304   0.47373   0.00000  Uiso   1.00
H367   H     0.88870   0.17671   0.47401   0.00000  Uiso   1.00
H368   H     0.88964   0.32304   0.52627   0.00000  Uiso   1.00
H369   H     0.61130   0.17670   0.52599   0.00000  Uiso   1.00
H370   H     0.80681   0.03679   0.54906   0.00000  Uiso   1.00
N371   N     0.75000   0.12935   0.50000   0.00000  Uiso   1.00
N372   N     0.75000   0.37066   0.50000   0.00000  Uiso   1.00
N373   N     0.81099   0.13039   0.55842   0.00000  Uiso   1.00
N374   N     0.69795   0.36971   0.43169   0.00000  Uiso   1.00
N375   N     0.68901   0.13039   0.44158   0.00000  Uiso   1.00
N376   N     0.80205   0.36971   0.56831   0.00000  Uiso   1.00
O377   O     0.68573   0.29072   0.50000   0.00000  Uiso   1.00
O378   O     0.81427   0.20929   0.50000   0.00000  Uiso   1.00
O379   O     0.81427   0.29072   0.50000   0.00000  Uiso   1.00
O380   O     0.68573   0.20929   0.50000   0.00000  Uiso   1.00
O381   O     0.75000   0.29071   0.42946   0.00000  Uiso   1.00
O382   O     0.75000   0.20929   0.57054   0.00000  Uiso   1.00
O383   O     0.75000   0.29071   0.57054   0.00000  Uiso   1.00
O384   O     0.75000   0.20929   0.42946   0.00000  Uiso   1.00
C385   C     0.16500   0.74999   0.49992   0.00000  Uiso   1.00
C386   C     0.27458   0.94590   0.53489   0.00000  Uiso   1.00
C387   C     0.24994   0.75000   0.40690   0.00000  Uiso   1.00
C388   C     0.25006   0.75000   0.59310   0.00000  Uiso   1.00
C389   C     0.25000   0.52739   0.50000   0.00000  Uiso   1.00
C390   C     0.25000   0.97265   0.50000   0.00000  Uiso   1.00
C391   C     0.24998   0.75001   0.35518   0.00000  Uiso   1.00
C392   C     0.25002   0.75001   0.64482   0.00000  Uiso   1.00
C393   C     0.04737   0.79081   0.48507   0.00000  Uiso   1.00
C394   C     0.45212   0.70876   0.48531   0.00000  Uiso   1.00
C395   C     0.45263   0.79081   0.51494   0.00000  Uiso   1.00
C396   C     0.33500   0.74999   0.50008   0.00000  Uiso   1.00
C397   C     0.04788   0.70876   0.51469   0.00000  Uiso   1.00
C398   C     0.09328   0.79099   0.48541   0.00000  Uiso   1.00
C399   C     0.40621   0.70871   0.48569   0.00000  Uiso   1.00
C400   C     0.40672   0.79099   0.51460   0.00000  Uiso   1.00
C401   C     0.09379   0.70871   0.51431   0.00000  Uiso   1.00
C402   C     0.11675   0.74991   0.49988   0.00000  Uiso   1.00
C403   C     0.38325   0.74991   0.50012   0.00000  Uiso   1.00
C404   C     0.02429   0.74976   0.49993   0.00000  Uiso   1.00
C405   C     0.47571   0.74976   0.50007   0.00000  Uiso   1.00
C406   C     0.28015   0.60472   0.52811   0.00000  Uiso   1.00
C407   C     0.22498   0.89531   0.46624   0.00000  Uiso   1.00
C408   C     0.21985   0.60472   0.47189   0.00000  Uiso   1.00
C409   C     0.27502   0.89531   0.53376   0.00000  Uiso   1.00
C410   C     0.28115   0.55414   0.52767   0.00000  Uiso   1.00
C411   C     0.22542   0.94590   0.46511   0.00000  Uiso   1.00
C412   C     0.21885   0.55414   0.47233   0.00000  Uiso   1.00
Cu413  Cu    0.25000   0.79822   0.50000   0.00000  Uiso   1.00
Cu414  Cu    0.25000   0.70179   0.50000   0.00000  Uiso   1.00
H415   H     0.02997   0.82259   0.47264   0.00000  Uiso   1.00
H416   H     0.20644   0.96325   0.43638   0.00000  Uiso   1.00
H417   H     0.19319   0.53679   0.45093   0.00000  Uiso   1.00
H418   H     0.29357   0.96325   0.56362   0.00000  Uiso   1.00
H419   H     0.30672   0.61941   0.59474   0.00000  Uiso   1.00
H420   H     0.34287   0.62063   0.54806   0.00000  Uiso   1.00
H421   H     0.20780   0.87922   0.39637   0.00000  Uiso   1.00
H422   H     0.16532   0.88109   0.43581   0.00000  Uiso   1.00
H423   H     0.19328   0.61941   0.40526   0.00000  Uiso   1.00
H424   H     0.15713   0.62062   0.45193   0.00000  Uiso   1.00
H425   H     0.29220   0.87923   0.60363   0.00000  Uiso   1.00
H426   H     0.46910   0.67692   0.47287   0.00000  Uiso   1.00
H427   H     0.33468   0.88108   0.56419   0.00000  Uiso   1.00
H428   H     0.47003   0.82259   0.52736   0.00000  Uiso   1.00
H429   H     0.03090   0.67692   0.52713   0.00000  Uiso   1.00
H430   H     0.11036   0.82304   0.47373   0.00000  Uiso   1.00
H431   H     0.38870   0.67671   0.47401   0.00000  Uiso   1.00
H432   H     0.38964   0.82304   0.52627   0.00000  Uiso   1.00
H433   H     0.11130   0.67670   0.52599   0.00000  Uiso   1.00
H434   H     0.30681   0.53679   0.54906   0.00000  Uiso   1.00
N435   N     0.25000   0.62935   0.50000   0.00000  Uiso   1.00
N436   N     0.25000   0.87066   0.50000   0.00000  Uiso   1.00
N437   N     0.31099   0.63039   0.55842   0.00000  Uiso   1.00
N438   N     0.19795   0.86971   0.43169   0.00000  Uiso   1.00
N439   N     0.18901   0.63039   0.44158   0.00000  Uiso   1.00
N440   N     0.30205   0.86971   0.56831   0.00000  Uiso   1.00
O441   O     0.18573   0.79072   0.50000   0.00000  Uiso   1.00
O442   O     0.31427   0.70929   0.50000   0.00000  Uiso   1.00
O443   O     0.31427   0.79072   0.50000   0.00000  Uiso   1.00
O444   O     0.18573   0.70929   0.50000   0.00000  Uiso   1.00
O445   O     0.25000   0.79071   0.42946   0.00000  Uiso   1.00
O446   O     0.25000   0.70929   0.57054   0.00000  Uiso   1.00
O447   O     0.25000   0.79071   0.57054   0.00000  Uiso   1.00
O448   O     0.25000   0.70929   0.42946   0.00000  Uiso   1.00
C449   C     0.66500   0.74999   0.49992   0.00000  Uiso   1.00
C450   C     0.77458   0.94590   0.53489   0.00000  Uiso   1.00
C451   C     0.74994   0.75000   0.40690   0.00000  Uiso   1.00
C452   C     0.75006   0.75000   0.59310   0.00000  Uiso   1.00
C453   C     0.75000   0.52739   0.50000   0.00000  Uiso   1.00
C454   C     0.75000   0.97265   0.50000   0.00000  Uiso   1.00
C455   C     0.74998   0.75001   0.35518   0.00000  Uiso   1.00
C456   C     0.75002   0.75001   0.64482   0.00000  Uiso   1.00
C457   C     0.54737   0.79081   0.48507   0.00000  Uiso   1.00
C458   C     0.95212   0.70876   0.48531   0.00000  Uiso   1.00
C459   C     0.95263   0.79081   0.51494   0.00000  Uiso   1.00
C460   C     0.83500   0.74999   0.50008   0.00000  Uiso   1.00
C461   C     0.54788   0.70876   0.51469   0.00000  Uiso   1.00
C462   C     0.59328   0.79099   0.48541   0.00000  Uiso   1.00
C463   C     0.90621   0.70871   0.48569   0.00000  Uiso   1.00
C464   C     0.90672   0.79099   0.51460   0.00000  Uiso   1.00
C465   C     0.59379   0.70871   0.51431   0.00000  Uiso   1.00
C466   C     0.61675   0.74991   0.49988   0.00000  Uiso   1.00
C467   C     0.88325   0.74991   0.50012   0.00000  Uiso   1.00
C468   C     0.52429   0.74976   0.49993   0.00000  Uiso   1.00
C469   C     0.97571   0.74976   0.50007   0.00000  Uiso   1.00
C470   C     0.78015   0.60472   0.52811   0.00000  Uiso   1.00
C471   C     0.72498   0.89531   0.46624   0.00000  Uiso   1.00
C472   C     0.71985   0.60472   0.47189   0.00000  Uiso   1.00
C473   C     0.77502   0.89531   0.53376   0.00000  Uiso   1.00
C474   C     0.78115   0.55414   0.52767   0.00000  Uiso   1.00
C475   C     0.72542   0.94590   0.46511   0.00000  Uiso   1.00
C476   C     0.71885   0.55414   0.47233   0.00000  Uiso   1.00
Cu477  Cu    0.75000   0.79822   0.50000   0.00000  Uiso   1.00
Cu478  Cu    0.75000   0.70179   0.50000   0.00000  Uiso   1.00
H479   H     0.52997   0.82259   0.47264   0.00000  Uiso   1.00
H480   H     0.70644   0.96325   0.43638   0.00000  Uiso   1.00
H481   H     0.69319   0.53679   0.45093   0.00000  Uiso   1.00
H482   H     0.79357   0.96325   0.56362   0.00000  Uiso   1.00
H483   H     0.80672   0.61941   0.59474   0.00000  Uiso   1.00
H484   H     0.84287   0.62063   0.54806   0.00000  Uiso   1.00
H485   H     0.70780   0.87922   0.39637   0.00000  Uiso   1.00
H486   H     0.66532   0.88109   0.43581   0.00000  Uiso   1.00
H487   H     0.69328   0.61941   0.40526   0.00000  Uiso   1.00
H488   H     0.65713   0.62062   0.45193   0.00000  Uiso   1.00
H489   H     0.79220   0.87923   0.60363   0.00000  Uiso   1.00
H490   H     0.96910   0.67692   0.47287   0.00000  Uiso   1.00
H491   H     0.83468   0.88108   0.56419   0.00000  Uiso   1.00
H492   H     0.97003   0.82259   0.52736   0.00000  Uiso   1.00
H493   H     0.53090   0.67692   0.52713   0.00000  Uiso   1.00
H494   H     0.61036   0.82304   0.47373   0.00000  Uiso   1.00
H495   H     0.88870   0.67671   0.47401   0.00000  Uiso   1.00
H496   H     0.88964   0.82304   0.52627   0.00000  Uiso   1.00
H497   H     0.61130   0.67670   0.52599   0.00000  Uiso   1.00
H498   H     0.80681   0.53679   0.54906   0.00000  Uiso   1.00
N499   N     0.75000   0.62935   0.50000   0.00000  Uiso   1.00
N500   N     0.75000   0.87066   0.50000   0.00000  Uiso   1.00
N501   N     0.81099   0.63039   0.55842   0.00000  Uiso   1.00
N502   N     0.69795   0.86971   0.43169   0.00000  Uiso   1.00
N503   N     0.68901   0.63039   0.44158   0.00000  Uiso   1.00
N504   N     0.80205   0.86971   0.56831   0.00000  Uiso   1.00
O505   O     0.68573   0.79072   0.50000   0.00000  Uiso   1.00
O506   O     0.81427   0.70929   0.50000   0.00000  Uiso   1.00
O507   O     0.81427   0.79072   0.50000   0.00000  Uiso   1.00
O508   O     0.68573   0.70929   0.50000   0.00000  Uiso   1.00
O509   O     0.75000   0.79071   0.42946   0.00000  Uiso   1.00
O510   O     0.75000   0.70929   0.57054   0.00000  Uiso   1.00
O511   O     0.75000   0.79071   0.57054   0.00000  Uiso   1.00
O512   O     0.75000   0.70929   0.42946   0.00000  Uiso   1.00
C513   C     0.16500   0.24999   0.83326   0.00000  Uiso   1.00
C514   C     0.27458   0.44590   0.86822   0.00000  Uiso   1.00
C515   C     0.24994   0.25000   0.74023   0.00000  Uiso   1.00
C516   C     0.25006   0.25000   0.92643   0.00000  Uiso   1.00
C517   C     0.25000   0.02739   0.83333   0.00000  Uiso   1.00
C518   C     0.25000   0.47265   0.83333   0.00000  Uiso   1.00
C519   C     0.24998   0.25001   0.68852   0.00000  Uiso   1.00
C520   C     0.25002   0.25001   0.97815   0.00000  Uiso   1.00
C521   C     0.04737   0.29081   0.81840   0.00000  Uiso   1.00
C522   C     0.45212   0.20876   0.81864   0.00000  Uiso   1.00
C523   C     0.45263   0.29081   0.84827   0.00000  Uiso   1.00
C524   C     0.33500   0.24999   0.83341   0.00000  Uiso   1.00
C525   C     0.04788   0.20876   0.84802   0.00000  Uiso   1.00
C526   C     0.09328   0.29099   0.81874   0.00000  Uiso   1.00
C527   C     0.40621   0.20871   0.81902   0.00000  Uiso   1.00
C528   C     0.40672   0.29099   0.84793   0.00000  Uiso   1.00
C529   C     0.09379   0.20871   0.84764   0.00000  Uiso   1.00
C530   C     0.11675   0.24991   0.83321   0.00000  Uiso   1.00
C531   C     0.38325   0.24991   0.83345   0.00000  Uiso   1.00
C532   C     0.02429   0.24976   0.83326   0.00000  Uiso   1.00
C533   C     0.47571   0.24976   0.83341   0.00000  Uiso   1.00
C534   C     0.28015   0.10472   0.86144   0.00000  Uiso   1.00
C535   C     0.22498   0.39531   0.79958   0.00000  Uiso   1.00
C536   C     0.21985   0.10472   0.80522   0.00000  Uiso   1.00
C537   C     0.27502   0.39531   0.86709   0.00000  Uiso   1.00
C538   C     0.28115   0.05414   0.86101   0.00000  Uiso   1.00
C539   C     0.22542   0.44590   0.79845   0.00000  Uiso   1.00
C540   C     0.21885   0.05414   0.80566   0.00000  Uiso   1.00
Cu541  Cu    0.25000   0.29822   0.83333   0.00000  Uiso   1.00
Cu542  Cu    0.25000   0.20179   0.83333   0.00000  Uiso   1.00
H543   H     0.02997   0.32259   0.80598   0.00000  Uiso   1.00
H544   H     0.20644   0.46325   0.76971   0.00000  Uiso   1.00
H545   H     0.19319   0.03679   0.78427   0.00000  Uiso   1.00
H546   H     0.29357   0.46325   0.89695   0.00000  Uiso   1.00
H547   H     0.30672   0.11941   0.92808   0.00000  Uiso   1.00
H548   H     0.34287   0.12063   0.88140   0.00000  Uiso   1.00
H549   H     0.20780   0.37922   0.72971   0.00000  Uiso   1.00
H550   H     0.16532   0.38109   0.76914   0.00000  Uiso   1.00
H551   H     0.19328   0.11941   0.73859   0.00000  Uiso   1.00
H552   H     0.15713   0.12062   0.78527   0.00000  Uiso   1.00
H553   H     0.29220   0.37923   0.93696   0.00000  Uiso   1.00
H554   H     0.46910   0.17692   0.80620   0.00000  Uiso   1.00
H555   H     0.33468   0.38108   0.89752   0.00000  Uiso   1.00
H556   H     0.47003   0.32259   0.86069   0.00000  Uiso   1.00
H557   H     0.03090   0.17692   0.86047   0.00000  Uiso   1.00
H558   H     0.11036   0.32304   0.80706   0.00000  Uiso   1.00
H559   H     0.38870   0.17671   0.80734   0.00000  Uiso   1.00
H560   H     0.38964   0.32304   0.85960   0.00000  Uiso   1.00
H561   H     0.11130   0.17670   0.85932   0.00000  Uiso   1.00
H562   H     0.30681   0.03679   0.88240   0.00000  Uiso   1.00
N563   N     0.25000   0.12935   0.83333   0.00000  Uiso   1.00
N564   N     0.25000   0.37066   0.83333   0.00000  Uiso   1.00
N565   N     0.31099   0.13039   0.89175   0.00000  Uiso   1.00
N566   N     0.19795   0.36971   0.76502   0.00000  Uiso   1.00
N567   N     0.18901   0.13039   0.77491   0.00000  Uiso   1.00
N568   N     0.30205   0.36971   0.90165   0.00000  Uiso   1.00
O569   O     0.18573   0.29072   0.83334   0.00000  Uiso   1.00
O570   O     0.31427   0.20929   0.83333   0.00000  Uiso   1.00
O571   O     0.31427   0.29072   0.83333   0.00000  Uiso   1.00
O572   O     0.18573   0.20929   0.83334   0.00000  Uiso   1.00
O573   O     0.25000   0.29071   0.76280   0.00000  Uiso   1.00
O574   O     0.25000   0.20929   0.90387   0.00000  Uiso   1.00
O575   O     0.25000   0.29071   0.90387   0.00000  Uiso   1.00
O576   O     0.25000   0.20929   0.76280   0.00000  Uiso   1.00
C577   C     0.66500   0.24999   0.83326   0.00000  Uiso   1.00
C578   C     0.77458   0.44590   0.86822   0.00000  Uiso   1.00
C579   C     0.74994   0.25000   0.74023   0.00000  Uiso   1.00
C580   C     0.75006   0.25000   0.92643   0.00000  Uiso   1.00
C581   C     0.75000   0.02739   0.83333   0.00000  Uiso   1.00
C582   C     0.75000   0.47265   0.83333   0.00000  Uiso   1.00
C583   C     0.74998   0.25001   0.68852   0.00000  Uiso   1.00
C584   C     0.75002   0.25001   0.97815   0.00000  Uiso   1.00
C585   C     0.54737   0.29081   0.81840   0.00000  Uiso   1.00
C586   C     0.95212   0.20876   0.81864   0.00000  Uiso   1.00
C587   C     0.95263   0.29081   0.84827   0.00000  Uiso   1.00
C588   C     0.83500   0.24999   0.83341   0.00000  Uiso   1.00
C589   C     0.54788   0.20876   0.84802   0.00000  Uiso   1.00
C590   C     0.59328   0.29099   0.81874   0.00000  Uiso   1.00
C591   C     0.90621   0.20871   0.81902   0.00000  Uiso   1.00
C592   C     0.90672   0.29099   0.84793   0.00000  Uiso   1.00
C593   C     0.59379   0.20871   0.84764   0.00000  Uiso   1.00
C594   C     0.61675   0.24991   0.83321   0.00000  Uiso   1.00
C595   C     0.88325   0.24991   0.83345   0.00000  Uiso   1.00
C596   C     0.52429   0.24976   0.83326   0.00000  Uiso   1.00
C597   C     0.97571   0.24976   0.83341   0.00000  Uiso   1.00
C598   C     0.78015   0.10472   0.86144   0.00000  Uiso   1.00
C599   C     0.72498   0.39531   0.79958   0.00000  Uiso   1.00
C600   C     0.71985   0.10472   0.80522   0.00000  Uiso   1.00
C601   C     0.77502   0.39531   0.86709   0.00000  Uiso   1.00
C602   C     0.78115   0.05414   0.86101   0.00000  Uiso   1.00
C603   C     0.72542   0.44590   0.79845   0.00000  Uiso   1.00
C604   C     0.71885   0.05414   0.80566   0.00000  Uiso   1.00
Cu605  Cu    0.75000   0.29822   0.83333   0.00000  Uiso   1.00
Cu606  Cu    0.75000   0.20179   0.83333   0.00000  Uiso   1.00
H607   H     0.52997   0.32259   0.80598   0.00000  Uiso   1.00
H608   H     0.70644   0.46325   0.76971   0.00000  Uiso   1.00
H609   H     0.69319   0.03679   0.78427   0.00000  Uiso   1.00
H610   H     0.79357   0.46325   0.89695   0.00000  Uiso   1.00
H611   H     0.80672   0.11941   0.92808   0.00000  Uiso   1.00
H612   H     0.84287   0.12063   0.88140   0.00000  Uiso   1.00
H613   H     0.70780   0.37922   0.72971   0.00000  Uiso   1.00
H614   H     0.66532   0.38109   0.76914   0.00000  Uiso   1.00
H615   H     0.69328   0.11941   0.73859   0.00000  Uiso   1.00
H616   H     0.65713   0.12062   0.78527   0.00000  Uiso   1.00
H617   H     0.79220   0.37923   0.93696   0.00000  Uiso   1.00
H618   H     0.96910   0.17692   0.80620   0.00000  Uiso   1.00
H619   H     0.83468   0.38108   0.89752   0.00000  Uiso   1.00
H620   H     0.97003   0.32259   0.86069   0.00000  Uiso   1.00
H621   H     0.53090   0.17692   0.86047   0.00000  Uiso   1.00
H622   H     0.61036   0.32304   0.80706   0.00000  Uiso   1.00
H623   H     0.88870   0.17671   0.80734   0.00000  Uiso   1.00
H624   H     0.88964   0.32304   0.85960   0.00000  Uiso   1.00
H625   H     0.61130   0.17670   0.85932   0.00000  Uiso   1.00
H626   H     0.80681   0.03679   0.88240   0.00000  Uiso   1.00
N627   N     0.75000   0.12935   0.83333   0.00000  Uiso   1.00
N628   N     0.75000   0.37066   0.83333   0.00000  Uiso   1.00
N629   N     0.81099   0.13039   0.89175   0.00000  Uiso   1.00
N630   N     0.69795   0.36971   0.76502   0.00000  Uiso   1.00
N631   N     0.68901   0.13039   0.77491   0.00000  Uiso   1.00
N632   N     0.80205   0.36971   0.90165   0.00000  Uiso   1.00
O633   O     0.68573   0.29072   0.83334   0.00000  Uiso   1.00
O634   O     0.81427   0.20929   0.83333   0.00000  Uiso   1.00
O635   O     0.81427   0.29072   0.83333   0.00000  Uiso   1.00
O636   O     0.68573   0.20929   0.83334   0.00000  Uiso   1.00
O637   O     0.75000   0.29071   0.76280   0.00000  Uiso   1.00
O638   O     0.75000   0.20929   0.90387   0.00000  Uiso   1.00
O639   O     0.75000   0.29071   0.90387   0.00000  Uiso   1.00
O640   O     0.75000   0.20929   0.76280   0.00000  Uiso   1.00
C641   C     0.16500   0.74999   0.83326   0.00000  Uiso   1.00
C642   C     0.27458   0.94590   0.86822   0.00000  Uiso   1.00
C643   C     0.24994   0.75000   0.74023   0.00000  Uiso   1.00
C644   C     0.25006   0.75000   0.92643   0.00000  Uiso   1.00
C645   C     0.25000   0.52739   0.83333   0.00000  Uiso   1.00
C646   C     0.25000   0.97265   0.83333   0.00000  Uiso   1.00
C647   C     0.24998   0.75001   0.68852   0.00000  Uiso   1.00
C648   C     0.25002   0.75001   0.97815   0.00000  Uiso   1.00
C649   C     0.04737   0.79081   0.81840   0.00000  Uiso   1.00
C650   C     0.45212   0.70876   0.81864   0.00000  Uiso   1.00
C651   C     0.45263   0.79081   0.84827   0.00000  Uiso   1.00
C652   C     0.33500   0.74999   0.83341   0.00000  Uiso   1.00
C653   C     0.04788   0.70876   0.84802   0.00000  Uiso   1.00
C654   C     0.09328   0.79099   0.81874   0.00000  Uiso   1.00
C655   C     0.40621   0.70871   0.81902   0.00000  Uiso   1.00
C656   C     0.40672   0.79099   0.84793   0.00000  Uiso   1.00
C657   C     0.09379   0.70871   0.84764   0.00000  Uiso   1.00
C658   C     0.11675   0.74991   0.83321   0.00000  Uiso   1.00
C659   C     0.38325   0.74991   0.83345   0.00000  Uiso   1.00
C660   C     0.02429   0.74976   0.83326   0.00000  Uiso   1.00
C661   C     0.47571   0.74976   0.83341   0.00000  Uiso   1.00
C662   C     0.28015   0.60472   0.86144   0.00000  Uiso   1.00
C663   C     0.22498   0.89531   0.79958   0.00000  Uiso   1.00
C664   C     0.21985   0.60472   0.80522   0.00000  Uiso   1.00
C665   C     0.27502   0.89531   0.86709   0.00000  Uiso   1.00
C666   C     0.28115   0.55414   0.86101   0.00000  Uiso   1.00
C667   C     0.22542   0.94590   0.79845   0.00000  Uiso   1.00
C668   C     0.21885   0.55414   0.80566   0.00000  Uiso   1.00
Cu669  Cu    0.25000   0.79822   0.83333   0.00000  Uiso   1.00
Cu670  Cu    0.25000   0.70179   0.83333   0.00000  Uiso   1.00
H671   H     0.02997   0.82259   0.80598   0.00000  Uiso   1.00
H672   H     0.20644   0.96325   0.76971   0.00000  Uiso   1.00
H673   H     0.19319   0.53679   0.78427   0.00000  Uiso   1.00
H674   H     0.29357   0.96325   0.89695   0.00000  Uiso   1.00
H675   H     0.30672   0.61941   0.92808   0.00000  Uiso   1.00
H676   H     0.34287   0.62063   0.88140   0.00000  Uiso   1.00
H677   H     0.20780   0.87922   0.72971   0.00000  Uiso   1.00
H678   H     0.16532   0.88109   0.76914   0.00000  Uiso   1.00
H679   H     0.19328   0.61941   0.73859   0.00000  Uiso   1.00
H680   H     0.15713   0.62062   0.78527   0.00000  Uiso   1.00
H681   H     0.29220   0.87923   0.93696   0.00000  Uiso   1.00
H682   H     0.46910   0.67692   0.80620   0.00000  Uiso   1.00
H683   H     0.33468   0.88108   0.89752   0.00000  Uiso   1.00
H684   H     0.47003   0.82259   0.86069   0.00000  Uiso   1.00
H685   H     0.03090   0.67692   0.86047   0.00000  Uiso   1.00
H686   H     0.11036   0.82304   0.80706   0.00000  Uiso   1.00
H687   H     0.38870   0.67671   0.80734   0.00000  Uiso   1.00
H688   H     0.38964   0.82304   0.85960   0.00000  Uiso   1.00
H689   H     0.11130   0.67670   0.85932   0.00000  Uiso   1.00
H690   H     0.30681   0.53679   0.88240   0.00000  Uiso   1.00
N691   N     0.25000   0.62935   0.83333   0.00000  Uiso   1.00
N692   N     0.25000   0.87066   0.83333   0.00000  Uiso   1.00
N693   N     0.31099   0.63039   0.89175   0.00000  Uiso   1.00
N694   N     0.19795   0.86971   0.76502   0.00000  Uiso   1.00
N695   N     0.18901   0.63039   0.77491   0.00000  Uiso   1.00
N696   N     0.30205   0.86971   0.90165   0.00000  Uiso   1.00
O697   O     0.18573   0.79072   0.83334   0.00000  Uiso   1.00
O698   O     0.31427   0.70929   0.83333   0.00000  Uiso   1.00
O699   O     0.31427   0.79072   0.83333   0.00000  Uiso   1.00
O700   O     0.18573   0.70929   0.83334   0.00000  Uiso   1.00
O701   O     0.25000   0.79071   0.76280   0.00000  Uiso   1.00
O702   O     0.25000   0.70929   0.90387   0.00000  Uiso   1.00
O703   O     0.25000   0.79071   0.90387   0.00000  Uiso   1.00
O704   O     0.25000   0.70929   0.76280   0.00000  Uiso   1.00
C705   C     0.66500   0.74999   0.83326   0.00000  Uiso   1.00
C706   C     0.77458   0.94590   0.86822   0.00000  Uiso   1.00
C707   C     0.74994   0.75000   0.74023   0.00000  Uiso   1.00
C708   C     0.75006   0.75000   0.92643   0.00000  Uiso   1.00
C709   C     0.75000   0.52739   0.83333   0.00000  Uiso   1.00
C710   C     0.75000   0.97265   0.83333   0.00000  Uiso   1.00
C711   C     0.74998   0.75001   0.68852   0.00000  Uiso   1.00
C712   C     0.75002   0.75001   0.97815   0.00000  Uiso   1.00
C713   C     0.54737   0.79081   0.81840   0.00000  Uiso   1.00
C714   C     0.95212   0.70876   0.81864   0.00000  Uiso   1.00
C715   C     0.95263   0.79081   0.84827   0.00000  Uiso   1.00
C716   C     0.83500   0.74999   0.83341   0.00000  Uiso   1.00
C717   C     0.54788   0.70876   0.84802   0.00000  Uiso   1.00
C718   C     0.59328   0.79099   0.81874   0.00000  Uiso   1.00
C719   C     0.90621   0.70871   0.81902   0.00000  Uiso   1.00
C720   C     0.90672   0.79099   0.84793   0.00000  Uiso   1.00
C721   C     0.59379   0.70871   0.84764   0.00000  Uiso   1.00
C722   C     0.61675   0.74991   0.83321   0.00000  Uiso   1.00
C723   C     0.88325   0.74991   0.83345   0.00000  Uiso   1.00
C724   C     0.52429   0.74976   0.83326   0.00000  Uiso   1.00
C725   C     0.97571   0.74976   0.83341   0.00000  Uiso   1.00
C726   C     0.78015   0.60472   0.86144   0.00000  Uiso   1.00
C727   C     0.72498   0.89531   0.79958   0.00000  Uiso   1.00
C728   C     0.71985   0.60472   0.80522   0.00000  Uiso   1.00
C729   C     0.77502   0.89531   0.86709   0.00000  Uiso   1.00
C730   C     0.78115   0.55414   0.86101   0.00000  Uiso   1.00
C731   C     0.72542   0.94590   0.79845   0.00000  Uiso   1.00
C732   C     0.71885   0.55414   0.80566   0.00000  Uiso   1.00
Cu733  Cu    0.75000   0.79822   0.83333   0.00000  Uiso   1.00
Cu734  Cu    0.75000   0.70179   0.83333   0.00000  Uiso   1.00
H735   H     0.52997   0.82259   0.80598   0.00000  Uiso   1.00
H736   H     0.70644   0.96325   0.76971   0.00000  Uiso   1.00
H737   H     0.69319   0.53679   0.78427   0.00000  Uiso   1.00
H738   H     0.79357   0.96325   0.89695   0.00000  Uiso   1.00
H739   H     0.80672   0.61941   0.92808   0.00000  Uiso   1.00
H740   H     0.84287   0.62063   0.88140   0.00000  Uiso   1.00
H741   H     0.70780   0.87922   0.72971   0.00000  Uiso   1.00
H742   H     0.66532   0.88109   0.76914   0.00000  Uiso   1.00
H743   H     0.69328   0.61941   0.73859   0.00000  Uiso   1.00
H744   H     0.65713   0.62062   0.78527   0.00000  Uiso   1.00
H745   H     0.79220   0.87923   0.93696   0.00000  Uiso   1.00
H746   H     0.96910   0.67692   0.80620   0.00000  Uiso   1.00
H747   H     0.83468   0.88108   0.89752   0.00000  Uiso   1.00
H748   H     0.97003   0.82259   0.86069   0.00000  Uiso   1.00
H749   H     0.53090   0.67692   0.86047   0.00000  Uiso   1.00
H750   H     0.61036   0.82304   0.80706   0.00000  Uiso   1.00
H751   H     0.88870   0.67671   0.80734   0.00000  Uiso   1.00
H752   H     0.88964   0.82304   0.85960   0.00000  Uiso   1.00
H753   H     0.61130   0.67670   0.85932   0.00000  Uiso   1.00
H754   H     0.80681   0.53679   0.88240   0.00000  Uiso   1.00
N755   N     0.75000   0.62935   0.83333   0.00000  Uiso   1.00
N756   N     0.75000   0.87066   0.83333   0.00000  Uiso   1.00
N757   N     0.81099   0.63039   0.89175   0.00000  Uiso   1.00
N758   N     0.69795   0.86971   0.76502   0.00000  Uiso   1.00
N759   N     0.68901   0.63039   0.77491   0.00000  Uiso   1.00
N760   N     0.80205   0.86971   0.90165   0.00000  Uiso   1.00
O761   O     0.68573   0.79072   0.83334   0.00000  Uiso   1.00
O762   O     0.81427   0.70929   0.83333   0.00000  Uiso   1.00
O763   O     0.81427   0.79072   0.83333   0.00000  Uiso   1.00
O764   O     0.68573   0.70929   0.83334   0.00000  Uiso   1.00
O765   O     0.75000   0.79071   0.76280   0.00000  Uiso   1.00
O766   O     0.75000   0.70929   0.90387   0.00000  Uiso   1.00
O767   O     0.75000   0.79071   0.90387   0.00000  Uiso   1.00
O768   O     0.75000   0.70929   0.76280   0.00000  Uiso   1.00
loop_
_geom_bond_atom_site_label_1
_geom_bond_atom_site_label_2
_geom_bond_distance
_geom_bond_site_symmetry_2
_ccdc_geom_bond_type
C1     C18     1.461   .     S
C1     O60     1.297   .     A
C1     O57     1.298   .     A
C2     H34     1.079   .     S
C2     C6      1.411   .     A
C2     C25     1.411   .     A
C3     O64     1.291   .     A
C3     C7      1.409   .     S
C3     O61     1.291   .     A
C4     O63     1.291   .     A
C4     O62     1.291   .     A
C4     C8      1.409   .     S
C5     C26     1.412   .     A
C5     C28     1.412   .     A
C5     C134    1.526   1_545 S
C6     C27     1.411   .     A
C6     C133    1.526   .     S
C7     C520    1.190   1_554 S
C8     C263    1.190   .     S
C9     C14     1.390   .     A
C9     C20     1.404   .     A
C9     H31     1.083   .     S
C10    H42     1.083   .     S
C10    C15     1.390   .     A
C10    C21     1.404   .     A
C11    C16     1.390   .     A
C11    H44     1.083   .     S
C11    C21     1.404   .     A
C12    O58     1.297   .     A
C12    C19     1.461   .     S
C12    O59     1.298   .     A
C13    H45     1.083   .     S
C13    C17     1.390   .     A
C13    C20     1.404   .     A
C14    C18     1.402   .     A
C14    H46     1.083   .     S
C15    H47     1.083   .     S
C15    C19     1.402   .     A
C16    H48     1.083   .     S
C16    C19     1.402   .     A
C17    C18     1.402   .     A
C17    H49     1.083   .     S
C20    C85     1.471   1_455 S
C21    C84     1.471   .     S
C22    N53     1.429   .     S
C22    C26     1.411   .     A
C22    N51     1.367   .     A
C23    N52     1.368   .     A
C23    N54     1.429   .     S
C23    C27     1.411   .     A
C24    N51     1.367   .     A
C24    N55     1.429   .     S
C24    C28     1.411   .     A
C25    N56     1.429   .     S
C25    N52     1.368   .     A
C26    H50     1.079   .     S
C27    H32     1.079   .     S
C28    H33     1.079   .     S
Cu29   O63     1.933   .     S
Cu29   Cu30    2.689   .     S
Cu29   O57     1.957   .     S
Cu29   O61     1.933   .     S
Cu29   O59     1.957   .     S
Cu29   N52     2.020   .     S
Cu30   O64     1.933   .     S
Cu30   N51     2.020   .     S
Cu30   O58     1.957   .     S
Cu30   O62     1.933   .     S
Cu30   O60     1.957   .     S
H35    N53     1.046   .     S
H36    N53     1.046   .     S
H37    N54     1.046   .     S
H38    N54     1.045   .     S
H39    N55     1.046   .     S
H40    N55     1.046   .     S
H41    N56     1.046   .     S
H43    N56     1.045   .     S
C65    C82     1.461   .     S
C65    O124    1.297   .     A
C65    O121    1.298   .     A
C66    H98     1.079   .     S
C66    C70     1.411   .     A
C66    C89     1.411   .     A
C67    O128    1.291   .     A
C67    C71     1.409   .     S
C67    O125    1.291   .     A
C68    O127    1.291   .     A
C68    O126    1.291   .     A
C68    C72     1.409   .     S
C69    C90     1.412   .     A
C69    C92     1.412   .     A
C69    C198    1.526   1_545 S
C70    C91     1.411   .     A
C70    C197    1.526   .     S
C71    C584    1.190   1_554 S
C72    C327    1.190   .     S
C73    C78     1.390   .     A
C73    C84     1.404   .     A
C73    H95     1.083   .     S
C74    H106    1.083   .     S
C74    C79     1.390   .     A
C74    C85     1.404   .     A
C75    C80     1.390   .     A
C75    H108    1.083   .     S
C75    C85     1.404   .     A
C76    O122    1.297   .     A
C76    C83     1.461   .     S
C76    O123    1.298   .     A
C77    H109    1.083   .     S
C77    C81     1.390   .     A
C77    C84     1.404   .     A
C78    C82     1.402   .     A
C78    H110    1.083   .     S
C79    H111    1.083   .     S
C79    C83     1.402   .     A
C80    H112    1.083   .     S
C80    C83     1.402   .     A
C81    C82     1.402   .     A
C81    H113    1.083   .     S
C85    C20     1.471   1_655 S
C86    N117    1.429   .     S
C86    C90     1.411   .     A
C86    N115    1.367   .     A
C87    N116    1.368   .     A
C87    N118    1.429   .     S
C87    C91     1.411   .     A
C88    N115    1.367   .     A
C88    N119    1.429   .     S
C88    C92     1.411   .     A
C89    N120    1.429   .     S
C89    N116    1.368   .     A
C90    H114    1.079   .     S
C91    H96     1.079   .     S
C92    H97     1.079   .     S
Cu93   O127    1.933   .     S
Cu93   Cu94    2.689   .     S
Cu93   O121    1.957   .     S
Cu93   O125    1.933   .     S
Cu93   O123    1.957   .     S
Cu93   N116    2.020   .     S
Cu94   O128    1.933   .     S
Cu94   N115    2.020   .     S
Cu94   O122    1.957   .     S
Cu94   O126    1.933   .     S
Cu94   O124    1.957   .     S
H99    N117    1.046   .     S
H100   N117    1.046   .     S
H101   N118    1.046   .     S
H102   N118    1.045   .     S
H103   N119    1.046   .     S
H104   N119    1.046   .     S
H105   N120    1.046   .     S
H107   N120    1.045   .     S
C129   C146    1.461   .     S
C129   O188    1.297   .     A
C129   O185    1.298   .     A
C130   H162    1.079   .     S
C130   C134    1.411   .     A
C130   C153    1.411   .     A
C131   O192    1.291   .     A
C131   C135    1.409   .     S
C131   O189    1.291   .     A
C132   O191    1.291   .     A
C132   O190    1.291   .     A
C132   C136    1.409   .     S
C133   C154    1.412   .     A
C133   C156    1.412   .     A
C134   C155    1.411   .     A
C134   C5      1.526   1_565 S
C135   C648    1.190   1_554 S
C136   C391    1.190   .     S
C137   C142    1.390   .     A
C137   C148    1.404   .     A
C137   H159    1.083   .     S
C138   H170    1.083   .     S
C138   C143    1.390   .     A
C138   C149    1.404   .     A
C139   C144    1.390   .     A
C139   H172    1.083   .     S
C139   C149    1.404   .     A
C140   O186    1.297   .     A
C140   C147    1.461   .     S
C140   O187    1.298   .     A
C141   H173    1.083   .     S
C141   C145    1.390   .     A
C141   C148    1.404   .     A
C142   C146    1.402   .     A
C142   H174    1.083   .     S
C143   H175    1.083   .     S
C143   C147    1.402   .     A
C144   H176    1.083   .     S
C144   C147    1.402   .     A
C145   C146    1.402   .     A
C145   H177    1.083   .     S
C148   C213    1.471   1_455 S
C149   C212    1.471   .     S
C150   N181    1.429   .     S
C150   C154    1.411   .     A
C150   N179    1.367   .     A
C151   N180    1.368   .     A
C151   N182    1.429   .     S
C151   C155    1.411   .     A
C152   N179    1.367   .     A
C152   N183    1.429   .     S
C152   C156    1.411   .     A
C153   N184    1.429   .     S
C153   N180    1.368   .     A
C154   H178    1.079   .     S
C155   H160    1.079   .     S
C156   H161    1.079   .     S
Cu157  O191    1.933   .     S
Cu157  Cu158   2.689   .     S
Cu157  O185    1.957   .     S
Cu157  O189    1.933   .     S
Cu157  O187    1.957   .     S
Cu157  N180    2.020   .     S
Cu158  O192    1.933   .     S
Cu158  N179    2.020   .     S
Cu158  O186    1.957   .     S
Cu158  O190    1.933   .     S
Cu158  O188    1.957   .     S
H163   N181    1.046   .     S
H164   N181    1.046   .     S
H165   N182    1.046   .     S
H166   N182    1.045   .     S
H167   N183    1.046   .     S
H168   N183    1.046   .     S
H169   N184    1.046   .     S
H171   N184    1.045   .     S
C193   C210    1.461   .     S
C193   O252    1.297   .     A
C193   O249    1.298   .     A
C194   H226    1.079   .     S
C194   C198    1.411   .     A
C194   C217    1.411   .     A
C195   O256    1.291   .     A
C195   C199    1.409   .     S
C195   O253    1.291   .     A
C196   O255    1.291   .     A
C196   O254    1.291   .     A
C196   C200    1.409   .     S
C197   C218    1.412   .     A
C197   C220    1.412   .     A
C198   C219    1.411   .     A
C198   C69     1.526   1_565 S
C199   C712    1.190   1_554 S
C200   C455    1.190   .     S
C201   C206    1.390   .     A
C201   C212    1.404   .     A
C201   H223    1.083   .     S
C202   H234    1.083   .     S
C202   C207    1.390   .     A
C202   C213    1.404   .     A
C203   C208    1.390   .     A
C203   H236    1.083   .     S
C203   C213    1.404   .     A
C204   O250    1.297   .     A
C204   C211    1.461   .     S
C204   O251    1.298   .     A
C205   H237    1.083   .     S
C205   C209    1.390   .     A
C205   C212    1.404   .     A
C206   C210    1.402   .     A
C206   H238    1.083   .     S
C207   H239    1.083   .     S
C207   C211    1.402   .     A
C208   H240    1.083   .     S
C208   C211    1.402   .     A
C209   C210    1.402   .     A
C209   H241    1.083   .     S
C213   C148    1.471   1_655 S
C214   N245    1.429   .     S
C214   C218    1.411   .     A
C214   N243    1.367   .     A
C215   N244    1.368   .     A
C215   N246    1.429   .     S
C215   C219    1.411   .     A
C216   N243    1.367   .     A
C216   N247    1.429   .     S
C216   C220    1.411   .     A
C217   N248    1.429   .     S
C217   N244    1.368   .     A
C218   H242    1.079   .     S
C219   H224    1.079   .     S
C220   H225    1.079   .     S
Cu221  O255    1.933   .     S
Cu221  Cu222   2.689   .     S
Cu221  O249    1.957   .     S
Cu221  O253    1.933   .     S
Cu221  O251    1.957   .     S
Cu221  N244    2.020   .     S
Cu222  O256    1.933   .     S
Cu222  N243    2.020   .     S
Cu222  O250    1.957   .     S
Cu222  O254    1.933   .     S
Cu222  O252    1.957   .     S
H227   N245    1.046   .     S
H228   N245    1.046   .     S
H229   N246    1.046   .     S
H230   N246    1.045   .     S
H231   N247    1.046   .     S
H232   N247    1.046   .     S
H233   N248    1.046   .     S
H235   N248    1.045   .     S
C257   C274    1.461   .     S
C257   O316    1.297   .     A
C257   O313    1.298   .     A
C258   H290    1.079   .     S
C258   C262    1.411   .     A
C258   C281    1.411   .     A
C259   O320    1.291   .     A
C259   C263    1.409   .     S
C259   O317    1.291   .     A
C260   O319    1.291   .     A
C260   O318    1.291   .     A
C260   C264    1.409   .     S
C261   C282    1.412   .     A
C261   C284    1.412   .     A
C261   C390    1.526   1_545 S
C262   C283    1.411   .     A
C262   C389    1.526   .     S
C264   C519    1.190   .     S
C265   C270    1.390   .     A
C265   C276    1.404   .     A
C265   H287    1.083   .     S
C266   H298    1.083   .     S
C266   C271    1.390   .     A
C266   C277    1.404   .     A
C267   C272    1.390   .     A
C267   H300    1.083   .     S
C267   C277    1.404   .     A
C268   O314    1.297   .     A
C268   C275    1.461   .     S
C268   O315    1.298   .     A
C269   H301    1.083   .     S
C269   C273    1.390   .     A
C269   C276    1.404   .     A
C270   C274    1.402   .     A
C270   H302    1.083   .     S
C271   H303    1.083   .     S
C271   C275    1.402   .     A
C272   H304    1.083   .     S
C272   C275    1.402   .     A
C273   C274    1.402   .     A
C273   H305    1.083   .     S
C276   C341    1.471   1_455 S
C277   C340    1.471   .     S
C278   N309    1.429   .     S
C278   C282    1.411   .     A
C278   N307    1.367   .     A
C279   N308    1.368   .     A
C279   N310    1.429   .     S
C279   C283    1.411   .     A
C280   N307    1.367   .     A
C280   N311    1.429   .     S
C280   C284    1.411   .     A
C281   N312    1.429   .     S
C281   N308    1.368   .     A
C282   H306    1.079   .     S
C283   H288    1.079   .     S
C284   H289    1.079   .     S
Cu285  O319    1.933   .     S
Cu285  Cu286   2.689   .     S
Cu285  O313    1.957   .     S
Cu285  O317    1.933   .     S
Cu285  O315    1.957   .     S
Cu285  N308    2.020   .     S
Cu286  O320    1.933   .     S
Cu286  N307    2.020   .     S
Cu286  O314    1.957   .     S
Cu286  O318    1.933   .     S
Cu286  O316    1.957   .     S
H291   N309    1.046   .     S
H292   N309    1.046   .     S
H293   N310    1.046   .     S
H294   N310    1.045   .     S
H295   N311    1.046   .     S
H296   N311    1.046   .     S
H297   N312    1.046   .     S
H299   N312    1.045   .     S
C321   C338    1.461   .     S
C321   O380    1.297   .     A
C321   O377    1.298   .     A
C322   H354    1.079   .     S
C322   C326    1.411   .     A
C322   C345    1.411   .     A
C323   O384    1.291   .     A
C323   C327    1.409   .     S
C323   O381    1.291   .     A
C324   O383    1.291   .     A
C324   O382    1.291   .     A
C324   C328    1.409   .     S
C325   C346    1.412   .     A
C325   C348    1.412   .     A
C325   C454    1.526   1_545 S
C326   C347    1.411   .     A
C326   C453    1.526   .     S
C328   C583    1.190   .     S
C329   C334    1.390   .     A
C329   C340    1.404   .     A
C329   H351    1.083   .     S
C330   H362    1.083   .     S
C330   C335    1.390   .     A
C330   C341    1.404   .     A
C331   C336    1.390   .     A
C331   H364    1.083   .     S
C331   C341    1.404   .     A
C332   O378    1.297   .     A
C332   C339    1.461   .     S
C332   O379    1.298   .     A
C333   H365    1.083   .     S
C333   C337    1.390   .     A
C333   C340    1.404   .     A
C334   C338    1.402   .     A
C334   H366    1.083   .     S
C335   H367    1.083   .     S
C335   C339    1.402   .     A
C336   H368    1.083   .     S
C336   C339    1.402   .     A
C337   C338    1.402   .     A
C337   H369    1.083   .     S
C341   C276    1.471   1_655 S
C342   N373    1.429   .     S
C342   C346    1.411   .     A
C342   N371    1.367   .     A
C343   N372    1.368   .     A
C343   N374    1.429   .     S
C343   C347    1.411   .     A
C344   N371    1.367   .     A
C344   N375    1.429   .     S
C344   C348    1.411   .     A
C345   N376    1.429   .     S
C345   N372    1.368   .     A
C346   H370    1.079   .     S
C347   H352    1.079   .     S
C348   H353    1.079   .     S
Cu349  O383    1.933   .     S
Cu349  Cu350   2.689   .     S
Cu349  O377    1.957   .     S
Cu349  O381    1.933   .     S
Cu349  O379    1.957   .     S
Cu349  N372    2.020   .     S
Cu350  O384    1.933   .     S
Cu350  N371    2.020   .     S
Cu350  O378    1.957   .     S
Cu350  O382    1.933   .     S
Cu350  O380    1.957   .     S
H355   N373    1.046   .     S
H356   N373    1.046   .     S
H357   N374    1.046   .     S
H358   N374    1.045   .     S
H359   N375    1.046   .     S
H360   N375    1.046   .     S
H361   N376    1.046   .     S
H363   N376    1.045   .     S
C385   C402    1.461   .     S
C385   O444    1.297   .     A
C385   O441    1.298   .     A
C386   H418    1.079   .     S
C386   C390    1.411   .     A
C386   C409    1.411   .     A
C387   O448    1.291   .     A
C387   C391    1.409   .     S
C387   O445    1.291   .     A
C388   O447    1.291   .     A
C388   O446    1.291   .     A
C388   C392    1.409   .     S
C389   C410    1.412   .     A
C389   C412    1.412   .     A
C390   C411    1.411   .     A
C390   C261    1.526   1_565 S
C392   C647    1.190   .     S
C393   C398    1.390   .     A
C393   C404    1.404   .     A
C393   H415    1.083   .     S
C394   H426    1.083   .     S
C394   C399    1.390   .     A
C394   C405    1.404   .     A
C395   C400    1.390   .     A
C395   H428    1.083   .     S
C395   C405    1.404   .     A
C396   O442    1.297   .     A
C396   C403    1.461   .     S
C396   O443    1.298   .     A
C397   H429    1.083   .     S
C397   C401    1.390   .     A
C397   C404    1.404   .     A
C398   C402    1.402   .     A
C398   H430    1.083   .     S
C399   H431    1.083   .     S
C399   C403    1.402   .     A
C400   H432    1.083   .     S
C400   C403    1.402   .     A
C401   C402    1.402   .     A
C401   H433    1.083   .     S
C404   C469    1.471   1_455 S
C405   C468    1.471   .     S
C406   N437    1.429   .     S
C406   C410    1.411   .     A
C406   N435    1.367   .     A
C407   N436    1.368   .     A
C407   N438    1.429   .     S
C407   C411    1.411   .     A
C408   N435    1.367   .     A
C408   N439    1.429   .     S
C408   C412    1.411   .     A
C409   N440    1.429   .     S
C409   N436    1.368   .     A
C410   H434    1.079   .     S
C411   H416    1.079   .     S
C412   H417    1.079   .     S
Cu413  O447    1.933   .     S
Cu413  Cu414   2.689   .     S
Cu413  O441    1.957   .     S
Cu413  O445    1.933   .     S
Cu413  O443    1.957   .     S
Cu413  N436    2.020   .     S
Cu414  O448    1.933   .     S
Cu414  N435    2.020   .     S
Cu414  O442    1.957   .     S
Cu414  O446    1.933   .     S
Cu414  O444    1.957   .     S
H419   N437    1.046   .     S
H420   N437    1.046   .     S
H421   N438    1.046   .     S
H422   N438    1.045   .     S
H423   N439    1.046   .     S
H424   N439    1.046   .     S
H425   N440    1.046   .     S
H427   N440    1.045   .     S
C449   C466    1.461   .     S
C449   O508    1.297   .     A
C449   O505    1.298   .     A
C450   H482    1.079   .     S
C450   C454    1.411   .     A
C450   C473    1.411   .     A
C451   O512    1.291   .     A
C451   C455    1.409   .     S
C451   O509    1.291   .     A
C452   O511    1.291   .     A
C452   O510    1.291   .     A
C452   C456    1.409   .     S
C453   C474    1.412   .     A
C453   C476    1.412   .     A
C454   C475    1.411   .     A
C454   C325    1.526   1_565 S
C456   C711    1.190   .     S
C457   C462    1.390   .     A
C457   C468    1.404   .     A
C457   H479    1.083   .     S
C458   H490    1.083   .     S
C458   C463    1.390   .     A
C458   C469    1.404   .     A
C459   C464    1.390   .     A
C459   H492    1.083   .     S
C459   C469    1.404   .     A
C460   O506    1.297   .     A
C460   C467    1.461   .     S
C460   O507    1.298   .     A
C461   H493    1.083   .     S
C461   C465    1.390   .     A
C461   C468    1.404   .     A
C462   C466    1.402   .     A
C462   H494    1.083   .     S
C463   H495    1.083   .     S
C463   C467    1.402   .     A
C464   H496    1.083   .     S
C464   C467    1.402   .     A
C465   C466    1.402   .     A
C465   H497    1.083   .     S
C469   C404    1.471   1_655 S
C470   N501    1.429   .     S
C470   C474    1.411   .     A
C470   N499    1.367   .     A
C471   N500    1.368   .     A
C471   N502    1.429   .     S
C471   C475    1.411   .     A
C472   N499    1.367   .     A
C472   N503    1.429   .     S
C472   C476    1.411   .     A
C473   N504    1.429   .     S
C473   N500    1.368   .     A
C474   H498    1.079   .     S
C475   H480    1.079   .     S
C476   H481    1.079   .     S
Cu477  O511    1.933   .     S
Cu477  Cu478   2.689   .     S
Cu477  O505    1.957   .     S
Cu477  O509    1.933   .     S
Cu477  O507    1.957   .     S
Cu477  N500    2.020   .     S
Cu478  O512    1.933   .     S
Cu478  N499    2.020   .     S
Cu478  O506    1.957   .     S
Cu478  O510    1.933   .     S
Cu478  O508    1.957   .     S
H483   N501    1.046   .     S
H484   N501    1.046   .     S
H485   N502    1.046   .     S
H486   N502    1.045   .     S
H487   N503    1.046   .     S
H488   N503    1.046   .     S
H489   N504    1.046   .     S
H491   N504    1.045   .     S
C513   C530    1.461   .     S
C513   O572    1.297   .     A
C513   O569    1.298   .     A
C514   H546    1.079   .     S
C514   C518    1.411   .     A
C514   C537    1.411   .     A
C515   O576    1.291   .     A
C515   C519    1.409   .     S
C515   O573    1.291   .     A
C516   O575    1.291   .     A
C516   O574    1.291   .     A
C516   C520    1.409   .     S
C517   C538    1.412   .     A
C517   C540    1.412   .     A
C517   C646    1.526   1_545 S
C518   C539    1.411   .     A
C518   C645    1.526   .     S
C520   C7      1.190   1_556 S
C521   C526    1.390   .     A
C521   C532    1.404   .     A
C521   H543    1.083   .     S
C522   H554    1.083   .     S
C522   C527    1.390   .     A
C522   C533    1.404   .     A
C523   C528    1.390   .     A
C523   H556    1.083   .     S
C523   C533    1.404   .     A
C524   O570    1.297   .     A
C524   C531    1.461   .     S
C524   O571    1.298   .     A
C525   H557    1.083   .     S
C525   C529    1.390   .     A
C525   C532    1.404   .     A
C526   C530    1.402   .     A
C526   H558    1.083   .     S
C527   H559    1.083   .     S
C527   C531    1.402   .     A
C528   H560    1.083   .     S
C528   C531    1.402   .     A
C529   C530    1.402   .     A
C529   H561    1.083   .     S
C532   C597    1.471   1_455 S
C533   C596    1.471   .     S
C534   N565    1.429   .     S
C534   C538    1.411   .     A
C534   N563    1.367   .     A
C535   N564    1.368   .     A
C535   N566    1.429   .     S
C535   C539    1.411   .     A
C536   N563    1.367   .     A
C536   N567    1.429   .     S
C536   C540    1.411   .     A
C537   N568    1.429   .     S
C537   N564    1.368   .     A
C538   H562    1.079   .     S
C539   H544    1.079   .     S
C540   H545    1.079   .     S
Cu541  O575    1.933   .     S
Cu541  Cu542   2.689   .     S
Cu541  O569    1.957   .     S
Cu541  O573    1.933   .     S
Cu541  O571    1.957   .     S
Cu541  N564    2.020   .     S
Cu542  O576    1.933   .     S
Cu542  N563    2.020   .     S
Cu542  O570    1.957   .     S
Cu542  O574    1.933   .     S
Cu542  O572    1.957   .     S
H547   N565    1.046   .     S
H548   N565    1.046   .     S
H549   N566    1.046   .     S
H550   N566    1.045   .     S
H551   N567    1.046   .     S
H552   N567    1.046   .     S
H553   N568    1.046   .     S
H555   N568    1.045   .     S
C577   C594    1.461   .     S
C577   O636    1.297   .     A
C577   O633    1.298   .     A
C578   H610    1.079   .     S
C578   C582    1.411   .     A
C578   C601    1.411   .     A
C579   O640    1.291   .     A
C579   C583    1.409   .     S
C579   O637    1.291   .     A
C580   O639    1.291   .     A
C580   O638    1.291   .     A
C580   C584    1.409   .     S
C581   C602    1.412   .     A
C581   C604    1.412   .     A
C581   C710    1.526   1_545 S
C582   C603    1.411   .     A
C582   C709    1.526   .     S
C584   C71     1.190   1_556 S
C585   C590    1.390   .     A
C585   C596    1.404   .     A
C585   H607    1.083   .     S
C586   H618    1.083   .     S
C586   C591    1.390   .     A
C586   C597    1.404   .     A
C587   C592    1.390   .     A
C587   H620    1.083   .     S
C587   C597    1.404   .     A
C588   O634    1.297   .     A
C588   C595    1.461   .     S
C588   O635    1.298   .     A
C589   H621    1.083   .     S
C589   C593    1.390   .     A
C589   C596    1.404   .     A
C590   C594    1.402   .     A
C590   H622    1.083   .     S
C591   H623    1.083   .     S
C591   C595    1.402   .     A
C592   H624    1.083   .     S
C592   C595    1.402   .     A
C593   C594    1.402   .     A
C593   H625    1.083   .     S
C597   C532    1.471   1_655 S
C598   N629    1.429   .     S
C598   C602    1.411   .     A
C598   N627    1.367   .     A
C599   N628    1.368   .     A
C599   N630    1.429   .     S
C599   C603    1.411   .     A
C600   N627    1.367   .     A
C600   N631    1.429   .     S
C600   C604    1.411   .     A
C601   N632    1.429   .     S
C601   N628    1.368   .     A
C602   H626    1.079   .     S
C603   H608    1.079   .     S
C604   H609    1.079   .     S
Cu605  O639    1.933   .     S
Cu605  Cu606   2.689   .     S
Cu605  O633    1.957   .     S
Cu605  O637    1.933   .     S
Cu605  O635    1.957   .     S
Cu605  N628    2.020   .     S
Cu606  O640    1.933   .     S
Cu606  N627    2.020   .     S
Cu606  O634    1.957   .     S
Cu606  O638    1.933   .     S
Cu606  O636    1.957   .     S
H611   N629    1.046   .     S
H612   N629    1.046   .     S
H613   N630    1.046   .     S
H614   N630    1.045   .     S
H615   N631    1.046   .     S
H616   N631    1.046   .     S
H617   N632    1.046   .     S
H619   N632    1.045   .     S
C641   C658    1.461   .     S
C641   O700    1.297   .     A
C641   O697    1.298   .     A
C642   H674    1.079   .     S
C642   C646    1.411   .     A
C642   C665    1.411   .     A
C643   O704    1.291   .     A
C643   C647    1.409   .     S
C643   O701    1.291   .     A
C644   O703    1.291   .     A
C644   O702    1.291   .     A
C644   C648    1.409   .     S
C645   C666    1.412   .     A
C645   C668    1.412   .     A
C646   C667    1.411   .     A
C646   C517    1.526   1_565 S
C648   C135    1.190   1_556 S
C649   C654    1.390   .     A
C649   C660    1.404   .     A
C649   H671    1.083   .     S
C650   H682    1.083   .     S
C650   C655    1.390   .     A
C650   C661    1.404   .     A
C651   C656    1.390   .     A
C651   H684    1.083   .     S
C651   C661    1.404   .     A
C652   O698    1.297   .     A
C652   C659    1.461   .     S
C652   O699    1.298   .     A
C653   H685    1.083   .     S
C653   C657    1.390   .     A
C653   C660    1.404   .     A
C654   C658    1.402   .     A
C654   H686    1.083   .     S
C655   H687    1.083   .     S
C655   C659    1.402   .     A
C656   H688    1.083   .     S
C656   C659    1.402   .     A
C657   C658    1.402   .     A
C657   H689    1.083   .     S
C660   C725    1.471   1_455 S
C661   C724    1.471   .     S
C662   N693    1.429   .     S
C662   C666    1.411   .     A
C662   N691    1.367   .     A
C663   N692    1.368   .     A
C663   N694    1.429   .     S
C663   C667    1.411   .     A
C664   N691    1.367   .     A
C664   N695    1.429   .     S
C664   C668    1.411   .     A
C665   N696    1.429   .     S
C665   N692    1.368   .     A
C666   H690    1.079   .     S
C667   H672    1.079   .     S
C668   H673    1.079   .     S
Cu669  O703    1.933   .     S
Cu669  Cu670   2.689   .     S
Cu669  O697    1.957   .     S
Cu669  O701    1.933   .     S
Cu669  O699    1.957   .     S
Cu669  N692    2.020   .     S
Cu670  O704    1.933   .     S
Cu670  N691    2.020   .     S
Cu670  O698    1.957   .     S
Cu670  O702    1.933   .     S
Cu670  O700    1.957   .     S
H675   N693    1.046   .     S
H676   N693    1.046   .     S
H677   N694    1.046   .     S
H678   N694    1.045   .     S
H679   N695    1.046   .     S
H680   N695    1.046   .     S
H681   N696    1.046   .     S
H683   N696    1.045   .     S
C705   C722    1.461   .     S
C705   O764    1.297   .     A
C705   O761    1.298   .     A
C706   H738    1.079   .     S
C706   C710    1.411   .     A
C706   C729    1.411   .     A
C707   O768    1.291   .     A
C707   C711    1.409   .     S
C707   O765    1.291   .     A
C708   O767    1.291   .     A
C708   O766    1.291   .     A
C708   C712    1.409   .     S
C709   C730    1.412   .     A
C709   C732    1.412   .     A
C710   C731    1.411   .     A
C710   C581    1.526   1_565 S
C712   C199    1.190   1_556 S
C713   C718    1.390   .     A
C713   C724    1.404   .     A
C713   H735    1.083   .     S
C714   H746    1.083   .     S
C714   C719    1.390   .     A
C714   C725    1.404   .     A
C715   C720    1.390   .     A
C715   H748    1.083   .     S
C715   C725    1.404   .     A
C716   O762    1.297   .     A
C716   C723    1.461   .     S
C716   O763    1.298   .     A
C717   H749    1.083   .     S
C717   C721    1.390   .     A
C717   C724    1.404   .     A
C718   C722    1.402   .     A
C718   H750    1.083   .     S
C719   H751    1.083   .     S
C719   C723    1.402   .     A
C720   H752    1.083   .     S
C720   C723    1.402   .     A
C721   C722    1.402   .     A
C721   H753    1.083   .     S
C725   C660    1.471   1_655 S
C726   N757    1.429   .     S
C726   C730    1.411   .     A
C726   N755    1.367   .     A
C727   N756    1.368   .     A
C727   N758    1.429   .     S
C727   C731    1.411   .     A
C728   N755    1.367   .     A
C728   N759    1.429   .     S
C728   C732    1.411   .     A
C729   N760    1.429   .     S
C729   N756    1.368   .     A
C730   H754    1.079   .     S
C731   H736    1.079   .     S
C732   H737    1.079   .     S
Cu733  O767    1.933   .     S
Cu733  Cu734   2.689   .     S
Cu733  O761    1.957   .     S
Cu733  O765    1.933   .     S
Cu733  O763    1.957   .     S
Cu733  N756    2.020   .     S
Cu734  O768    1.933   .     S
Cu734  N755    2.020   .     S
Cu734  O762    1.957   .     S
Cu734  O766    1.933   .     S
Cu734  O764    1.957   .     S
H739   N757    1.046   .     S
H740   N757    1.046   .     S
H741   N758    1.046   .     S
H742   N758    1.045   .     S
H743   N759    1.046   .     S
H744   N759    1.046   .     S
H745   N760    1.046   .     S
H747   N760    1.045   .     S
