data_str_m2_o1_o1_pcu_sym.84
_audit_creation_date              2020-01-03
_audit_creation_method            'Materials Studio'
_symmetry_space_group_name_H-M    'P1'
_symmetry_Int_Tables_number       1
_symmetry_cell_setting            triclinic
loop_
_symmetry_equiv_pos_as_xyz
  x,y,z
_cell_length_a                    32.2306
_cell_length_b                    28.9793
_cell_length_c                    29.3803
_cell_angle_alpha                 88.0075
_cell_angle_beta                  90.0436
_cell_angle_gamma                 89.8660
loop_
_atom_site_label
_atom_site_type_symbol
_atom_site_fract_x
_atom_site_fract_y
_atom_site_fract_z
_atom_site_U_iso_or_equiv
_atom_site_adp_type
_atom_site_occupancy
C1     C     0.05913   0.19049   0.16700   0.00000  Uiso   1.00
C2     C     0.49543   0.29031   0.30793   0.00000  Uiso   1.00
C3     C     0.00374   0.29015   0.02253   0.00000  Uiso   1.00
C4     C     0.00522   0.20986   0.31072   0.00000  Uiso   1.00
C5     C     0.24623   0.45958   0.02547   0.00000  Uiso   1.00
C6     C     0.24500   0.04020   0.30791   0.00000  Uiso   1.00
C7     C     0.25374   0.04009   0.02242   0.00000  Uiso   1.00
C8     C     0.25466   0.45992   0.31087   0.00000  Uiso   1.00
C9     C     0.38529   0.14967   0.12719   0.00000  Uiso   1.00
C10    C     0.11204   0.35370   0.20796   0.00000  Uiso   1.00
C11    C     0.10239   0.36952   0.12737   0.00000  Uiso   1.00
C12    C     0.43993   0.30823   0.16617   0.00000  Uiso   1.00
C13    C     0.39012   0.14040   0.20905   0.00000  Uiso   1.00
C14    C     0.09798   0.12526   0.20386   0.00000  Uiso   1.00
C15    C     0.39370   0.36407   0.12498   0.00000  Uiso   1.00
C16    C     0.38193   0.34587   0.20482   0.00000  Uiso   1.00
C17    C     0.11753   0.15325   0.12837   0.00000  Uiso   1.00
C18    C     0.13270   0.40297   0.12813   0.00000  Uiso   1.00
C19    C     0.35917   0.10720   0.20858   0.00000  Uiso   1.00
C20    C     0.35551   0.11574   0.12659   0.00000  Uiso   1.00
C21    C     0.14302   0.38681   0.20856   0.00000  Uiso   1.00
C22    C     0.35140   0.37921   0.20559   0.00000  Uiso   1.00
C23    C     0.43980   0.19190   0.16713   0.00000  Uiso   1.00
C24    C     0.14867   0.12032   0.12754   0.00000  Uiso   1.00
C25    C     0.12952   0.09284   0.20331   0.00000  Uiso   1.00
C26    C     0.36274   0.39727   0.12565   0.00000  Uiso   1.00
C27    C     0.09200   0.34412   0.16693   0.00000  Uiso   1.00
C28    C     0.40462   0.16041   0.16800   0.00000  Uiso   1.00
C29    C     0.40477   0.33972   0.16516   0.00000  Uiso   1.00
C30    C     0.09229   0.15634   0.16691   0.00000  Uiso   1.00
C31    C     0.34206   0.09404   0.16700   0.00000  Uiso   1.00
C32    C     0.15481   0.41019   0.16811   0.00000  Uiso   1.00
C33    C     0.15572   0.09097   0.16554   0.00000  Uiso   1.00
C34    C     0.05918   0.30950   0.16644   0.00000  Uiso   1.00
C35    C     0.34193   0.40579   0.16644   0.00000  Uiso   1.00
C36    C     0.48016   0.16385   0.04584   0.00000  Uiso   1.00
C37    C     0.00966   0.13509   0.07702   0.00000  Uiso   1.00
C38    C     0.00489   0.08308   0.07198   0.00000  Uiso   1.00
C39    C     0.47403   0.33409   0.28861   0.00000  Uiso   1.00
C40    C     0.49954   0.36713   0.25721   0.00000  Uiso   1.00
C41    C     0.47912   0.41472   0.25228   0.00000  Uiso   1.00
C42    C     0.02610   0.33238   0.03891   0.00000  Uiso   1.00
C43    C     0.49954   0.36553   0.06692   0.00000  Uiso   1.00
C44    C     0.01164   0.41617   0.05889   0.00000  Uiso   1.00
C45    C     0.30915   0.44047   0.16691   0.00000  Uiso   1.00
C46    C     0.02525   0.16639   0.29297   0.00000  Uiso   1.00
C47    C     0.49617   0.13627   0.26457   0.00000  Uiso   1.00
C48    C     0.00171   0.08438   0.27408   0.00000  Uiso   1.00
C49    C     0.22487   0.41583   0.04459   0.00000  Uiso   1.00
C50    C     0.25025   0.38274   0.07622   0.00000  Uiso   1.00
C51    C     0.22966   0.33536   0.08148   0.00000  Uiso   1.00
C52    C     0.22286   0.08353   0.28868   0.00000  Uiso   1.00
C53    C     0.24821   0.11730   0.25786   0.00000  Uiso   1.00
C54    C     0.22730   0.16466   0.25365   0.00000  Uiso   1.00
C55    C     0.27771   0.08143   0.03798   0.00000  Uiso   1.00
C56    C     0.19029   0.05872   0.16623   0.00000  Uiso   1.00
C57    C     0.25260   0.11639   0.06530   0.00000  Uiso   1.00
C58    C     0.26842   0.16582   0.05816   0.00000  Uiso   1.00
C59    C     0.27659   0.41745   0.29420   0.00000  Uiso   1.00
C60    C     0.24950   0.38496   0.26609   0.00000  Uiso   1.00
C61    C     0.26021   0.33395   0.27474   0.00000  Uiso   1.00
C62    C     0.18992   0.44175   0.16715   0.00000  Uiso   1.00
C63    C     0.30923   0.05944   0.16647   0.00000  Uiso   1.00
C64    C     0.49722   0.20943   0.02544   0.00000  Uiso   1.00
Cu65   Cu    0.00000   0.25000   0.21355   0.00000  Uiso   1.00
Cu66   Cu    0.00000   0.25000   0.11978   0.00000  Uiso   1.00
Cu67   Cu    0.25000   0.00000   0.21355   0.00000  Uiso   1.00
Cu68   Cu    0.25000   0.00000   0.11978   0.00000  Uiso   1.00
H69    H     0.39250   0.16765   0.09554   0.00000  Uiso   1.00
H70    H     0.34895   0.09182   0.24075   0.00000  Uiso   1.00
H71    H     0.34319   0.10742   0.09429   0.00000  Uiso   1.00
H72    H     0.15741   0.39396   0.24060   0.00000  Uiso   1.00
H73    H     0.33514   0.38307   0.23671   0.00000  Uiso   1.00
H74    H     0.16724   0.11830   0.09744   0.00000  Uiso   1.00
H75    H     0.13283   0.06876   0.23207   0.00000  Uiso   1.00
H76    H     0.35535   0.41630   0.09429   0.00000  Uiso   1.00
H77    H     0.47164   0.07307   0.07280   0.00000  Uiso   1.00
H78    H     0.01937   0.07239   0.03984   0.00000  Uiso   1.00
H79    H     0.02117   0.06447   0.10049   0.00000  Uiso   1.00
H80    H     0.10404   0.33555   0.23959   0.00000  Uiso   1.00
H81    H     0.04248   0.14423   0.06973   0.00000  Uiso   1.00
H82    H     0.00227   0.14133   0.11301   0.00000  Uiso   1.00
H83    H     0.45002   0.16965   0.06117   0.00000  Uiso   1.00
H84    H     0.46991   0.14159   0.01816   0.00000  Uiso   1.00
H85    H     0.44762   0.41167   0.23732   0.00000  Uiso   1.00
H86    H     0.47651   0.43108   0.28568   0.00000  Uiso   1.00
H87    H     0.49807   0.43747   0.22933   0.00000  Uiso   1.00
H88    H     0.03166   0.37107   0.26996   0.00000  Uiso   1.00
H89    H     0.00126   0.35476   0.22244   0.00000  Uiso   1.00
H90    H     0.44386   0.32519   0.27438   0.00000  Uiso   1.00
H91    H     0.08704   0.36462   0.09584   0.00000  Uiso   1.00
H92    H     0.46334   0.35493   0.31712   0.00000  Uiso   1.00
H93    H     0.04428   0.42216   0.06888   0.00000  Uiso   1.00
H94    H     0.00781   0.42671   0.02254   0.00000  Uiso   1.00
H95    H     0.49132   0.43832   0.07951   0.00000  Uiso   1.00
H96    H     0.46665   0.36213   0.05744   0.00000  Uiso   1.00
H97    H     0.00226   0.35772   0.10380   0.00000  Uiso   1.00
H98    H     0.05492   0.32033   0.05496   0.00000  Uiso   1.00
H99    H     0.03890   0.35231   0.00936   0.00000  Uiso   1.00
H100   H     0.03500   0.07473   0.27656   0.00000  Uiso   1.00
H101   H     0.48557   0.07369   0.30598   0.00000  Uiso   1.00
H102   H     0.40220   0.15038   0.24145   0.00000  Uiso   1.00
H103   H     0.48743   0.06510   0.24606   0.00000  Uiso   1.00
H104   H     0.46357   0.14493   0.27216   0.00000  Uiso   1.00
H105   H     0.00165   0.14238   0.22781   0.00000  Uiso   1.00
H106   H     0.05472   0.17600   0.27670   0.00000  Uiso   1.00
H107   H     0.03744   0.14467   0.32179   0.00000  Uiso   1.00
H108   H     0.19822   0.33881   0.09645   0.00000  Uiso   1.00
H109   H     0.22688   0.31876   0.04825   0.00000  Uiso   1.00
H110   H     0.24859   0.31259   0.10457   0.00000  Uiso   1.00
H111   H     0.28235   0.37845   0.06354   0.00000  Uiso   1.00
H112   H     0.25189   0.39530   0.11090   0.00000  Uiso   1.00
H113   H     0.07772   0.12481   0.23265   0.00000  Uiso   1.00
H114   H     0.19470   0.42493   0.05863   0.00000  Uiso   1.00
H115   H     0.21433   0.39500   0.01602   0.00000  Uiso   1.00
H116   H     0.19575   0.16141   0.23885   0.00000  Uiso   1.00
H117   H     0.22481   0.18042   0.28741   0.00000  Uiso   1.00
H118   H     0.24593   0.18794   0.23089   0.00000  Uiso   1.00
H119   H     0.28012   0.12165   0.27093   0.00000  Uiso   1.00
H120   H     0.25060   0.10527   0.22296   0.00000  Uiso   1.00
H121   H     0.19268   0.07441   0.27415   0.00000  Uiso   1.00
H122   H     0.21169   0.10379   0.31729   0.00000  Uiso   1.00
H123   H     0.30118   0.16867   0.06911   0.00000  Uiso   1.00
H124   H     0.40866   0.35764   0.09313   0.00000  Uiso   1.00
H125   H     0.26605   0.17698   0.02175   0.00000  Uiso   1.00
H126   H     0.24933   0.18951   0.07848   0.00000  Uiso   1.00
H127   H     0.21997   0.11602   0.05438   0.00000  Uiso   1.00
H128   H     0.25327   0.10791   0.10217   0.00000  Uiso   1.00
H129   H     0.30588   0.06815   0.05438   0.00000  Uiso   1.00
H130   H     0.29132   0.10005   0.00811   0.00000  Uiso   1.00
H131   H     0.29281   0.32665   0.26541   0.00000  Uiso   1.00
H132   H     0.25567   0.32388   0.31106   0.00000  Uiso   1.00
H133   H     0.23959   0.31238   0.25395   0.00000  Uiso   1.00
H134   H     0.21658   0.38970   0.27494   0.00000  Uiso   1.00
H135   H     0.38702   0.32461   0.23519   0.00000  Uiso   1.00
H136   H     0.25283   0.39223   0.22920   0.00000  Uiso   1.00
H137   H     0.30550   0.42912   0.27816   0.00000  Uiso   1.00
H138   H     0.28927   0.39714   0.32365   0.00000  Uiso   1.00
H139   H     0.11336   0.17635   0.09892   0.00000  Uiso   1.00
H140   H     0.13822   0.42344   0.09740   0.00000  Uiso   1.00
N141   N     0.00000   0.25000   0.28402   0.00000  Uiso   1.00
N142   N     0.00000   0.25000   0.04931   0.00000  Uiso   1.00
N143   N     0.25000   0.00000   0.28402   0.00000  Uiso   1.00
N144   N     0.25000   0.00000   0.04931   0.00000  Uiso   1.00
O145   O     0.04509   0.20491   0.20625   0.00000  Uiso   1.00
O146   O     0.20492   0.04509   0.12709   0.00000  Uiso   1.00
O147   O     0.20492   0.04509   0.20625   0.00000  Uiso   1.00
O148   O     0.29509   0.45491   0.12709   0.00000  Uiso   1.00
O149   O     0.20492   0.45491   0.12709   0.00000  Uiso   1.00
O150   O     0.29509   0.04509   0.20625   0.00000  Uiso   1.00
O151   O     0.29509   0.04509   0.12709   0.00000  Uiso   1.00
O152   O     0.20492   0.45491   0.20625   0.00000  Uiso   1.00
O153   O     0.45492   0.29509   0.12709   0.00000  Uiso   1.00
O154   O     0.45492   0.29509   0.20625   0.00000  Uiso   1.00
O155   O     0.04509   0.20491   0.12709   0.00000  Uiso   1.00
O156   O     0.45492   0.20491   0.12709   0.00000  Uiso   1.00
O157   O     0.04509   0.29509   0.20625   0.00000  Uiso   1.00
O158   O     0.04509   0.29509   0.12709   0.00000  Uiso   1.00
O159   O     0.45492   0.20491   0.20625   0.00000  Uiso   1.00
O160   O     0.29509   0.45491   0.20625   0.00000  Uiso   1.00
C161   C     0.55913   0.19049   0.16700   0.00000  Uiso   1.00
C162   C     0.99543   0.29031   0.30793   0.00000  Uiso   1.00
C163   C     0.50374   0.29015   0.02253   0.00000  Uiso   1.00
C164   C     0.50522   0.20986   0.31072   0.00000  Uiso   1.00
C165   C     0.74623   0.45958   0.02547   0.00000  Uiso   1.00
C166   C     0.74500   0.04020   0.30791   0.00000  Uiso   1.00
C167   C     0.75374   0.04009   0.02242   0.00000  Uiso   1.00
C168   C     0.75466   0.45992   0.31087   0.00000  Uiso   1.00
C169   C     0.88529   0.14967   0.12719   0.00000  Uiso   1.00
C170   C     0.61204   0.35370   0.20796   0.00000  Uiso   1.00
C171   C     0.60239   0.36952   0.12737   0.00000  Uiso   1.00
C172   C     0.93993   0.30823   0.16617   0.00000  Uiso   1.00
C173   C     0.89012   0.14040   0.20905   0.00000  Uiso   1.00
C174   C     0.59798   0.12526   0.20386   0.00000  Uiso   1.00
C175   C     0.89370   0.36407   0.12498   0.00000  Uiso   1.00
C176   C     0.88193   0.34587   0.20482   0.00000  Uiso   1.00
C177   C     0.61753   0.15325   0.12837   0.00000  Uiso   1.00
C178   C     0.63270   0.40297   0.12813   0.00000  Uiso   1.00
C179   C     0.85917   0.10720   0.20858   0.00000  Uiso   1.00
C180   C     0.85551   0.11574   0.12659   0.00000  Uiso   1.00
C181   C     0.64302   0.38681   0.20856   0.00000  Uiso   1.00
C182   C     0.85140   0.37921   0.20559   0.00000  Uiso   1.00
C183   C     0.93980   0.19190   0.16713   0.00000  Uiso   1.00
C184   C     0.64867   0.12032   0.12754   0.00000  Uiso   1.00
C185   C     0.62952   0.09284   0.20331   0.00000  Uiso   1.00
C186   C     0.86274   0.39727   0.12565   0.00000  Uiso   1.00
C187   C     0.59200   0.34412   0.16693   0.00000  Uiso   1.00
C188   C     0.90462   0.16041   0.16800   0.00000  Uiso   1.00
C189   C     0.90477   0.33972   0.16516   0.00000  Uiso   1.00
C190   C     0.59229   0.15634   0.16691   0.00000  Uiso   1.00
C191   C     0.84206   0.09404   0.16700   0.00000  Uiso   1.00
C192   C     0.65481   0.41019   0.16811   0.00000  Uiso   1.00
C193   C     0.65572   0.09097   0.16554   0.00000  Uiso   1.00
C194   C     0.55918   0.30950   0.16644   0.00000  Uiso   1.00
C195   C     0.84193   0.40579   0.16644   0.00000  Uiso   1.00
C196   C     0.98016   0.16385   0.04584   0.00000  Uiso   1.00
C197   C     0.50966   0.13509   0.07702   0.00000  Uiso   1.00
C198   C     0.50489   0.08308   0.07198   0.00000  Uiso   1.00
C199   C     0.97403   0.33409   0.28861   0.00000  Uiso   1.00
C200   C     0.99954   0.36713   0.25721   0.00000  Uiso   1.00
C201   C     0.97912   0.41472   0.25228   0.00000  Uiso   1.00
C202   C     0.52610   0.33238   0.03891   0.00000  Uiso   1.00
C203   C     0.99954   0.36553   0.06692   0.00000  Uiso   1.00
C204   C     0.51164   0.41617   0.05889   0.00000  Uiso   1.00
C205   C     0.80915   0.44047   0.16691   0.00000  Uiso   1.00
C206   C     0.52525   0.16639   0.29297   0.00000  Uiso   1.00
C207   C     0.99617   0.13627   0.26457   0.00000  Uiso   1.00
C208   C     0.50171   0.08438   0.27408   0.00000  Uiso   1.00
C209   C     0.72487   0.41583   0.04459   0.00000  Uiso   1.00
C210   C     0.75025   0.38274   0.07622   0.00000  Uiso   1.00
C211   C     0.72966   0.33536   0.08148   0.00000  Uiso   1.00
C212   C     0.72286   0.08353   0.28868   0.00000  Uiso   1.00
C213   C     0.74821   0.11730   0.25786   0.00000  Uiso   1.00
C214   C     0.72730   0.16466   0.25365   0.00000  Uiso   1.00
C215   C     0.77771   0.08143   0.03798   0.00000  Uiso   1.00
C216   C     0.69029   0.05872   0.16623   0.00000  Uiso   1.00
C217   C     0.75260   0.11639   0.06530   0.00000  Uiso   1.00
C218   C     0.76842   0.16582   0.05816   0.00000  Uiso   1.00
C219   C     0.77659   0.41745   0.29420   0.00000  Uiso   1.00
C220   C     0.74950   0.38496   0.26609   0.00000  Uiso   1.00
C221   C     0.76021   0.33395   0.27474   0.00000  Uiso   1.00
C222   C     0.68992   0.44175   0.16715   0.00000  Uiso   1.00
C223   C     0.80923   0.05944   0.16647   0.00000  Uiso   1.00
C224   C     0.99722   0.20943   0.02544   0.00000  Uiso   1.00
Cu225  Cu    0.50000   0.25000   0.21355   0.00000  Uiso   1.00
Cu226  Cu    0.50000   0.25000   0.11978   0.00000  Uiso   1.00
Cu227  Cu    0.75000   0.00000   0.21355   0.00000  Uiso   1.00
Cu228  Cu    0.75000   0.00000   0.11978   0.00000  Uiso   1.00
H229   H     0.89250   0.16765   0.09554   0.00000  Uiso   1.00
H230   H     0.84895   0.09182   0.24075   0.00000  Uiso   1.00
H231   H     0.84319   0.10742   0.09429   0.00000  Uiso   1.00
H232   H     0.65741   0.39396   0.24060   0.00000  Uiso   1.00
H233   H     0.83514   0.38307   0.23671   0.00000  Uiso   1.00
H234   H     0.66724   0.11830   0.09744   0.00000  Uiso   1.00
H235   H     0.63283   0.06876   0.23207   0.00000  Uiso   1.00
H236   H     0.85535   0.41630   0.09429   0.00000  Uiso   1.00
H237   H     0.97164   0.07307   0.07280   0.00000  Uiso   1.00
H238   H     0.51937   0.07239   0.03984   0.00000  Uiso   1.00
H239   H     0.52117   0.06447   0.10049   0.00000  Uiso   1.00
H240   H     0.60404   0.33555   0.23959   0.00000  Uiso   1.00
H241   H     0.54248   0.14423   0.06973   0.00000  Uiso   1.00
H242   H     0.50227   0.14133   0.11301   0.00000  Uiso   1.00
H243   H     0.95002   0.16965   0.06117   0.00000  Uiso   1.00
H244   H     0.96991   0.14159   0.01816   0.00000  Uiso   1.00
H245   H     0.94762   0.41167   0.23732   0.00000  Uiso   1.00
H246   H     0.97651   0.43108   0.28568   0.00000  Uiso   1.00
H247   H     0.99807   0.43747   0.22933   0.00000  Uiso   1.00
H248   H     0.53166   0.37107   0.26996   0.00000  Uiso   1.00
H249   H     0.50126   0.35476   0.22244   0.00000  Uiso   1.00
H250   H     0.94386   0.32519   0.27438   0.00000  Uiso   1.00
H251   H     0.58704   0.36462   0.09584   0.00000  Uiso   1.00
H252   H     0.96334   0.35493   0.31712   0.00000  Uiso   1.00
H253   H     0.54428   0.42216   0.06888   0.00000  Uiso   1.00
H254   H     0.50781   0.42671   0.02254   0.00000  Uiso   1.00
H255   H     0.99132   0.43832   0.07951   0.00000  Uiso   1.00
H256   H     0.96665   0.36213   0.05744   0.00000  Uiso   1.00
H257   H     0.50226   0.35772   0.10380   0.00000  Uiso   1.00
H258   H     0.55492   0.32033   0.05496   0.00000  Uiso   1.00
H259   H     0.53890   0.35231   0.00936   0.00000  Uiso   1.00
H260   H     0.53500   0.07473   0.27656   0.00000  Uiso   1.00
H261   H     0.98557   0.07369   0.30598   0.00000  Uiso   1.00
H262   H     0.90220   0.15038   0.24145   0.00000  Uiso   1.00
H263   H     0.98743   0.06510   0.24606   0.00000  Uiso   1.00
H264   H     0.96357   0.14493   0.27216   0.00000  Uiso   1.00
H265   H     0.50165   0.14238   0.22781   0.00000  Uiso   1.00
H266   H     0.55472   0.17600   0.27670   0.00000  Uiso   1.00
H267   H     0.53744   0.14467   0.32179   0.00000  Uiso   1.00
H268   H     0.69822   0.33881   0.09645   0.00000  Uiso   1.00
H269   H     0.72688   0.31876   0.04825   0.00000  Uiso   1.00
H270   H     0.74859   0.31259   0.10457   0.00000  Uiso   1.00
H271   H     0.78235   0.37845   0.06354   0.00000  Uiso   1.00
H272   H     0.75189   0.39530   0.11090   0.00000  Uiso   1.00
H273   H     0.57772   0.12481   0.23265   0.00000  Uiso   1.00
H274   H     0.69470   0.42493   0.05863   0.00000  Uiso   1.00
H275   H     0.71433   0.39500   0.01602   0.00000  Uiso   1.00
H276   H     0.69575   0.16141   0.23885   0.00000  Uiso   1.00
H277   H     0.72481   0.18042   0.28741   0.00000  Uiso   1.00
H278   H     0.74593   0.18794   0.23089   0.00000  Uiso   1.00
H279   H     0.78012   0.12165   0.27093   0.00000  Uiso   1.00
H280   H     0.75060   0.10527   0.22296   0.00000  Uiso   1.00
H281   H     0.69268   0.07441   0.27415   0.00000  Uiso   1.00
H282   H     0.71169   0.10379   0.31729   0.00000  Uiso   1.00
H283   H     0.80118   0.16867   0.06911   0.00000  Uiso   1.00
H284   H     0.90866   0.35764   0.09313   0.00000  Uiso   1.00
H285   H     0.76605   0.17698   0.02175   0.00000  Uiso   1.00
H286   H     0.74933   0.18951   0.07848   0.00000  Uiso   1.00
H287   H     0.71997   0.11602   0.05438   0.00000  Uiso   1.00
H288   H     0.75327   0.10791   0.10217   0.00000  Uiso   1.00
H289   H     0.80588   0.06815   0.05438   0.00000  Uiso   1.00
H290   H     0.79132   0.10005   0.00811   0.00000  Uiso   1.00
H291   H     0.79281   0.32665   0.26541   0.00000  Uiso   1.00
H292   H     0.75567   0.32388   0.31106   0.00000  Uiso   1.00
H293   H     0.73959   0.31238   0.25395   0.00000  Uiso   1.00
H294   H     0.71658   0.38970   0.27494   0.00000  Uiso   1.00
H295   H     0.88702   0.32461   0.23519   0.00000  Uiso   1.00
H296   H     0.75283   0.39223   0.22920   0.00000  Uiso   1.00
H297   H     0.80550   0.42912   0.27816   0.00000  Uiso   1.00
H298   H     0.78927   0.39714   0.32365   0.00000  Uiso   1.00
H299   H     0.61336   0.17635   0.09892   0.00000  Uiso   1.00
H300   H     0.63822   0.42344   0.09740   0.00000  Uiso   1.00
N301   N     0.50000   0.25000   0.28402   0.00000  Uiso   1.00
N302   N     0.50000   0.25000   0.04931   0.00000  Uiso   1.00
N303   N     0.75000   0.00000   0.28402   0.00000  Uiso   1.00
N304   N     0.75000   0.00000   0.04931   0.00000  Uiso   1.00
O305   O     0.54509   0.20491   0.20625   0.00000  Uiso   1.00
O306   O     0.70492   0.04509   0.12709   0.00000  Uiso   1.00
O307   O     0.70492   0.04509   0.20625   0.00000  Uiso   1.00
O308   O     0.79509   0.45491   0.12709   0.00000  Uiso   1.00
O309   O     0.70492   0.45491   0.12709   0.00000  Uiso   1.00
O310   O     0.79509   0.04509   0.20625   0.00000  Uiso   1.00
O311   O     0.79509   0.04509   0.12709   0.00000  Uiso   1.00
O312   O     0.70492   0.45491   0.20625   0.00000  Uiso   1.00
O313   O     0.95492   0.29509   0.12709   0.00000  Uiso   1.00
O314   O     0.95492   0.29509   0.20625   0.00000  Uiso   1.00
O315   O     0.54509   0.20491   0.12709   0.00000  Uiso   1.00
O316   O     0.95492   0.20491   0.12709   0.00000  Uiso   1.00
O317   O     0.54509   0.29509   0.20625   0.00000  Uiso   1.00
O318   O     0.54509   0.29509   0.12709   0.00000  Uiso   1.00
O319   O     0.95492   0.20491   0.20625   0.00000  Uiso   1.00
O320   O     0.79509   0.45491   0.20625   0.00000  Uiso   1.00
C321   C     0.05913   0.69049   0.16700   0.00000  Uiso   1.00
C322   C     0.49543   0.79031   0.30793   0.00000  Uiso   1.00
C323   C     0.00374   0.79015   0.02253   0.00000  Uiso   1.00
C324   C     0.00522   0.70986   0.31072   0.00000  Uiso   1.00
C325   C     0.24623   0.95958   0.02547   0.00000  Uiso   1.00
C326   C     0.24500   0.54020   0.30791   0.00000  Uiso   1.00
C327   C     0.25374   0.54009   0.02242   0.00000  Uiso   1.00
C328   C     0.25466   0.95992   0.31087   0.00000  Uiso   1.00
C329   C     0.38529   0.64967   0.12719   0.00000  Uiso   1.00
C330   C     0.11204   0.85370   0.20796   0.00000  Uiso   1.00
C331   C     0.10239   0.86952   0.12737   0.00000  Uiso   1.00
C332   C     0.43993   0.80823   0.16617   0.00000  Uiso   1.00
C333   C     0.39012   0.64040   0.20905   0.00000  Uiso   1.00
C334   C     0.09798   0.62526   0.20386   0.00000  Uiso   1.00
C335   C     0.39370   0.86407   0.12498   0.00000  Uiso   1.00
C336   C     0.38193   0.84587   0.20482   0.00000  Uiso   1.00
C337   C     0.11753   0.65325   0.12837   0.00000  Uiso   1.00
C338   C     0.13270   0.90297   0.12813   0.00000  Uiso   1.00
C339   C     0.35917   0.60720   0.20858   0.00000  Uiso   1.00
C340   C     0.35551   0.61574   0.12659   0.00000  Uiso   1.00
C341   C     0.14302   0.88681   0.20856   0.00000  Uiso   1.00
C342   C     0.35140   0.87921   0.20559   0.00000  Uiso   1.00
C343   C     0.43980   0.69190   0.16713   0.00000  Uiso   1.00
C344   C     0.14867   0.62032   0.12754   0.00000  Uiso   1.00
C345   C     0.12952   0.59284   0.20331   0.00000  Uiso   1.00
C346   C     0.36274   0.89727   0.12565   0.00000  Uiso   1.00
C347   C     0.09200   0.84412   0.16693   0.00000  Uiso   1.00
C348   C     0.40462   0.66041   0.16800   0.00000  Uiso   1.00
C349   C     0.40477   0.83972   0.16516   0.00000  Uiso   1.00
C350   C     0.09229   0.65634   0.16691   0.00000  Uiso   1.00
C351   C     0.34206   0.59404   0.16700   0.00000  Uiso   1.00
C352   C     0.15481   0.91019   0.16811   0.00000  Uiso   1.00
C353   C     0.15572   0.59097   0.16554   0.00000  Uiso   1.00
C354   C     0.05918   0.80950   0.16644   0.00000  Uiso   1.00
C355   C     0.34193   0.90579   0.16644   0.00000  Uiso   1.00
C356   C     0.48016   0.66385   0.04584   0.00000  Uiso   1.00
C357   C     0.00966   0.63509   0.07702   0.00000  Uiso   1.00
C358   C     0.00489   0.58308   0.07198   0.00000  Uiso   1.00
C359   C     0.47403   0.83409   0.28861   0.00000  Uiso   1.00
C360   C     0.49954   0.86713   0.25721   0.00000  Uiso   1.00
C361   C     0.47912   0.91472   0.25228   0.00000  Uiso   1.00
C362   C     0.02610   0.83238   0.03891   0.00000  Uiso   1.00
C363   C     0.49954   0.86553   0.06692   0.00000  Uiso   1.00
C364   C     0.01164   0.91617   0.05889   0.00000  Uiso   1.00
C365   C     0.30915   0.94047   0.16691   0.00000  Uiso   1.00
C366   C     0.02525   0.66639   0.29297   0.00000  Uiso   1.00
C367   C     0.49617   0.63627   0.26457   0.00000  Uiso   1.00
C368   C     0.00171   0.58438   0.27408   0.00000  Uiso   1.00
C369   C     0.22487   0.91583   0.04459   0.00000  Uiso   1.00
C370   C     0.25025   0.88274   0.07622   0.00000  Uiso   1.00
C371   C     0.22966   0.83536   0.08148   0.00000  Uiso   1.00
C372   C     0.22286   0.58353   0.28868   0.00000  Uiso   1.00
C373   C     0.24821   0.61730   0.25786   0.00000  Uiso   1.00
C374   C     0.22730   0.66466   0.25365   0.00000  Uiso   1.00
C375   C     0.27771   0.58143   0.03798   0.00000  Uiso   1.00
C376   C     0.19029   0.55872   0.16623   0.00000  Uiso   1.00
C377   C     0.25260   0.61639   0.06530   0.00000  Uiso   1.00
C378   C     0.26842   0.66582   0.05816   0.00000  Uiso   1.00
C379   C     0.27659   0.91745   0.29420   0.00000  Uiso   1.00
C380   C     0.24950   0.88496   0.26609   0.00000  Uiso   1.00
C381   C     0.26021   0.83395   0.27474   0.00000  Uiso   1.00
C382   C     0.18992   0.94175   0.16715   0.00000  Uiso   1.00
C383   C     0.30923   0.55944   0.16647   0.00000  Uiso   1.00
C384   C     0.49722   0.70943   0.02544   0.00000  Uiso   1.00
Cu385  Cu    0.00000   0.75000   0.21355   0.00000  Uiso   1.00
Cu386  Cu    0.00000   0.75000   0.11978   0.00000  Uiso   1.00
Cu387  Cu    0.25000   0.50000   0.21355   0.00000  Uiso   1.00
Cu388  Cu    0.25000   0.50000   0.11978   0.00000  Uiso   1.00
H389   H     0.39250   0.66765   0.09554   0.00000  Uiso   1.00
H390   H     0.34895   0.59182   0.24075   0.00000  Uiso   1.00
H391   H     0.34319   0.60742   0.09429   0.00000  Uiso   1.00
H392   H     0.15741   0.89396   0.24060   0.00000  Uiso   1.00
H393   H     0.33514   0.88307   0.23671   0.00000  Uiso   1.00
H394   H     0.16724   0.61830   0.09744   0.00000  Uiso   1.00
H395   H     0.13283   0.56876   0.23207   0.00000  Uiso   1.00
H396   H     0.35535   0.91630   0.09429   0.00000  Uiso   1.00
H397   H     0.47164   0.57307   0.07280   0.00000  Uiso   1.00
H398   H     0.01937   0.57239   0.03984   0.00000  Uiso   1.00
H399   H     0.02117   0.56447   0.10049   0.00000  Uiso   1.00
H400   H     0.10404   0.83555   0.23959   0.00000  Uiso   1.00
H401   H     0.04248   0.64423   0.06973   0.00000  Uiso   1.00
H402   H     0.00227   0.64133   0.11301   0.00000  Uiso   1.00
H403   H     0.45002   0.66965   0.06117   0.00000  Uiso   1.00
H404   H     0.46991   0.64159   0.01816   0.00000  Uiso   1.00
H405   H     0.44762   0.91167   0.23732   0.00000  Uiso   1.00
H406   H     0.47651   0.93108   0.28568   0.00000  Uiso   1.00
H407   H     0.49807   0.93747   0.22933   0.00000  Uiso   1.00
H408   H     0.03166   0.87107   0.26996   0.00000  Uiso   1.00
H409   H     0.00126   0.85476   0.22244   0.00000  Uiso   1.00
H410   H     0.44386   0.82519   0.27438   0.00000  Uiso   1.00
H411   H     0.08704   0.86462   0.09584   0.00000  Uiso   1.00
H412   H     0.46334   0.85493   0.31712   0.00000  Uiso   1.00
H413   H     0.04428   0.92216   0.06888   0.00000  Uiso   1.00
H414   H     0.00781   0.92671   0.02254   0.00000  Uiso   1.00
H415   H     0.49132   0.93832   0.07951   0.00000  Uiso   1.00
H416   H     0.46665   0.86213   0.05744   0.00000  Uiso   1.00
H417   H     0.00226   0.85772   0.10380   0.00000  Uiso   1.00
H418   H     0.05492   0.82033   0.05496   0.00000  Uiso   1.00
H419   H     0.03890   0.85231   0.00936   0.00000  Uiso   1.00
H420   H     0.03500   0.57473   0.27656   0.00000  Uiso   1.00
H421   H     0.48557   0.57369   0.30598   0.00000  Uiso   1.00
H422   H     0.40220   0.65038   0.24145   0.00000  Uiso   1.00
H423   H     0.48743   0.56510   0.24606   0.00000  Uiso   1.00
H424   H     0.46357   0.64493   0.27216   0.00000  Uiso   1.00
H425   H     0.00165   0.64238   0.22781   0.00000  Uiso   1.00
H426   H     0.05472   0.67600   0.27670   0.00000  Uiso   1.00
H427   H     0.03744   0.64467   0.32179   0.00000  Uiso   1.00
H428   H     0.19822   0.83881   0.09645   0.00000  Uiso   1.00
H429   H     0.22688   0.81876   0.04825   0.00000  Uiso   1.00
H430   H     0.24859   0.81259   0.10457   0.00000  Uiso   1.00
H431   H     0.28235   0.87845   0.06354   0.00000  Uiso   1.00
H432   H     0.25189   0.89530   0.11090   0.00000  Uiso   1.00
H433   H     0.07772   0.62481   0.23265   0.00000  Uiso   1.00
H434   H     0.19470   0.92493   0.05863   0.00000  Uiso   1.00
H435   H     0.21433   0.89500   0.01602   0.00000  Uiso   1.00
H436   H     0.19575   0.66141   0.23885   0.00000  Uiso   1.00
H437   H     0.22481   0.68042   0.28741   0.00000  Uiso   1.00
H438   H     0.24593   0.68794   0.23089   0.00000  Uiso   1.00
H439   H     0.28012   0.62165   0.27093   0.00000  Uiso   1.00
H440   H     0.25060   0.60527   0.22296   0.00000  Uiso   1.00
H441   H     0.19268   0.57441   0.27415   0.00000  Uiso   1.00
H442   H     0.21169   0.60379   0.31729   0.00000  Uiso   1.00
H443   H     0.30118   0.66867   0.06911   0.00000  Uiso   1.00
H444   H     0.40866   0.85764   0.09313   0.00000  Uiso   1.00
H445   H     0.26605   0.67698   0.02175   0.00000  Uiso   1.00
H446   H     0.24933   0.68951   0.07848   0.00000  Uiso   1.00
H447   H     0.21997   0.61602   0.05438   0.00000  Uiso   1.00
H448   H     0.25327   0.60791   0.10217   0.00000  Uiso   1.00
H449   H     0.30588   0.56815   0.05438   0.00000  Uiso   1.00
H450   H     0.29132   0.60005   0.00811   0.00000  Uiso   1.00
H451   H     0.29281   0.82665   0.26541   0.00000  Uiso   1.00
H452   H     0.25567   0.82388   0.31106   0.00000  Uiso   1.00
H453   H     0.23959   0.81238   0.25395   0.00000  Uiso   1.00
H454   H     0.21658   0.88970   0.27494   0.00000  Uiso   1.00
H455   H     0.38702   0.82461   0.23519   0.00000  Uiso   1.00
H456   H     0.25283   0.89223   0.22920   0.00000  Uiso   1.00
H457   H     0.30550   0.92912   0.27816   0.00000  Uiso   1.00
H458   H     0.28927   0.89714   0.32365   0.00000  Uiso   1.00
H459   H     0.11336   0.67635   0.09892   0.00000  Uiso   1.00
H460   H     0.13822   0.92344   0.09740   0.00000  Uiso   1.00
N461   N     0.00000   0.75000   0.28402   0.00000  Uiso   1.00
N462   N     0.00000   0.75000   0.04931   0.00000  Uiso   1.00
N463   N     0.25000   0.50000   0.28402   0.00000  Uiso   1.00
N464   N     0.25000   0.50000   0.04931   0.00000  Uiso   1.00
O465   O     0.04509   0.70491   0.20625   0.00000  Uiso   1.00
O466   O     0.20492   0.54509   0.12709   0.00000  Uiso   1.00
O467   O     0.20492   0.54509   0.20625   0.00000  Uiso   1.00
O468   O     0.29509   0.95491   0.12709   0.00000  Uiso   1.00
O469   O     0.20492   0.95491   0.12709   0.00000  Uiso   1.00
O470   O     0.29509   0.54509   0.20625   0.00000  Uiso   1.00
O471   O     0.29509   0.54509   0.12709   0.00000  Uiso   1.00
O472   O     0.20492   0.95491   0.20625   0.00000  Uiso   1.00
O473   O     0.45492   0.79509   0.12709   0.00000  Uiso   1.00
O474   O     0.45492   0.79509   0.20625   0.00000  Uiso   1.00
O475   O     0.04509   0.70491   0.12709   0.00000  Uiso   1.00
O476   O     0.45492   0.70491   0.12709   0.00000  Uiso   1.00
O477   O     0.04509   0.79509   0.20625   0.00000  Uiso   1.00
O478   O     0.04509   0.79509   0.12709   0.00000  Uiso   1.00
O479   O     0.45492   0.70491   0.20625   0.00000  Uiso   1.00
O480   O     0.29509   0.95491   0.20625   0.00000  Uiso   1.00
C481   C     0.55913   0.69049   0.16700   0.00000  Uiso   1.00
C482   C     0.99543   0.79031   0.30793   0.00000  Uiso   1.00
C483   C     0.50374   0.79015   0.02253   0.00000  Uiso   1.00
C484   C     0.50522   0.70986   0.31072   0.00000  Uiso   1.00
C485   C     0.74623   0.95958   0.02547   0.00000  Uiso   1.00
C486   C     0.74500   0.54020   0.30791   0.00000  Uiso   1.00
C487   C     0.75374   0.54009   0.02242   0.00000  Uiso   1.00
C488   C     0.75466   0.95992   0.31087   0.00000  Uiso   1.00
C489   C     0.88529   0.64967   0.12719   0.00000  Uiso   1.00
C490   C     0.61204   0.85370   0.20796   0.00000  Uiso   1.00
C491   C     0.60239   0.86952   0.12737   0.00000  Uiso   1.00
C492   C     0.93993   0.80823   0.16617   0.00000  Uiso   1.00
C493   C     0.89012   0.64040   0.20905   0.00000  Uiso   1.00
C494   C     0.59798   0.62526   0.20386   0.00000  Uiso   1.00
C495   C     0.89370   0.86407   0.12498   0.00000  Uiso   1.00
C496   C     0.88193   0.84587   0.20482   0.00000  Uiso   1.00
C497   C     0.61753   0.65325   0.12837   0.00000  Uiso   1.00
C498   C     0.63270   0.90297   0.12813   0.00000  Uiso   1.00
C499   C     0.85917   0.60720   0.20858   0.00000  Uiso   1.00
C500   C     0.85551   0.61574   0.12659   0.00000  Uiso   1.00
C501   C     0.64302   0.88681   0.20856   0.00000  Uiso   1.00
C502   C     0.85140   0.87921   0.20559   0.00000  Uiso   1.00
C503   C     0.93980   0.69190   0.16713   0.00000  Uiso   1.00
C504   C     0.64867   0.62032   0.12754   0.00000  Uiso   1.00
C505   C     0.62952   0.59284   0.20331   0.00000  Uiso   1.00
C506   C     0.86274   0.89727   0.12565   0.00000  Uiso   1.00
C507   C     0.59200   0.84412   0.16693   0.00000  Uiso   1.00
C508   C     0.90462   0.66041   0.16800   0.00000  Uiso   1.00
C509   C     0.90477   0.83972   0.16516   0.00000  Uiso   1.00
C510   C     0.59229   0.65634   0.16691   0.00000  Uiso   1.00
C511   C     0.84206   0.59404   0.16700   0.00000  Uiso   1.00
C512   C     0.65481   0.91019   0.16811   0.00000  Uiso   1.00
C513   C     0.65572   0.59097   0.16554   0.00000  Uiso   1.00
C514   C     0.55918   0.80950   0.16644   0.00000  Uiso   1.00
C515   C     0.84193   0.90579   0.16644   0.00000  Uiso   1.00
C516   C     0.98016   0.66385   0.04584   0.00000  Uiso   1.00
C517   C     0.50966   0.63509   0.07702   0.00000  Uiso   1.00
C518   C     0.50489   0.58308   0.07198   0.00000  Uiso   1.00
C519   C     0.97403   0.83409   0.28861   0.00000  Uiso   1.00
C520   C     0.99954   0.86713   0.25721   0.00000  Uiso   1.00
C521   C     0.97912   0.91472   0.25228   0.00000  Uiso   1.00
C522   C     0.52610   0.83238   0.03891   0.00000  Uiso   1.00
C523   C     0.99954   0.86553   0.06692   0.00000  Uiso   1.00
C524   C     0.51164   0.91617   0.05889   0.00000  Uiso   1.00
C525   C     0.80915   0.94047   0.16691   0.00000  Uiso   1.00
C526   C     0.52525   0.66639   0.29297   0.00000  Uiso   1.00
C527   C     0.99617   0.63627   0.26457   0.00000  Uiso   1.00
C528   C     0.50171   0.58438   0.27408   0.00000  Uiso   1.00
C529   C     0.72487   0.91583   0.04459   0.00000  Uiso   1.00
C530   C     0.75025   0.88274   0.07622   0.00000  Uiso   1.00
C531   C     0.72966   0.83536   0.08148   0.00000  Uiso   1.00
C532   C     0.72286   0.58353   0.28868   0.00000  Uiso   1.00
C533   C     0.74821   0.61730   0.25786   0.00000  Uiso   1.00
C534   C     0.72730   0.66466   0.25365   0.00000  Uiso   1.00
C535   C     0.77771   0.58143   0.03798   0.00000  Uiso   1.00
C536   C     0.69029   0.55872   0.16623   0.00000  Uiso   1.00
C537   C     0.75260   0.61639   0.06530   0.00000  Uiso   1.00
C538   C     0.76842   0.66582   0.05816   0.00000  Uiso   1.00
C539   C     0.77659   0.91745   0.29420   0.00000  Uiso   1.00
C540   C     0.74950   0.88496   0.26609   0.00000  Uiso   1.00
C541   C     0.76021   0.83395   0.27474   0.00000  Uiso   1.00
C542   C     0.68992   0.94175   0.16715   0.00000  Uiso   1.00
C543   C     0.80923   0.55944   0.16647   0.00000  Uiso   1.00
C544   C     0.99722   0.70943   0.02544   0.00000  Uiso   1.00
Cu545  Cu    0.50000   0.75000   0.21355   0.00000  Uiso   1.00
Cu546  Cu    0.50000   0.75000   0.11978   0.00000  Uiso   1.00
Cu547  Cu    0.75000   0.50000   0.21355   0.00000  Uiso   1.00
Cu548  Cu    0.75000   0.50000   0.11978   0.00000  Uiso   1.00
H549   H     0.89250   0.66765   0.09554   0.00000  Uiso   1.00
H550   H     0.84895   0.59182   0.24075   0.00000  Uiso   1.00
H551   H     0.84319   0.60742   0.09429   0.00000  Uiso   1.00
H552   H     0.65741   0.89396   0.24060   0.00000  Uiso   1.00
H553   H     0.83514   0.88307   0.23671   0.00000  Uiso   1.00
H554   H     0.66724   0.61830   0.09744   0.00000  Uiso   1.00
H555   H     0.63283   0.56876   0.23207   0.00000  Uiso   1.00
H556   H     0.85535   0.91630   0.09429   0.00000  Uiso   1.00
H557   H     0.97164   0.57307   0.07280   0.00000  Uiso   1.00
H558   H     0.51937   0.57239   0.03984   0.00000  Uiso   1.00
H559   H     0.52117   0.56447   0.10049   0.00000  Uiso   1.00
H560   H     0.60404   0.83555   0.23959   0.00000  Uiso   1.00
H561   H     0.54248   0.64423   0.06973   0.00000  Uiso   1.00
H562   H     0.50227   0.64133   0.11301   0.00000  Uiso   1.00
H563   H     0.95002   0.66965   0.06117   0.00000  Uiso   1.00
H564   H     0.96991   0.64159   0.01816   0.00000  Uiso   1.00
H565   H     0.94762   0.91167   0.23732   0.00000  Uiso   1.00
H566   H     0.97651   0.93108   0.28568   0.00000  Uiso   1.00
H567   H     0.99807   0.93747   0.22933   0.00000  Uiso   1.00
H568   H     0.53166   0.87107   0.26996   0.00000  Uiso   1.00
H569   H     0.50126   0.85476   0.22244   0.00000  Uiso   1.00
H570   H     0.94386   0.82519   0.27438   0.00000  Uiso   1.00
H571   H     0.58704   0.86462   0.09584   0.00000  Uiso   1.00
H572   H     0.96334   0.85493   0.31712   0.00000  Uiso   1.00
H573   H     0.54428   0.92216   0.06888   0.00000  Uiso   1.00
H574   H     0.50781   0.92671   0.02254   0.00000  Uiso   1.00
H575   H     0.99132   0.93832   0.07951   0.00000  Uiso   1.00
H576   H     0.96665   0.86213   0.05744   0.00000  Uiso   1.00
H577   H     0.50226   0.85772   0.10380   0.00000  Uiso   1.00
H578   H     0.55492   0.82033   0.05496   0.00000  Uiso   1.00
H579   H     0.53890   0.85231   0.00936   0.00000  Uiso   1.00
H580   H     0.53500   0.57473   0.27656   0.00000  Uiso   1.00
H581   H     0.98557   0.57369   0.30598   0.00000  Uiso   1.00
H582   H     0.90220   0.65038   0.24145   0.00000  Uiso   1.00
H583   H     0.98743   0.56510   0.24606   0.00000  Uiso   1.00
H584   H     0.96357   0.64493   0.27216   0.00000  Uiso   1.00
H585   H     0.50165   0.64238   0.22781   0.00000  Uiso   1.00
H586   H     0.55472   0.67600   0.27670   0.00000  Uiso   1.00
H587   H     0.53744   0.64467   0.32179   0.00000  Uiso   1.00
H588   H     0.69822   0.83881   0.09645   0.00000  Uiso   1.00
H589   H     0.72688   0.81876   0.04825   0.00000  Uiso   1.00
H590   H     0.74859   0.81259   0.10457   0.00000  Uiso   1.00
H591   H     0.78235   0.87845   0.06354   0.00000  Uiso   1.00
H592   H     0.75189   0.89530   0.11090   0.00000  Uiso   1.00
H593   H     0.57772   0.62481   0.23265   0.00000  Uiso   1.00
H594   H     0.69470   0.92493   0.05863   0.00000  Uiso   1.00
H595   H     0.71433   0.89500   0.01602   0.00000  Uiso   1.00
H596   H     0.69575   0.66141   0.23885   0.00000  Uiso   1.00
H597   H     0.72481   0.68042   0.28741   0.00000  Uiso   1.00
H598   H     0.74593   0.68794   0.23089   0.00000  Uiso   1.00
H599   H     0.78012   0.62165   0.27093   0.00000  Uiso   1.00
H600   H     0.75060   0.60527   0.22296   0.00000  Uiso   1.00
H601   H     0.69268   0.57441   0.27415   0.00000  Uiso   1.00
H602   H     0.71169   0.60379   0.31729   0.00000  Uiso   1.00
H603   H     0.80118   0.66867   0.06911   0.00000  Uiso   1.00
H604   H     0.90866   0.85764   0.09313   0.00000  Uiso   1.00
H605   H     0.76605   0.67698   0.02175   0.00000  Uiso   1.00
H606   H     0.74933   0.68951   0.07848   0.00000  Uiso   1.00
H607   H     0.71997   0.61602   0.05438   0.00000  Uiso   1.00
H608   H     0.75327   0.60791   0.10217   0.00000  Uiso   1.00
H609   H     0.80588   0.56815   0.05438   0.00000  Uiso   1.00
H610   H     0.79132   0.60005   0.00811   0.00000  Uiso   1.00
H611   H     0.79281   0.82665   0.26541   0.00000  Uiso   1.00
H612   H     0.75567   0.82388   0.31106   0.00000  Uiso   1.00
H613   H     0.73959   0.81238   0.25395   0.00000  Uiso   1.00
H614   H     0.71658   0.88970   0.27494   0.00000  Uiso   1.00
H615   H     0.88702   0.82461   0.23519   0.00000  Uiso   1.00
H616   H     0.75283   0.89223   0.22920   0.00000  Uiso   1.00
H617   H     0.80550   0.92912   0.27816   0.00000  Uiso   1.00
H618   H     0.78927   0.89714   0.32365   0.00000  Uiso   1.00
H619   H     0.61336   0.67635   0.09892   0.00000  Uiso   1.00
H620   H     0.63822   0.92344   0.09740   0.00000  Uiso   1.00
N621   N     0.50000   0.75000   0.28402   0.00000  Uiso   1.00
N622   N     0.50000   0.75000   0.04931   0.00000  Uiso   1.00
N623   N     0.75000   0.50000   0.28402   0.00000  Uiso   1.00
N624   N     0.75000   0.50000   0.04931   0.00000  Uiso   1.00
O625   O     0.54509   0.70491   0.20625   0.00000  Uiso   1.00
O626   O     0.70492   0.54509   0.12709   0.00000  Uiso   1.00
O627   O     0.70492   0.54509   0.20625   0.00000  Uiso   1.00
O628   O     0.79509   0.95491   0.12709   0.00000  Uiso   1.00
O629   O     0.70492   0.95491   0.12709   0.00000  Uiso   1.00
O630   O     0.79509   0.54509   0.20625   0.00000  Uiso   1.00
O631   O     0.79509   0.54509   0.12709   0.00000  Uiso   1.00
O632   O     0.70492   0.95491   0.20625   0.00000  Uiso   1.00
O633   O     0.95492   0.79509   0.12709   0.00000  Uiso   1.00
O634   O     0.95492   0.79509   0.20625   0.00000  Uiso   1.00
O635   O     0.54509   0.70491   0.12709   0.00000  Uiso   1.00
O636   O     0.95492   0.70491   0.12709   0.00000  Uiso   1.00
O637   O     0.54509   0.79509   0.20625   0.00000  Uiso   1.00
O638   O     0.54509   0.79509   0.12709   0.00000  Uiso   1.00
O639   O     0.95492   0.70491   0.20625   0.00000  Uiso   1.00
O640   O     0.79509   0.95491   0.20625   0.00000  Uiso   1.00
C641   C     0.05913   0.19049   0.50034   0.00000  Uiso   1.00
C642   C     0.49543   0.29031   0.64126   0.00000  Uiso   1.00
C643   C     0.00374   0.29015   0.35586   0.00000  Uiso   1.00
C644   C     0.00522   0.20986   0.64405   0.00000  Uiso   1.00
C645   C     0.24623   0.45958   0.35880   0.00000  Uiso   1.00
C646   C     0.24500   0.04020   0.64124   0.00000  Uiso   1.00
C647   C     0.25374   0.04009   0.35576   0.00000  Uiso   1.00
C648   C     0.25466   0.45992   0.64420   0.00000  Uiso   1.00
C649   C     0.38529   0.14967   0.46052   0.00000  Uiso   1.00
C650   C     0.11204   0.35370   0.54130   0.00000  Uiso   1.00
C651   C     0.10239   0.36952   0.46071   0.00000  Uiso   1.00
C652   C     0.43993   0.30823   0.49950   0.00000  Uiso   1.00
C653   C     0.39012   0.14040   0.54238   0.00000  Uiso   1.00
C654   C     0.09798   0.12526   0.53720   0.00000  Uiso   1.00
C655   C     0.39370   0.36407   0.45832   0.00000  Uiso   1.00
C656   C     0.38193   0.34587   0.53815   0.00000  Uiso   1.00
C657   C     0.11753   0.15325   0.46170   0.00000  Uiso   1.00
C658   C     0.13270   0.40297   0.46146   0.00000  Uiso   1.00
C659   C     0.35917   0.10720   0.54191   0.00000  Uiso   1.00
C660   C     0.35551   0.11574   0.45992   0.00000  Uiso   1.00
C661   C     0.14302   0.38681   0.54189   0.00000  Uiso   1.00
C662   C     0.35140   0.37921   0.53892   0.00000  Uiso   1.00
C663   C     0.43980   0.19190   0.50046   0.00000  Uiso   1.00
C664   C     0.14867   0.12032   0.46088   0.00000  Uiso   1.00
C665   C     0.12952   0.09284   0.53665   0.00000  Uiso   1.00
C666   C     0.36274   0.39727   0.45898   0.00000  Uiso   1.00
C667   C     0.09200   0.34412   0.50026   0.00000  Uiso   1.00
C668   C     0.40462   0.16041   0.50133   0.00000  Uiso   1.00
C669   C     0.40477   0.33972   0.49849   0.00000  Uiso   1.00
C670   C     0.09229   0.15634   0.50025   0.00000  Uiso   1.00
C671   C     0.34206   0.09404   0.50033   0.00000  Uiso   1.00
C672   C     0.15481   0.41019   0.50145   0.00000  Uiso   1.00
C673   C     0.15572   0.09097   0.49887   0.00000  Uiso   1.00
C674   C     0.05918   0.30950   0.49978   0.00000  Uiso   1.00
C675   C     0.34193   0.40579   0.49978   0.00000  Uiso   1.00
C676   C     0.48016   0.16385   0.37917   0.00000  Uiso   1.00
C677   C     0.00966   0.13509   0.41036   0.00000  Uiso   1.00
C678   C     0.00489   0.08308   0.40531   0.00000  Uiso   1.00
C679   C     0.47403   0.33409   0.62194   0.00000  Uiso   1.00
C680   C     0.49954   0.36713   0.59054   0.00000  Uiso   1.00
C681   C     0.47912   0.41472   0.58561   0.00000  Uiso   1.00
C682   C     0.02610   0.33238   0.37224   0.00000  Uiso   1.00
C683   C     0.49954   0.36553   0.40025   0.00000  Uiso   1.00
C684   C     0.01164   0.41617   0.39222   0.00000  Uiso   1.00
C685   C     0.30915   0.44047   0.50025   0.00000  Uiso   1.00
C686   C     0.02525   0.16639   0.62630   0.00000  Uiso   1.00
C687   C     0.49617   0.13627   0.59791   0.00000  Uiso   1.00
C688   C     0.00171   0.08438   0.60741   0.00000  Uiso   1.00
C689   C     0.22487   0.41583   0.37792   0.00000  Uiso   1.00
C690   C     0.25025   0.38274   0.40956   0.00000  Uiso   1.00
C691   C     0.22966   0.33536   0.41482   0.00000  Uiso   1.00
C692   C     0.22286   0.08353   0.62201   0.00000  Uiso   1.00
C693   C     0.24821   0.11730   0.59120   0.00000  Uiso   1.00
C694   C     0.22730   0.16466   0.58698   0.00000  Uiso   1.00
C695   C     0.27771   0.08143   0.37132   0.00000  Uiso   1.00
C696   C     0.19029   0.05872   0.49956   0.00000  Uiso   1.00
C697   C     0.25260   0.11639   0.39863   0.00000  Uiso   1.00
C698   C     0.26842   0.16582   0.39149   0.00000  Uiso   1.00
C699   C     0.27659   0.41745   0.62754   0.00000  Uiso   1.00
C700   C     0.24950   0.38496   0.59942   0.00000  Uiso   1.00
C701   C     0.26021   0.33395   0.60807   0.00000  Uiso   1.00
C702   C     0.18992   0.44175   0.50048   0.00000  Uiso   1.00
C703   C     0.30923   0.05944   0.49980   0.00000  Uiso   1.00
C704   C     0.49722   0.20943   0.35877   0.00000  Uiso   1.00
Cu705  Cu    0.00000   0.25000   0.54689   0.00000  Uiso   1.00
Cu706  Cu    0.00000   0.25000   0.45311   0.00000  Uiso   1.00
Cu707  Cu    0.25000   0.00000   0.54689   0.00000  Uiso   1.00
Cu708  Cu    0.25000   0.00000   0.45311   0.00000  Uiso   1.00
H709   H     0.39250   0.16765   0.42887   0.00000  Uiso   1.00
H710   H     0.34895   0.09182   0.57408   0.00000  Uiso   1.00
H711   H     0.34319   0.10742   0.42762   0.00000  Uiso   1.00
H712   H     0.15741   0.39396   0.57393   0.00000  Uiso   1.00
H713   H     0.33514   0.38307   0.57004   0.00000  Uiso   1.00
H714   H     0.16724   0.11830   0.43077   0.00000  Uiso   1.00
H715   H     0.13283   0.06876   0.56540   0.00000  Uiso   1.00
H716   H     0.35535   0.41630   0.42762   0.00000  Uiso   1.00
H717   H     0.47164   0.07307   0.40613   0.00000  Uiso   1.00
H718   H     0.01937   0.07239   0.37317   0.00000  Uiso   1.00
H719   H     0.02117   0.06447   0.43382   0.00000  Uiso   1.00
H720   H     0.10404   0.33555   0.57292   0.00000  Uiso   1.00
H721   H     0.04248   0.14423   0.40306   0.00000  Uiso   1.00
H722   H     0.00227   0.14133   0.44634   0.00000  Uiso   1.00
H723   H     0.45002   0.16965   0.39451   0.00000  Uiso   1.00
H724   H     0.46991   0.14159   0.35150   0.00000  Uiso   1.00
H725   H     0.44762   0.41167   0.57065   0.00000  Uiso   1.00
H726   H     0.47651   0.43108   0.61902   0.00000  Uiso   1.00
H727   H     0.49807   0.43747   0.56267   0.00000  Uiso   1.00
H728   H     0.03166   0.37107   0.60329   0.00000  Uiso   1.00
H729   H     0.00126   0.35476   0.55578   0.00000  Uiso   1.00
H730   H     0.44386   0.32519   0.60771   0.00000  Uiso   1.00
H731   H     0.08704   0.36462   0.42918   0.00000  Uiso   1.00
H732   H     0.46334   0.35493   0.65045   0.00000  Uiso   1.00
H733   H     0.04428   0.42216   0.40222   0.00000  Uiso   1.00
H734   H     0.00781   0.42671   0.35588   0.00000  Uiso   1.00
H735   H     0.49132   0.43832   0.41284   0.00000  Uiso   1.00
H736   H     0.46665   0.36213   0.39077   0.00000  Uiso   1.00
H737   H     0.00226   0.35772   0.43713   0.00000  Uiso   1.00
H738   H     0.05492   0.32033   0.38829   0.00000  Uiso   1.00
H739   H     0.03890   0.35231   0.34270   0.00000  Uiso   1.00
H740   H     0.03500   0.07473   0.60990   0.00000  Uiso   1.00
H741   H     0.48557   0.07369   0.63931   0.00000  Uiso   1.00
H742   H     0.40220   0.15038   0.57479   0.00000  Uiso   1.00
H743   H     0.48743   0.06510   0.57940   0.00000  Uiso   1.00
H744   H     0.46357   0.14493   0.60549   0.00000  Uiso   1.00
H745   H     0.00165   0.14238   0.56114   0.00000  Uiso   1.00
H746   H     0.05472   0.17600   0.61004   0.00000  Uiso   1.00
H747   H     0.03744   0.14467   0.65512   0.00000  Uiso   1.00
H748   H     0.19822   0.33881   0.42979   0.00000  Uiso   1.00
H749   H     0.22688   0.31876   0.38158   0.00000  Uiso   1.00
H750   H     0.24859   0.31259   0.43790   0.00000  Uiso   1.00
H751   H     0.28235   0.37845   0.39687   0.00000  Uiso   1.00
H752   H     0.25189   0.39530   0.44424   0.00000  Uiso   1.00
H753   H     0.07772   0.12481   0.56599   0.00000  Uiso   1.00
H754   H     0.19470   0.42493   0.39196   0.00000  Uiso   1.00
H755   H     0.21433   0.39500   0.34935   0.00000  Uiso   1.00
H756   H     0.19575   0.16141   0.57219   0.00000  Uiso   1.00
H757   H     0.22481   0.18042   0.62075   0.00000  Uiso   1.00
H758   H     0.24593   0.18794   0.56423   0.00000  Uiso   1.00
H759   H     0.28012   0.12165   0.60427   0.00000  Uiso   1.00
H760   H     0.25060   0.10527   0.55630   0.00000  Uiso   1.00
H761   H     0.19268   0.07441   0.60748   0.00000  Uiso   1.00
H762   H     0.21169   0.10379   0.65062   0.00000  Uiso   1.00
H763   H     0.30118   0.16867   0.40244   0.00000  Uiso   1.00
H764   H     0.40866   0.35764   0.42646   0.00000  Uiso   1.00
H765   H     0.26605   0.17698   0.35508   0.00000  Uiso   1.00
H766   H     0.24933   0.18951   0.41181   0.00000  Uiso   1.00
H767   H     0.21997   0.11602   0.38771   0.00000  Uiso   1.00
H768   H     0.25327   0.10791   0.43550   0.00000  Uiso   1.00
H769   H     0.30588   0.06815   0.38771   0.00000  Uiso   1.00
H770   H     0.29132   0.10005   0.34145   0.00000  Uiso   1.00
H771   H     0.29281   0.32665   0.59874   0.00000  Uiso   1.00
H772   H     0.25567   0.32388   0.64439   0.00000  Uiso   1.00
H773   H     0.23959   0.31238   0.58728   0.00000  Uiso   1.00
H774   H     0.21658   0.38970   0.60828   0.00000  Uiso   1.00
H775   H     0.38702   0.32461   0.56852   0.00000  Uiso   1.00
H776   H     0.25283   0.39223   0.56253   0.00000  Uiso   1.00
H777   H     0.30550   0.42912   0.61149   0.00000  Uiso   1.00
H778   H     0.28927   0.39714   0.65698   0.00000  Uiso   1.00
H779   H     0.11336   0.17635   0.43226   0.00000  Uiso   1.00
H780   H     0.13822   0.42344   0.43074   0.00000  Uiso   1.00
N781   N     0.00000   0.25000   0.61736   0.00000  Uiso   1.00
N782   N     0.00000   0.25000   0.38264   0.00000  Uiso   1.00
N783   N     0.25000   0.00000   0.61736   0.00000  Uiso   1.00
N784   N     0.25000   0.00000   0.38264   0.00000  Uiso   1.00
O785   O     0.04509   0.20491   0.53958   0.00000  Uiso   1.00
O786   O     0.20492   0.04509   0.46042   0.00000  Uiso   1.00
O787   O     0.20492   0.04509   0.53958   0.00000  Uiso   1.00
O788   O     0.29509   0.45491   0.46042   0.00000  Uiso   1.00
O789   O     0.20492   0.45491   0.46042   0.00000  Uiso   1.00
O790   O     0.29509   0.04509   0.53958   0.00000  Uiso   1.00
O791   O     0.29509   0.04509   0.46042   0.00000  Uiso   1.00
O792   O     0.20492   0.45491   0.53958   0.00000  Uiso   1.00
O793   O     0.45492   0.29509   0.46042   0.00000  Uiso   1.00
O794   O     0.45492   0.29509   0.53958   0.00000  Uiso   1.00
O795   O     0.04509   0.20491   0.46042   0.00000  Uiso   1.00
O796   O     0.45492   0.20491   0.46042   0.00000  Uiso   1.00
O797   O     0.04509   0.29509   0.53958   0.00000  Uiso   1.00
O798   O     0.04509   0.29509   0.46042   0.00000  Uiso   1.00
O799   O     0.45492   0.20491   0.53958   0.00000  Uiso   1.00
O800   O     0.29509   0.45491   0.53958   0.00000  Uiso   1.00
C801   C     0.55913   0.19049   0.50034   0.00000  Uiso   1.00
C802   C     0.99543   0.29031   0.64126   0.00000  Uiso   1.00
C803   C     0.50374   0.29015   0.35586   0.00000  Uiso   1.00
C804   C     0.50522   0.20986   0.64405   0.00000  Uiso   1.00
C805   C     0.74623   0.45958   0.35880   0.00000  Uiso   1.00
C806   C     0.74500   0.04020   0.64124   0.00000  Uiso   1.00
C807   C     0.75374   0.04009   0.35576   0.00000  Uiso   1.00
C808   C     0.75466   0.45992   0.64420   0.00000  Uiso   1.00
C809   C     0.88529   0.14967   0.46052   0.00000  Uiso   1.00
C810   C     0.61204   0.35370   0.54130   0.00000  Uiso   1.00
C811   C     0.60239   0.36952   0.46071   0.00000  Uiso   1.00
C812   C     0.93993   0.30823   0.49950   0.00000  Uiso   1.00
C813   C     0.89012   0.14040   0.54238   0.00000  Uiso   1.00
C814   C     0.59798   0.12526   0.53720   0.00000  Uiso   1.00
C815   C     0.89370   0.36407   0.45832   0.00000  Uiso   1.00
C816   C     0.88193   0.34587   0.53815   0.00000  Uiso   1.00
C817   C     0.61753   0.15325   0.46170   0.00000  Uiso   1.00
C818   C     0.63270   0.40297   0.46146   0.00000  Uiso   1.00
C819   C     0.85917   0.10720   0.54191   0.00000  Uiso   1.00
C820   C     0.85551   0.11574   0.45992   0.00000  Uiso   1.00
C821   C     0.64302   0.38681   0.54189   0.00000  Uiso   1.00
C822   C     0.85140   0.37921   0.53892   0.00000  Uiso   1.00
C823   C     0.93980   0.19190   0.50046   0.00000  Uiso   1.00
C824   C     0.64867   0.12032   0.46088   0.00000  Uiso   1.00
C825   C     0.62952   0.09284   0.53665   0.00000  Uiso   1.00
C826   C     0.86274   0.39727   0.45898   0.00000  Uiso   1.00
C827   C     0.59200   0.34412   0.50026   0.00000  Uiso   1.00
C828   C     0.90462   0.16041   0.50133   0.00000  Uiso   1.00
C829   C     0.90477   0.33972   0.49849   0.00000  Uiso   1.00
C830   C     0.59229   0.15634   0.50025   0.00000  Uiso   1.00
C831   C     0.84206   0.09404   0.50033   0.00000  Uiso   1.00
C832   C     0.65481   0.41019   0.50145   0.00000  Uiso   1.00
C833   C     0.65572   0.09097   0.49887   0.00000  Uiso   1.00
C834   C     0.55918   0.30950   0.49978   0.00000  Uiso   1.00
C835   C     0.84193   0.40579   0.49978   0.00000  Uiso   1.00
C836   C     0.98016   0.16385   0.37917   0.00000  Uiso   1.00
C837   C     0.50966   0.13509   0.41036   0.00000  Uiso   1.00
C838   C     0.50489   0.08308   0.40531   0.00000  Uiso   1.00
C839   C     0.97403   0.33409   0.62194   0.00000  Uiso   1.00
C840   C     0.99954   0.36713   0.59054   0.00000  Uiso   1.00
C841   C     0.97912   0.41472   0.58561   0.00000  Uiso   1.00
C842   C     0.52610   0.33238   0.37224   0.00000  Uiso   1.00
C843   C     0.99954   0.36553   0.40025   0.00000  Uiso   1.00
C844   C     0.51164   0.41617   0.39222   0.00000  Uiso   1.00
C845   C     0.80915   0.44047   0.50025   0.00000  Uiso   1.00
C846   C     0.52525   0.16639   0.62630   0.00000  Uiso   1.00
C847   C     0.99617   0.13627   0.59791   0.00000  Uiso   1.00
C848   C     0.50171   0.08438   0.60741   0.00000  Uiso   1.00
C849   C     0.72487   0.41583   0.37792   0.00000  Uiso   1.00
C850   C     0.75025   0.38274   0.40956   0.00000  Uiso   1.00
C851   C     0.72966   0.33536   0.41482   0.00000  Uiso   1.00
C852   C     0.72286   0.08353   0.62201   0.00000  Uiso   1.00
C853   C     0.74821   0.11730   0.59120   0.00000  Uiso   1.00
C854   C     0.72730   0.16466   0.58698   0.00000  Uiso   1.00
C855   C     0.77771   0.08143   0.37132   0.00000  Uiso   1.00
C856   C     0.69029   0.05872   0.49956   0.00000  Uiso   1.00
C857   C     0.75260   0.11639   0.39863   0.00000  Uiso   1.00
C858   C     0.76842   0.16582   0.39149   0.00000  Uiso   1.00
C859   C     0.77659   0.41745   0.62754   0.00000  Uiso   1.00
C860   C     0.74950   0.38496   0.59942   0.00000  Uiso   1.00
C861   C     0.76021   0.33395   0.60807   0.00000  Uiso   1.00
C862   C     0.68992   0.44175   0.50048   0.00000  Uiso   1.00
C863   C     0.80923   0.05944   0.49980   0.00000  Uiso   1.00
C864   C     0.99722   0.20943   0.35877   0.00000  Uiso   1.00
Cu865  Cu    0.50000   0.25000   0.54689   0.00000  Uiso   1.00
Cu866  Cu    0.50000   0.25000   0.45311   0.00000  Uiso   1.00
Cu867  Cu    0.75000   0.00000   0.54689   0.00000  Uiso   1.00
Cu868  Cu    0.75000   0.00000   0.45311   0.00000  Uiso   1.00
H869   H     0.89250   0.16765   0.42887   0.00000  Uiso   1.00
H870   H     0.84895   0.09182   0.57408   0.00000  Uiso   1.00
H871   H     0.84319   0.10742   0.42762   0.00000  Uiso   1.00
H872   H     0.65741   0.39396   0.57393   0.00000  Uiso   1.00
H873   H     0.83514   0.38307   0.57004   0.00000  Uiso   1.00
H874   H     0.66724   0.11830   0.43077   0.00000  Uiso   1.00
H875   H     0.63283   0.06876   0.56540   0.00000  Uiso   1.00
H876   H     0.85535   0.41630   0.42762   0.00000  Uiso   1.00
H877   H     0.97164   0.07307   0.40613   0.00000  Uiso   1.00
H878   H     0.51937   0.07239   0.37317   0.00000  Uiso   1.00
H879   H     0.52117   0.06447   0.43382   0.00000  Uiso   1.00
H880   H     0.60404   0.33555   0.57292   0.00000  Uiso   1.00
H881   H     0.54248   0.14423   0.40306   0.00000  Uiso   1.00
H882   H     0.50227   0.14133   0.44634   0.00000  Uiso   1.00
H883   H     0.95002   0.16965   0.39451   0.00000  Uiso   1.00
H884   H     0.96991   0.14159   0.35150   0.00000  Uiso   1.00
H885   H     0.94762   0.41167   0.57065   0.00000  Uiso   1.00
H886   H     0.97651   0.43108   0.61902   0.00000  Uiso   1.00
H887   H     0.99807   0.43747   0.56267   0.00000  Uiso   1.00
H888   H     0.53166   0.37107   0.60329   0.00000  Uiso   1.00
H889   H     0.50126   0.35476   0.55578   0.00000  Uiso   1.00
H890   H     0.94386   0.32519   0.60771   0.00000  Uiso   1.00
H891   H     0.58704   0.36462   0.42918   0.00000  Uiso   1.00
H892   H     0.96334   0.35493   0.65045   0.00000  Uiso   1.00
H893   H     0.54428   0.42216   0.40222   0.00000  Uiso   1.00
H894   H     0.50781   0.42671   0.35588   0.00000  Uiso   1.00
H895   H     0.99132   0.43832   0.41284   0.00000  Uiso   1.00
H896   H     0.96665   0.36213   0.39077   0.00000  Uiso   1.00
H897   H     0.50226   0.35772   0.43713   0.00000  Uiso   1.00
H898   H     0.55492   0.32033   0.38829   0.00000  Uiso   1.00
H899   H     0.53890   0.35231   0.34270   0.00000  Uiso   1.00
H900   H     0.53500   0.07473   0.60990   0.00000  Uiso   1.00
H901   H     0.98557   0.07369   0.63931   0.00000  Uiso   1.00
H902   H     0.90220   0.15038   0.57479   0.00000  Uiso   1.00
H903   H     0.98743   0.06510   0.57940   0.00000  Uiso   1.00
H904   H     0.96357   0.14493   0.60549   0.00000  Uiso   1.00
H905   H     0.50165   0.14238   0.56114   0.00000  Uiso   1.00
H906   H     0.55472   0.17600   0.61004   0.00000  Uiso   1.00
H907   H     0.53744   0.14467   0.65512   0.00000  Uiso   1.00
H908   H     0.69822   0.33881   0.42979   0.00000  Uiso   1.00
H909   H     0.72688   0.31876   0.38158   0.00000  Uiso   1.00
H910   H     0.74859   0.31259   0.43790   0.00000  Uiso   1.00
H911   H     0.78235   0.37845   0.39687   0.00000  Uiso   1.00
H912   H     0.75189   0.39530   0.44424   0.00000  Uiso   1.00
H913   H     0.57772   0.12481   0.56599   0.00000  Uiso   1.00
H914   H     0.69470   0.42493   0.39196   0.00000  Uiso   1.00
H915   H     0.71433   0.39500   0.34935   0.00000  Uiso   1.00
H916   H     0.69575   0.16141   0.57219   0.00000  Uiso   1.00
H917   H     0.72481   0.18042   0.62075   0.00000  Uiso   1.00
H918   H     0.74593   0.18794   0.56423   0.00000  Uiso   1.00
H919   H     0.78012   0.12165   0.60427   0.00000  Uiso   1.00
H920   H     0.75060   0.10527   0.55630   0.00000  Uiso   1.00
H921   H     0.69268   0.07441   0.60748   0.00000  Uiso   1.00
H922   H     0.71169   0.10379   0.65062   0.00000  Uiso   1.00
H923   H     0.80118   0.16867   0.40244   0.00000  Uiso   1.00
H924   H     0.90866   0.35764   0.42646   0.00000  Uiso   1.00
H925   H     0.76605   0.17698   0.35508   0.00000  Uiso   1.00
H926   H     0.74933   0.18951   0.41181   0.00000  Uiso   1.00
H927   H     0.71997   0.11602   0.38771   0.00000  Uiso   1.00
H928   H     0.75327   0.10791   0.43550   0.00000  Uiso   1.00
H929   H     0.80588   0.06815   0.38771   0.00000  Uiso   1.00
H930   H     0.79132   0.10005   0.34145   0.00000  Uiso   1.00
H931   H     0.79281   0.32665   0.59874   0.00000  Uiso   1.00
H932   H     0.75567   0.32388   0.64439   0.00000  Uiso   1.00
H933   H     0.73959   0.31238   0.58728   0.00000  Uiso   1.00
H934   H     0.71658   0.38970   0.60828   0.00000  Uiso   1.00
H935   H     0.88702   0.32461   0.56852   0.00000  Uiso   1.00
H936   H     0.75283   0.39223   0.56253   0.00000  Uiso   1.00
H937   H     0.80550   0.42912   0.61149   0.00000  Uiso   1.00
H938   H     0.78927   0.39714   0.65698   0.00000  Uiso   1.00
H939   H     0.61336   0.17635   0.43226   0.00000  Uiso   1.00
H940   H     0.63822   0.42344   0.43074   0.00000  Uiso   1.00
N941   N     0.50000   0.25000   0.61736   0.00000  Uiso   1.00
N942   N     0.50000   0.25000   0.38264   0.00000  Uiso   1.00
N943   N     0.75000   0.00000   0.61736   0.00000  Uiso   1.00
N944   N     0.75000   0.00000   0.38264   0.00000  Uiso   1.00
O945   O     0.54509   0.20491   0.53958   0.00000  Uiso   1.00
O946   O     0.70492   0.04509   0.46042   0.00000  Uiso   1.00
O947   O     0.70492   0.04509   0.53958   0.00000  Uiso   1.00
O948   O     0.79509   0.45491   0.46042   0.00000  Uiso   1.00
O949   O     0.70492   0.45491   0.46042   0.00000  Uiso   1.00
O950   O     0.79509   0.04509   0.53958   0.00000  Uiso   1.00
O951   O     0.79509   0.04509   0.46042   0.00000  Uiso   1.00
O952   O     0.70492   0.45491   0.53958   0.00000  Uiso   1.00
O953   O     0.95492   0.29509   0.46042   0.00000  Uiso   1.00
O954   O     0.95492   0.29509   0.53958   0.00000  Uiso   1.00
O955   O     0.54509   0.20491   0.46042   0.00000  Uiso   1.00
O956   O     0.95492   0.20491   0.46042   0.00000  Uiso   1.00
O957   O     0.54509   0.29509   0.53958   0.00000  Uiso   1.00
O958   O     0.54509   0.29509   0.46042   0.00000  Uiso   1.00
O959   O     0.95492   0.20491   0.53958   0.00000  Uiso   1.00
O960   O     0.79509   0.45491   0.53958   0.00000  Uiso   1.00
C961   C     0.05913   0.69049   0.50034   0.00000  Uiso   1.00
C962   C     0.49543   0.79031   0.64126   0.00000  Uiso   1.00
C963   C     0.00374   0.79015   0.35586   0.00000  Uiso   1.00
C964   C     0.00522   0.70986   0.64405   0.00000  Uiso   1.00
C965   C     0.24623   0.95958   0.35880   0.00000  Uiso   1.00
C966   C     0.24500   0.54020   0.64124   0.00000  Uiso   1.00
C967   C     0.25374   0.54009   0.35576   0.00000  Uiso   1.00
C968   C     0.25466   0.95992   0.64420   0.00000  Uiso   1.00
C969   C     0.38529   0.64967   0.46052   0.00000  Uiso   1.00
C970   C     0.11204   0.85370   0.54130   0.00000  Uiso   1.00
C971   C     0.10239   0.86952   0.46071   0.00000  Uiso   1.00
C972   C     0.43993   0.80823   0.49950   0.00000  Uiso   1.00
C973   C     0.39012   0.64040   0.54238   0.00000  Uiso   1.00
C974   C     0.09798   0.62526   0.53720   0.00000  Uiso   1.00
C975   C     0.39370   0.86407   0.45832   0.00000  Uiso   1.00
C976   C     0.38193   0.84587   0.53815   0.00000  Uiso   1.00
C977   C     0.11753   0.65325   0.46170   0.00000  Uiso   1.00
C978   C     0.13270   0.90297   0.46146   0.00000  Uiso   1.00
C979   C     0.35917   0.60720   0.54191   0.00000  Uiso   1.00
C980   C     0.35551   0.61574   0.45992   0.00000  Uiso   1.00
C981   C     0.14302   0.88681   0.54189   0.00000  Uiso   1.00
C982   C     0.35140   0.87921   0.53892   0.00000  Uiso   1.00
C983   C     0.43980   0.69190   0.50046   0.00000  Uiso   1.00
C984   C     0.14867   0.62032   0.46088   0.00000  Uiso   1.00
C985   C     0.12952   0.59284   0.53665   0.00000  Uiso   1.00
C986   C     0.36274   0.89727   0.45898   0.00000  Uiso   1.00
C987   C     0.09200   0.84412   0.50026   0.00000  Uiso   1.00
C988   C     0.40462   0.66041   0.50133   0.00000  Uiso   1.00
C989   C     0.40477   0.83972   0.49849   0.00000  Uiso   1.00
C990   C     0.09229   0.65634   0.50025   0.00000  Uiso   1.00
C991   C     0.34206   0.59404   0.50033   0.00000  Uiso   1.00
C992   C     0.15481   0.91019   0.50145   0.00000  Uiso   1.00
C993   C     0.15572   0.59097   0.49887   0.00000  Uiso   1.00
C994   C     0.05918   0.80950   0.49978   0.00000  Uiso   1.00
C995   C     0.34193   0.90579   0.49978   0.00000  Uiso   1.00
C996   C     0.48016   0.66385   0.37917   0.00000  Uiso   1.00
C997   C     0.00966   0.63509   0.41036   0.00000  Uiso   1.00
C998   C     0.00489   0.58308   0.40531   0.00000  Uiso   1.00
C999   C     0.47403   0.83409   0.62194   0.00000  Uiso   1.00
C1000  C     0.49954   0.86713   0.59054   0.00000  Uiso   1.00
C1001  C     0.47912   0.91472   0.58561   0.00000  Uiso   1.00
C1002  C     0.02610   0.83238   0.37224   0.00000  Uiso   1.00
C1003  C     0.49954   0.86553   0.40025   0.00000  Uiso   1.00
C1004  C     0.01164   0.91617   0.39222   0.00000  Uiso   1.00
C1005  C     0.30915   0.94047   0.50025   0.00000  Uiso   1.00
C1006  C     0.02525   0.66639   0.62630   0.00000  Uiso   1.00
C1007  C     0.49617   0.63627   0.59791   0.00000  Uiso   1.00
C1008  C     0.00171   0.58438   0.60741   0.00000  Uiso   1.00
C1009  C     0.22487   0.91583   0.37792   0.00000  Uiso   1.00
C1010  C     0.25025   0.88274   0.40956   0.00000  Uiso   1.00
C1011  C     0.22966   0.83536   0.41482   0.00000  Uiso   1.00
C1012  C     0.22286   0.58353   0.62201   0.00000  Uiso   1.00
C1013  C     0.24821   0.61730   0.59120   0.00000  Uiso   1.00
C1014  C     0.22730   0.66466   0.58698   0.00000  Uiso   1.00
C1015  C     0.27771   0.58143   0.37132   0.00000  Uiso   1.00
C1016  C     0.19029   0.55872   0.49956   0.00000  Uiso   1.00
C1017  C     0.25260   0.61639   0.39863   0.00000  Uiso   1.00
C1018  C     0.26842   0.66582   0.39149   0.00000  Uiso   1.00
C1019  C     0.27659   0.91745   0.62754   0.00000  Uiso   1.00
C1020  C     0.24950   0.88496   0.59942   0.00000  Uiso   1.00
C1021  C     0.26021   0.83395   0.60807   0.00000  Uiso   1.00
C1022  C     0.18992   0.94175   0.50048   0.00000  Uiso   1.00
C1023  C     0.30923   0.55944   0.49980   0.00000  Uiso   1.00
C1024  C     0.49722   0.70943   0.35877   0.00000  Uiso   1.00
Cu1025 Cu    0.00000   0.75000   0.54689   0.00000  Uiso   1.00
Cu1026 Cu    0.00000   0.75000   0.45311   0.00000  Uiso   1.00
Cu1027 Cu    0.25000   0.50000   0.54689   0.00000  Uiso   1.00
Cu1028 Cu    0.25000   0.50000   0.45311   0.00000  Uiso   1.00
H1029  H     0.39250   0.66765   0.42887   0.00000  Uiso   1.00
H1030  H     0.34895   0.59182   0.57408   0.00000  Uiso   1.00
H1031  H     0.34319   0.60742   0.42762   0.00000  Uiso   1.00
H1032  H     0.15741   0.89396   0.57393   0.00000  Uiso   1.00
H1033  H     0.33514   0.88307   0.57004   0.00000  Uiso   1.00
H1034  H     0.16724   0.61830   0.43077   0.00000  Uiso   1.00
H1035  H     0.13283   0.56876   0.56540   0.00000  Uiso   1.00
H1036  H     0.35535   0.91630   0.42762   0.00000  Uiso   1.00
H1037  H     0.47164   0.57307   0.40613   0.00000  Uiso   1.00
H1038  H     0.01937   0.57239   0.37317   0.00000  Uiso   1.00
H1039  H     0.02117   0.56447   0.43382   0.00000  Uiso   1.00
H1040  H     0.10404   0.83555   0.57292   0.00000  Uiso   1.00
H1041  H     0.04248   0.64423   0.40306   0.00000  Uiso   1.00
H1042  H     0.00227   0.64133   0.44634   0.00000  Uiso   1.00
H1043  H     0.45002   0.66965   0.39451   0.00000  Uiso   1.00
H1044  H     0.46991   0.64159   0.35150   0.00000  Uiso   1.00
H1045  H     0.44762   0.91167   0.57065   0.00000  Uiso   1.00
H1046  H     0.47651   0.93108   0.61902   0.00000  Uiso   1.00
H1047  H     0.49807   0.93747   0.56267   0.00000  Uiso   1.00
H1048  H     0.03166   0.87107   0.60329   0.00000  Uiso   1.00
H1049  H     0.00126   0.85476   0.55578   0.00000  Uiso   1.00
H1050  H     0.44386   0.82519   0.60771   0.00000  Uiso   1.00
H1051  H     0.08704   0.86462   0.42918   0.00000  Uiso   1.00
H1052  H     0.46334   0.85493   0.65045   0.00000  Uiso   1.00
H1053  H     0.04428   0.92216   0.40222   0.00000  Uiso   1.00
H1054  H     0.00781   0.92671   0.35588   0.00000  Uiso   1.00
H1055  H     0.49132   0.93832   0.41284   0.00000  Uiso   1.00
H1056  H     0.46665   0.86213   0.39077   0.00000  Uiso   1.00
H1057  H     0.00226   0.85772   0.43713   0.00000  Uiso   1.00
H1058  H     0.05492   0.82033   0.38829   0.00000  Uiso   1.00
H1059  H     0.03890   0.85231   0.34270   0.00000  Uiso   1.00
H1060  H     0.03500   0.57473   0.60990   0.00000  Uiso   1.00
H1061  H     0.48557   0.57369   0.63931   0.00000  Uiso   1.00
H1062  H     0.40220   0.65038   0.57479   0.00000  Uiso   1.00
H1063  H     0.48743   0.56510   0.57940   0.00000  Uiso   1.00
H1064  H     0.46357   0.64493   0.60549   0.00000  Uiso   1.00
H1065  H     0.00165   0.64238   0.56114   0.00000  Uiso   1.00
H1066  H     0.05472   0.67600   0.61004   0.00000  Uiso   1.00
H1067  H     0.03744   0.64467   0.65512   0.00000  Uiso   1.00
H1068  H     0.19822   0.83881   0.42979   0.00000  Uiso   1.00
H1069  H     0.22688   0.81876   0.38158   0.00000  Uiso   1.00
H1070  H     0.24859   0.81259   0.43790   0.00000  Uiso   1.00
H1071  H     0.28235   0.87845   0.39687   0.00000  Uiso   1.00
H1072  H     0.25189   0.89530   0.44424   0.00000  Uiso   1.00
H1073  H     0.07772   0.62481   0.56599   0.00000  Uiso   1.00
H1074  H     0.19470   0.92493   0.39196   0.00000  Uiso   1.00
H1075  H     0.21433   0.89500   0.34935   0.00000  Uiso   1.00
H1076  H     0.19575   0.66141   0.57219   0.00000  Uiso   1.00
H1077  H     0.22481   0.68042   0.62075   0.00000  Uiso   1.00
H1078  H     0.24593   0.68794   0.56423   0.00000  Uiso   1.00
H1079  H     0.28012   0.62165   0.60427   0.00000  Uiso   1.00
H1080  H     0.25060   0.60527   0.55630   0.00000  Uiso   1.00
H1081  H     0.19268   0.57441   0.60748   0.00000  Uiso   1.00
H1082  H     0.21169   0.60379   0.65062   0.00000  Uiso   1.00
H1083  H     0.30118   0.66867   0.40244   0.00000  Uiso   1.00
H1084  H     0.40866   0.85764   0.42646   0.00000  Uiso   1.00
H1085  H     0.26605   0.67698   0.35508   0.00000  Uiso   1.00
H1086  H     0.24933   0.68951   0.41181   0.00000  Uiso   1.00
H1087  H     0.21997   0.61602   0.38771   0.00000  Uiso   1.00
H1088  H     0.25327   0.60791   0.43550   0.00000  Uiso   1.00
H1089  H     0.30588   0.56815   0.38771   0.00000  Uiso   1.00
H1090  H     0.29132   0.60005   0.34145   0.00000  Uiso   1.00
H1091  H     0.29281   0.82665   0.59874   0.00000  Uiso   1.00
H1092  H     0.25567   0.82388   0.64439   0.00000  Uiso   1.00
H1093  H     0.23959   0.81238   0.58728   0.00000  Uiso   1.00
H1094  H     0.21658   0.88970   0.60828   0.00000  Uiso   1.00
H1095  H     0.38702   0.82461   0.56852   0.00000  Uiso   1.00
H1096  H     0.25283   0.89223   0.56253   0.00000  Uiso   1.00
H1097  H     0.30550   0.92912   0.61149   0.00000  Uiso   1.00
H1098  H     0.28927   0.89714   0.65698   0.00000  Uiso   1.00
H1099  H     0.11336   0.67635   0.43226   0.00000  Uiso   1.00
H1100  H     0.13822   0.92344   0.43074   0.00000  Uiso   1.00
N1101  N     0.00000   0.75000   0.61736   0.00000  Uiso   1.00
N1102  N     0.00000   0.75000   0.38264   0.00000  Uiso   1.00
N1103  N     0.25000   0.50000   0.61736   0.00000  Uiso   1.00
N1104  N     0.25000   0.50000   0.38264   0.00000  Uiso   1.00
O1105  O     0.04509   0.70491   0.53958   0.00000  Uiso   1.00
O1106  O     0.20492   0.54509   0.46042   0.00000  Uiso   1.00
O1107  O     0.20492   0.54509   0.53958   0.00000  Uiso   1.00
O1108  O     0.29509   0.95491   0.46042   0.00000  Uiso   1.00
O1109  O     0.20492   0.95491   0.46042   0.00000  Uiso   1.00
O1110  O     0.29509   0.54509   0.53958   0.00000  Uiso   1.00
O1111  O     0.29509   0.54509   0.46042   0.00000  Uiso   1.00
O1112  O     0.20492   0.95491   0.53958   0.00000  Uiso   1.00
O1113  O     0.45492   0.79509   0.46042   0.00000  Uiso   1.00
O1114  O     0.45492   0.79509   0.53958   0.00000  Uiso   1.00
O1115  O     0.04509   0.70491   0.46042   0.00000  Uiso   1.00
O1116  O     0.45492   0.70491   0.46042   0.00000  Uiso   1.00
O1117  O     0.04509   0.79509   0.53958   0.00000  Uiso   1.00
O1118  O     0.04509   0.79509   0.46042   0.00000  Uiso   1.00
O1119  O     0.45492   0.70491   0.53958   0.00000  Uiso   1.00
O1120  O     0.29509   0.95491   0.53958   0.00000  Uiso   1.00
C1121  C     0.55913   0.69049   0.50034   0.00000  Uiso   1.00
C1122  C     0.99543   0.79031   0.64126   0.00000  Uiso   1.00
C1123  C     0.50374   0.79015   0.35586   0.00000  Uiso   1.00
C1124  C     0.50522   0.70986   0.64405   0.00000  Uiso   1.00
C1125  C     0.74623   0.95958   0.35880   0.00000  Uiso   1.00
C1126  C     0.74500   0.54020   0.64124   0.00000  Uiso   1.00
C1127  C     0.75374   0.54009   0.35576   0.00000  Uiso   1.00
C1128  C     0.75466   0.95992   0.64420   0.00000  Uiso   1.00
C1129  C     0.88529   0.64967   0.46052   0.00000  Uiso   1.00
C1130  C     0.61204   0.85370   0.54130   0.00000  Uiso   1.00
C1131  C     0.60239   0.86952   0.46071   0.00000  Uiso   1.00
C1132  C     0.93993   0.80823   0.49950   0.00000  Uiso   1.00
C1133  C     0.89012   0.64040   0.54238   0.00000  Uiso   1.00
C1134  C     0.59798   0.62526   0.53720   0.00000  Uiso   1.00
C1135  C     0.89370   0.86407   0.45832   0.00000  Uiso   1.00
C1136  C     0.88193   0.84587   0.53815   0.00000  Uiso   1.00
C1137  C     0.61753   0.65325   0.46170   0.00000  Uiso   1.00
C1138  C     0.63270   0.90297   0.46146   0.00000  Uiso   1.00
C1139  C     0.85917   0.60720   0.54191   0.00000  Uiso   1.00
C1140  C     0.85551   0.61574   0.45992   0.00000  Uiso   1.00
C1141  C     0.64302   0.88681   0.54189   0.00000  Uiso   1.00
C1142  C     0.85140   0.87921   0.53892   0.00000  Uiso   1.00
C1143  C     0.93980   0.69190   0.50046   0.00000  Uiso   1.00
C1144  C     0.64867   0.62032   0.46088   0.00000  Uiso   1.00
C1145  C     0.62952   0.59284   0.53665   0.00000  Uiso   1.00
C1146  C     0.86274   0.89727   0.45898   0.00000  Uiso   1.00
C1147  C     0.59200   0.84412   0.50026   0.00000  Uiso   1.00
C1148  C     0.90462   0.66041   0.50133   0.00000  Uiso   1.00
C1149  C     0.90477   0.83972   0.49849   0.00000  Uiso   1.00
C1150  C     0.59229   0.65634   0.50025   0.00000  Uiso   1.00
C1151  C     0.84206   0.59404   0.50033   0.00000  Uiso   1.00
C1152  C     0.65481   0.91019   0.50145   0.00000  Uiso   1.00
C1153  C     0.65572   0.59097   0.49887   0.00000  Uiso   1.00
C1154  C     0.55918   0.80950   0.49978   0.00000  Uiso   1.00
C1155  C     0.84193   0.90579   0.49978   0.00000  Uiso   1.00
C1156  C     0.98016   0.66385   0.37917   0.00000  Uiso   1.00
C1157  C     0.50966   0.63509   0.41036   0.00000  Uiso   1.00
C1158  C     0.50489   0.58308   0.40531   0.00000  Uiso   1.00
C1159  C     0.97403   0.83409   0.62194   0.00000  Uiso   1.00
C1160  C     0.99954   0.86713   0.59054   0.00000  Uiso   1.00
C1161  C     0.97912   0.91472   0.58561   0.00000  Uiso   1.00
C1162  C     0.52610   0.83238   0.37224   0.00000  Uiso   1.00
C1163  C     0.99954   0.86553   0.40025   0.00000  Uiso   1.00
C1164  C     0.51164   0.91617   0.39222   0.00000  Uiso   1.00
C1165  C     0.80915   0.94047   0.50025   0.00000  Uiso   1.00
C1166  C     0.52525   0.66639   0.62630   0.00000  Uiso   1.00
C1167  C     0.99617   0.63627   0.59791   0.00000  Uiso   1.00
C1168  C     0.50171   0.58438   0.60741   0.00000  Uiso   1.00
C1169  C     0.72487   0.91583   0.37792   0.00000  Uiso   1.00
C1170  C     0.75025   0.88274   0.40956   0.00000  Uiso   1.00
C1171  C     0.72966   0.83536   0.41482   0.00000  Uiso   1.00
C1172  C     0.72286   0.58353   0.62201   0.00000  Uiso   1.00
C1173  C     0.74821   0.61730   0.59120   0.00000  Uiso   1.00
C1174  C     0.72730   0.66466   0.58698   0.00000  Uiso   1.00
C1175  C     0.77771   0.58143   0.37132   0.00000  Uiso   1.00
C1176  C     0.69029   0.55872   0.49956   0.00000  Uiso   1.00
C1177  C     0.75260   0.61639   0.39863   0.00000  Uiso   1.00
C1178  C     0.76842   0.66582   0.39149   0.00000  Uiso   1.00
C1179  C     0.77659   0.91745   0.62754   0.00000  Uiso   1.00
C1180  C     0.74950   0.88496   0.59942   0.00000  Uiso   1.00
C1181  C     0.76021   0.83395   0.60807   0.00000  Uiso   1.00
C1182  C     0.68992   0.94175   0.50048   0.00000  Uiso   1.00
C1183  C     0.80923   0.55944   0.49980   0.00000  Uiso   1.00
C1184  C     0.99722   0.70943   0.35877   0.00000  Uiso   1.00
Cu1185 Cu    0.50000   0.75000   0.54689   0.00000  Uiso   1.00
Cu1186 Cu    0.50000   0.75000   0.45311   0.00000  Uiso   1.00
Cu1187 Cu    0.75000   0.50000   0.54689   0.00000  Uiso   1.00
Cu1188 Cu    0.75000   0.50000   0.45311   0.00000  Uiso   1.00
H1189  H     0.89250   0.66765   0.42887   0.00000  Uiso   1.00
H1190  H     0.84895   0.59182   0.57408   0.00000  Uiso   1.00
H1191  H     0.84319   0.60742   0.42762   0.00000  Uiso   1.00
H1192  H     0.65741   0.89396   0.57393   0.00000  Uiso   1.00
H1193  H     0.83514   0.88307   0.57004   0.00000  Uiso   1.00
H1194  H     0.66724   0.61830   0.43077   0.00000  Uiso   1.00
H1195  H     0.63283   0.56876   0.56540   0.00000  Uiso   1.00
H1196  H     0.85535   0.91630   0.42762   0.00000  Uiso   1.00
H1197  H     0.97164   0.57307   0.40613   0.00000  Uiso   1.00
H1198  H     0.51937   0.57239   0.37317   0.00000  Uiso   1.00
H1199  H     0.52117   0.56447   0.43382   0.00000  Uiso   1.00
H1200  H     0.60404   0.83555   0.57292   0.00000  Uiso   1.00
H1201  H     0.54248   0.64423   0.40306   0.00000  Uiso   1.00
H1202  H     0.50227   0.64133   0.44634   0.00000  Uiso   1.00
H1203  H     0.95002   0.66965   0.39451   0.00000  Uiso   1.00
H1204  H     0.96991   0.64159   0.35150   0.00000  Uiso   1.00
H1205  H     0.94762   0.91167   0.57065   0.00000  Uiso   1.00
H1206  H     0.97651   0.93108   0.61902   0.00000  Uiso   1.00
H1207  H     0.99807   0.93747   0.56267   0.00000  Uiso   1.00
H1208  H     0.53166   0.87107   0.60329   0.00000  Uiso   1.00
H1209  H     0.50126   0.85476   0.55578   0.00000  Uiso   1.00
H1210  H     0.94386   0.82519   0.60771   0.00000  Uiso   1.00
H1211  H     0.58704   0.86462   0.42918   0.00000  Uiso   1.00
H1212  H     0.96334   0.85493   0.65045   0.00000  Uiso   1.00
H1213  H     0.54428   0.92216   0.40222   0.00000  Uiso   1.00
H1214  H     0.50781   0.92671   0.35588   0.00000  Uiso   1.00
H1215  H     0.99132   0.93832   0.41284   0.00000  Uiso   1.00
H1216  H     0.96665   0.86213   0.39077   0.00000  Uiso   1.00
H1217  H     0.50226   0.85772   0.43713   0.00000  Uiso   1.00
H1218  H     0.55492   0.82033   0.38829   0.00000  Uiso   1.00
H1219  H     0.53890   0.85231   0.34270   0.00000  Uiso   1.00
H1220  H     0.53500   0.57473   0.60990   0.00000  Uiso   1.00
H1221  H     0.98557   0.57369   0.63931   0.00000  Uiso   1.00
H1222  H     0.90220   0.65038   0.57479   0.00000  Uiso   1.00
H1223  H     0.98743   0.56510   0.57940   0.00000  Uiso   1.00
H1224  H     0.96357   0.64493   0.60549   0.00000  Uiso   1.00
H1225  H     0.50165   0.64238   0.56114   0.00000  Uiso   1.00
H1226  H     0.55472   0.67600   0.61004   0.00000  Uiso   1.00
H1227  H     0.53744   0.64467   0.65512   0.00000  Uiso   1.00
H1228  H     0.69822   0.83881   0.42979   0.00000  Uiso   1.00
H1229  H     0.72688   0.81876   0.38158   0.00000  Uiso   1.00
H1230  H     0.74859   0.81259   0.43790   0.00000  Uiso   1.00
H1231  H     0.78235   0.87845   0.39687   0.00000  Uiso   1.00
H1232  H     0.75189   0.89530   0.44424   0.00000  Uiso   1.00
H1233  H     0.57772   0.62481   0.56599   0.00000  Uiso   1.00
H1234  H     0.69470   0.92493   0.39196   0.00000  Uiso   1.00
H1235  H     0.71433   0.89500   0.34935   0.00000  Uiso   1.00
H1236  H     0.69575   0.66141   0.57219   0.00000  Uiso   1.00
H1237  H     0.72481   0.68042   0.62075   0.00000  Uiso   1.00
H1238  H     0.74593   0.68794   0.56423   0.00000  Uiso   1.00
H1239  H     0.78012   0.62165   0.60427   0.00000  Uiso   1.00
H1240  H     0.75060   0.60527   0.55630   0.00000  Uiso   1.00
H1241  H     0.69268   0.57441   0.60748   0.00000  Uiso   1.00
H1242  H     0.71169   0.60379   0.65062   0.00000  Uiso   1.00
H1243  H     0.80118   0.66867   0.40244   0.00000  Uiso   1.00
H1244  H     0.90866   0.85764   0.42646   0.00000  Uiso   1.00
H1245  H     0.76605   0.67698   0.35508   0.00000  Uiso   1.00
H1246  H     0.74933   0.68951   0.41181   0.00000  Uiso   1.00
H1247  H     0.71997   0.61602   0.38771   0.00000  Uiso   1.00
H1248  H     0.75327   0.60791   0.43550   0.00000  Uiso   1.00
H1249  H     0.80588   0.56815   0.38771   0.00000  Uiso   1.00
H1250  H     0.79132   0.60005   0.34145   0.00000  Uiso   1.00
H1251  H     0.79281   0.82665   0.59874   0.00000  Uiso   1.00
H1252  H     0.75567   0.82388   0.64439   0.00000  Uiso   1.00
H1253  H     0.73959   0.81238   0.58728   0.00000  Uiso   1.00
H1254  H     0.71658   0.88970   0.60828   0.00000  Uiso   1.00
H1255  H     0.88702   0.82461   0.56852   0.00000  Uiso   1.00
H1256  H     0.75283   0.89223   0.56253   0.00000  Uiso   1.00
H1257  H     0.80550   0.92912   0.61149   0.00000  Uiso   1.00
H1258  H     0.78927   0.89714   0.65698   0.00000  Uiso   1.00
H1259  H     0.61336   0.67635   0.43226   0.00000  Uiso   1.00
H1260  H     0.63822   0.92344   0.43074   0.00000  Uiso   1.00
N1261  N     0.50000   0.75000   0.61736   0.00000  Uiso   1.00
N1262  N     0.50000   0.75000   0.38264   0.00000  Uiso   1.00
N1263  N     0.75000   0.50000   0.61736   0.00000  Uiso   1.00
N1264  N     0.75000   0.50000   0.38264   0.00000  Uiso   1.00
O1265  O     0.54509   0.70491   0.53958   0.00000  Uiso   1.00
O1266  O     0.70492   0.54509   0.46042   0.00000  Uiso   1.00
O1267  O     0.70492   0.54509   0.53958   0.00000  Uiso   1.00
O1268  O     0.79509   0.95491   0.46042   0.00000  Uiso   1.00
O1269  O     0.70492   0.95491   0.46042   0.00000  Uiso   1.00
O1270  O     0.79509   0.54509   0.53958   0.00000  Uiso   1.00
O1271  O     0.79509   0.54509   0.46042   0.00000  Uiso   1.00
O1272  O     0.70492   0.95491   0.53958   0.00000  Uiso   1.00
O1273  O     0.95492   0.79509   0.46042   0.00000  Uiso   1.00
O1274  O     0.95492   0.79509   0.53958   0.00000  Uiso   1.00
O1275  O     0.54509   0.70491   0.46042   0.00000  Uiso   1.00
O1276  O     0.95492   0.70491   0.46042   0.00000  Uiso   1.00
O1277  O     0.54509   0.79509   0.53958   0.00000  Uiso   1.00
O1278  O     0.54509   0.79509   0.46042   0.00000  Uiso   1.00
O1279  O     0.95492   0.70491   0.53958   0.00000  Uiso   1.00
O1280  O     0.79509   0.95491   0.53958   0.00000  Uiso   1.00
C1281  C     0.05913   0.19049   0.83367   0.00000  Uiso   1.00
C1282  C     0.49543   0.29031   0.97460   0.00000  Uiso   1.00
C1283  C     0.00374   0.29015   0.68920   0.00000  Uiso   1.00
C1284  C     0.00522   0.20986   0.97739   0.00000  Uiso   1.00
C1285  C     0.24623   0.45958   0.69213   0.00000  Uiso   1.00
C1286  C     0.24500   0.04020   0.97457   0.00000  Uiso   1.00
C1287  C     0.25374   0.04009   0.68909   0.00000  Uiso   1.00
C1288  C     0.25466   0.45992   0.97753   0.00000  Uiso   1.00
C1289  C     0.38529   0.14967   0.79386   0.00000  Uiso   1.00
C1290  C     0.11204   0.35370   0.87463   0.00000  Uiso   1.00
C1291  C     0.10239   0.36952   0.79404   0.00000  Uiso   1.00
C1292  C     0.43993   0.30823   0.83283   0.00000  Uiso   1.00
C1293  C     0.39012   0.14040   0.87571   0.00000  Uiso   1.00
C1294  C     0.09798   0.12526   0.87053   0.00000  Uiso   1.00
C1295  C     0.39370   0.36407   0.79165   0.00000  Uiso   1.00
C1296  C     0.38193   0.34587   0.87149   0.00000  Uiso   1.00
C1297  C     0.11753   0.15325   0.79504   0.00000  Uiso   1.00
C1298  C     0.13270   0.40297   0.79479   0.00000  Uiso   1.00
C1299  C     0.35917   0.10720   0.87524   0.00000  Uiso   1.00
C1300  C     0.35551   0.11574   0.79326   0.00000  Uiso   1.00
C1301  C     0.14302   0.38681   0.87523   0.00000  Uiso   1.00
C1302  C     0.35140   0.37921   0.87226   0.00000  Uiso   1.00
C1303  C     0.43980   0.19190   0.83379   0.00000  Uiso   1.00
C1304  C     0.14867   0.12032   0.79421   0.00000  Uiso   1.00
C1305  C     0.12952   0.09284   0.86998   0.00000  Uiso   1.00
C1306  C     0.36274   0.39727   0.79232   0.00000  Uiso   1.00
C1307  C     0.09200   0.34412   0.83359   0.00000  Uiso   1.00
C1308  C     0.40462   0.16041   0.83466   0.00000  Uiso   1.00
C1309  C     0.40477   0.33972   0.83183   0.00000  Uiso   1.00
C1310  C     0.09229   0.15634   0.83358   0.00000  Uiso   1.00
C1311  C     0.34206   0.09404   0.83366   0.00000  Uiso   1.00
C1312  C     0.15481   0.41019   0.83478   0.00000  Uiso   1.00
C1313  C     0.15572   0.09097   0.83220   0.00000  Uiso   1.00
C1314  C     0.05918   0.30950   0.83311   0.00000  Uiso   1.00
C1315  C     0.34193   0.40579   0.83311   0.00000  Uiso   1.00
C1316  C     0.48016   0.16385   0.71251   0.00000  Uiso   1.00
C1317  C     0.00966   0.13509   0.74369   0.00000  Uiso   1.00
C1318  C     0.00489   0.08308   0.73865   0.00000  Uiso   1.00
C1319  C     0.47403   0.33409   0.95527   0.00000  Uiso   1.00
C1320  C     0.49954   0.36713   0.92387   0.00000  Uiso   1.00
C1321  C     0.47912   0.41472   0.91894   0.00000  Uiso   1.00
C1322  C     0.02610   0.33238   0.70557   0.00000  Uiso   1.00
C1323  C     0.49954   0.36553   0.73359   0.00000  Uiso   1.00
C1324  C     0.01164   0.41617   0.72556   0.00000  Uiso   1.00
C1325  C     0.30915   0.44047   0.83358   0.00000  Uiso   1.00
C1326  C     0.02525   0.16639   0.95963   0.00000  Uiso   1.00
C1327  C     0.49617   0.13627   0.93124   0.00000  Uiso   1.00
C1328  C     0.00171   0.08438   0.94075   0.00000  Uiso   1.00
C1329  C     0.22487   0.41583   0.71125   0.00000  Uiso   1.00
C1330  C     0.25025   0.38274   0.74289   0.00000  Uiso   1.00
C1331  C     0.22966   0.33536   0.74815   0.00000  Uiso   1.00
C1332  C     0.22286   0.08353   0.95535   0.00000  Uiso   1.00
C1333  C     0.24821   0.11730   0.92453   0.00000  Uiso   1.00
C1334  C     0.22730   0.16466   0.92031   0.00000  Uiso   1.00
C1335  C     0.27771   0.08143   0.70465   0.00000  Uiso   1.00
C1336  C     0.19029   0.05872   0.83289   0.00000  Uiso   1.00
C1337  C     0.25260   0.11639   0.73196   0.00000  Uiso   1.00
C1338  C     0.26842   0.16582   0.72482   0.00000  Uiso   1.00
C1339  C     0.27659   0.41745   0.96087   0.00000  Uiso   1.00
C1340  C     0.24950   0.38496   0.93276   0.00000  Uiso   1.00
C1341  C     0.26021   0.33395   0.94140   0.00000  Uiso   1.00
C1342  C     0.18992   0.44175   0.83381   0.00000  Uiso   1.00
C1343  C     0.30923   0.05944   0.83314   0.00000  Uiso   1.00
C1344  C     0.49722   0.20943   0.69211   0.00000  Uiso   1.00
Cu1345 Cu    0.00000   0.25000   0.88022   0.00000  Uiso   1.00
Cu1346 Cu    0.00000   0.25000   0.78645   0.00000  Uiso   1.00
Cu1347 Cu    0.25000   0.00000   0.88022   0.00000  Uiso   1.00
Cu1348 Cu    0.25000   0.00000   0.78645   0.00000  Uiso   1.00
H1349  H     0.39250   0.16765   0.76220   0.00000  Uiso   1.00
H1350  H     0.34895   0.09182   0.90741   0.00000  Uiso   1.00
H1351  H     0.34319   0.10742   0.76096   0.00000  Uiso   1.00
H1352  H     0.15741   0.39396   0.90727   0.00000  Uiso   1.00
H1353  H     0.33514   0.38307   0.90338   0.00000  Uiso   1.00
H1354  H     0.16724   0.11830   0.76410   0.00000  Uiso   1.00
H1355  H     0.13283   0.06876   0.89873   0.00000  Uiso   1.00
H1356  H     0.35535   0.41630   0.76096   0.00000  Uiso   1.00
H1357  H     0.47164   0.07307   0.73947   0.00000  Uiso   1.00
H1358  H     0.01937   0.07239   0.70650   0.00000  Uiso   1.00
H1359  H     0.02117   0.06447   0.76715   0.00000  Uiso   1.00
H1360  H     0.10404   0.33555   0.90625   0.00000  Uiso   1.00
H1361  H     0.04248   0.14423   0.73639   0.00000  Uiso   1.00
H1362  H     0.00227   0.14133   0.77967   0.00000  Uiso   1.00
H1363  H     0.45002   0.16965   0.72784   0.00000  Uiso   1.00
H1364  H     0.46991   0.14159   0.68483   0.00000  Uiso   1.00
H1365  H     0.44762   0.41167   0.90399   0.00000  Uiso   1.00
H1366  H     0.47651   0.43108   0.95235   0.00000  Uiso   1.00
H1367  H     0.49807   0.43747   0.89600   0.00000  Uiso   1.00
H1368  H     0.03166   0.37107   0.93662   0.00000  Uiso   1.00
H1369  H     0.00126   0.35476   0.88911   0.00000  Uiso   1.00
H1370  H     0.44386   0.32519   0.94105   0.00000  Uiso   1.00
H1371  H     0.08704   0.36462   0.76251   0.00000  Uiso   1.00
H1372  H     0.46334   0.35493   0.98378   0.00000  Uiso   1.00
H1373  H     0.04428   0.42216   0.73555   0.00000  Uiso   1.00
H1374  H     0.00781   0.42671   0.68921   0.00000  Uiso   1.00
H1375  H     0.49132   0.43832   0.74617   0.00000  Uiso   1.00
H1376  H     0.46665   0.36213   0.72411   0.00000  Uiso   1.00
H1377  H     0.00226   0.35772   0.77046   0.00000  Uiso   1.00
H1378  H     0.05492   0.32033   0.72162   0.00000  Uiso   1.00
H1379  H     0.03890   0.35231   0.67603   0.00000  Uiso   1.00
H1380  H     0.03500   0.07473   0.94323   0.00000  Uiso   1.00
H1381  H     0.48557   0.07369   0.97264   0.00000  Uiso   1.00
H1382  H     0.40220   0.15038   0.90812   0.00000  Uiso   1.00
H1383  H     0.48743   0.06510   0.91273   0.00000  Uiso   1.00
H1384  H     0.46357   0.14493   0.93883   0.00000  Uiso   1.00
H1385  H     0.00165   0.14238   0.89448   0.00000  Uiso   1.00
H1386  H     0.05472   0.17600   0.94337   0.00000  Uiso   1.00
H1387  H     0.03744   0.14467   0.98845   0.00000  Uiso   1.00
H1388  H     0.19822   0.33881   0.76312   0.00000  Uiso   1.00
H1389  H     0.22688   0.31876   0.71491   0.00000  Uiso   1.00
H1390  H     0.24859   0.31259   0.77123   0.00000  Uiso   1.00
H1391  H     0.28235   0.37845   0.73021   0.00000  Uiso   1.00
H1392  H     0.25189   0.39530   0.77757   0.00000  Uiso   1.00
H1393  H     0.07772   0.12481   0.89932   0.00000  Uiso   1.00
H1394  H     0.19470   0.42493   0.72530   0.00000  Uiso   1.00
H1395  H     0.21433   0.39500   0.68268   0.00000  Uiso   1.00
H1396  H     0.19575   0.16141   0.90552   0.00000  Uiso   1.00
H1397  H     0.22481   0.18042   0.95408   0.00000  Uiso   1.00
H1398  H     0.24593   0.18794   0.89756   0.00000  Uiso   1.00
H1399  H     0.28012   0.12165   0.93760   0.00000  Uiso   1.00
H1400  H     0.25060   0.10527   0.88963   0.00000  Uiso   1.00
H1401  H     0.19268   0.07441   0.94081   0.00000  Uiso   1.00
H1402  H     0.21169   0.10379   0.98396   0.00000  Uiso   1.00
H1403  H     0.30118   0.16867   0.73577   0.00000  Uiso   1.00
H1404  H     0.40866   0.35764   0.75979   0.00000  Uiso   1.00
H1405  H     0.26605   0.17698   0.68842   0.00000  Uiso   1.00
H1406  H     0.24933   0.18951   0.74515   0.00000  Uiso   1.00
H1407  H     0.21997   0.11602   0.72104   0.00000  Uiso   1.00
H1408  H     0.25327   0.10791   0.76884   0.00000  Uiso   1.00
H1409  H     0.30588   0.06815   0.72104   0.00000  Uiso   1.00
H1410  H     0.29132   0.10005   0.67478   0.00000  Uiso   1.00
H1411  H     0.29281   0.32665   0.93207   0.00000  Uiso   1.00
H1412  H     0.25567   0.32388   0.97772   0.00000  Uiso   1.00
H1413  H     0.23959   0.31238   0.92061   0.00000  Uiso   1.00
H1414  H     0.21658   0.38970   0.94161   0.00000  Uiso   1.00
H1415  H     0.38702   0.32461   0.90185   0.00000  Uiso   1.00
H1416  H     0.25283   0.39223   0.89586   0.00000  Uiso   1.00
H1417  H     0.30550   0.42912   0.94483   0.00000  Uiso   1.00
H1418  H     0.28927   0.39714   0.99032   0.00000  Uiso   1.00
H1419  H     0.11336   0.17635   0.76559   0.00000  Uiso   1.00
H1420  H     0.13822   0.42344   0.76407   0.00000  Uiso   1.00
N1421  N     0.00000   0.25000   0.95069   0.00000  Uiso   1.00
N1422  N     0.00000   0.25000   0.71598   0.00000  Uiso   1.00
N1423  N     0.25000   0.00000   0.95069   0.00000  Uiso   1.00
N1424  N     0.25000   0.00000   0.71598   0.00000  Uiso   1.00
O1425  O     0.04509   0.20491   0.87291   0.00000  Uiso   1.00
O1426  O     0.20492   0.04509   0.79375   0.00000  Uiso   1.00
O1427  O     0.20492   0.04509   0.87291   0.00000  Uiso   1.00
O1428  O     0.29509   0.45491   0.79375   0.00000  Uiso   1.00
O1429  O     0.20492   0.45491   0.79375   0.00000  Uiso   1.00
O1430  O     0.29509   0.04509   0.87291   0.00000  Uiso   1.00
O1431  O     0.29509   0.04509   0.79375   0.00000  Uiso   1.00
O1432  O     0.20492   0.45491   0.87291   0.00000  Uiso   1.00
O1433  O     0.45492   0.29509   0.79375   0.00000  Uiso   1.00
O1434  O     0.45492   0.29509   0.87291   0.00000  Uiso   1.00
O1435  O     0.04509   0.20491   0.79375   0.00000  Uiso   1.00
O1436  O     0.45492   0.20491   0.79375   0.00000  Uiso   1.00
O1437  O     0.04509   0.29509   0.87291   0.00000  Uiso   1.00
O1438  O     0.04509   0.29509   0.79375   0.00000  Uiso   1.00
O1439  O     0.45492   0.20491   0.87291   0.00000  Uiso   1.00
O1440  O     0.29509   0.45491   0.87291   0.00000  Uiso   1.00
C1441  C     0.55913   0.19049   0.83367   0.00000  Uiso   1.00
C1442  C     0.99543   0.29031   0.97460   0.00000  Uiso   1.00
C1443  C     0.50374   0.29015   0.68920   0.00000  Uiso   1.00
C1444  C     0.50522   0.20986   0.97739   0.00000  Uiso   1.00
C1445  C     0.74623   0.45958   0.69213   0.00000  Uiso   1.00
C1446  C     0.74500   0.04020   0.97457   0.00000  Uiso   1.00
C1447  C     0.75374   0.04009   0.68909   0.00000  Uiso   1.00
C1448  C     0.75466   0.45992   0.97753   0.00000  Uiso   1.00
C1449  C     0.88529   0.14967   0.79386   0.00000  Uiso   1.00
C1450  C     0.61204   0.35370   0.87463   0.00000  Uiso   1.00
C1451  C     0.60239   0.36952   0.79404   0.00000  Uiso   1.00
C1452  C     0.93993   0.30823   0.83283   0.00000  Uiso   1.00
C1453  C     0.89012   0.14040   0.87571   0.00000  Uiso   1.00
C1454  C     0.59798   0.12526   0.87053   0.00000  Uiso   1.00
C1455  C     0.89370   0.36407   0.79165   0.00000  Uiso   1.00
C1456  C     0.88193   0.34587   0.87149   0.00000  Uiso   1.00
C1457  C     0.61753   0.15325   0.79504   0.00000  Uiso   1.00
C1458  C     0.63270   0.40297   0.79479   0.00000  Uiso   1.00
C1459  C     0.85917   0.10720   0.87524   0.00000  Uiso   1.00
C1460  C     0.85551   0.11574   0.79326   0.00000  Uiso   1.00
C1461  C     0.64302   0.38681   0.87523   0.00000  Uiso   1.00
C1462  C     0.85140   0.37921   0.87226   0.00000  Uiso   1.00
C1463  C     0.93980   0.19190   0.83379   0.00000  Uiso   1.00
C1464  C     0.64867   0.12032   0.79421   0.00000  Uiso   1.00
C1465  C     0.62952   0.09284   0.86998   0.00000  Uiso   1.00
C1466  C     0.86274   0.39727   0.79232   0.00000  Uiso   1.00
C1467  C     0.59200   0.34412   0.83359   0.00000  Uiso   1.00
C1468  C     0.90462   0.16041   0.83466   0.00000  Uiso   1.00
C1469  C     0.90477   0.33972   0.83183   0.00000  Uiso   1.00
C1470  C     0.59229   0.15634   0.83358   0.00000  Uiso   1.00
C1471  C     0.84206   0.09404   0.83366   0.00000  Uiso   1.00
C1472  C     0.65481   0.41019   0.83478   0.00000  Uiso   1.00
C1473  C     0.65572   0.09097   0.83220   0.00000  Uiso   1.00
C1474  C     0.55918   0.30950   0.83311   0.00000  Uiso   1.00
C1475  C     0.84193   0.40579   0.83311   0.00000  Uiso   1.00
C1476  C     0.98016   0.16385   0.71251   0.00000  Uiso   1.00
C1477  C     0.50966   0.13509   0.74369   0.00000  Uiso   1.00
C1478  C     0.50489   0.08308   0.73865   0.00000  Uiso   1.00
C1479  C     0.97403   0.33409   0.95527   0.00000  Uiso   1.00
C1480  C     0.99954   0.36713   0.92387   0.00000  Uiso   1.00
C1481  C     0.97912   0.41472   0.91894   0.00000  Uiso   1.00
C1482  C     0.52610   0.33238   0.70557   0.00000  Uiso   1.00
C1483  C     0.99954   0.36553   0.73359   0.00000  Uiso   1.00
C1484  C     0.51164   0.41617   0.72556   0.00000  Uiso   1.00
C1485  C     0.80915   0.44047   0.83358   0.00000  Uiso   1.00
C1486  C     0.52525   0.16639   0.95963   0.00000  Uiso   1.00
C1487  C     0.99617   0.13627   0.93124   0.00000  Uiso   1.00
C1488  C     0.50171   0.08438   0.94075   0.00000  Uiso   1.00
C1489  C     0.72487   0.41583   0.71125   0.00000  Uiso   1.00
C1490  C     0.75025   0.38274   0.74289   0.00000  Uiso   1.00
C1491  C     0.72966   0.33536   0.74815   0.00000  Uiso   1.00
C1492  C     0.72286   0.08353   0.95535   0.00000  Uiso   1.00
C1493  C     0.74821   0.11730   0.92453   0.00000  Uiso   1.00
C1494  C     0.72730   0.16466   0.92031   0.00000  Uiso   1.00
C1495  C     0.77771   0.08143   0.70465   0.00000  Uiso   1.00
C1496  C     0.69029   0.05872   0.83289   0.00000  Uiso   1.00
C1497  C     0.75260   0.11639   0.73196   0.00000  Uiso   1.00
C1498  C     0.76842   0.16582   0.72482   0.00000  Uiso   1.00
C1499  C     0.77659   0.41745   0.96087   0.00000  Uiso   1.00
C1500  C     0.74950   0.38496   0.93276   0.00000  Uiso   1.00
C1501  C     0.76021   0.33395   0.94140   0.00000  Uiso   1.00
C1502  C     0.68992   0.44175   0.83381   0.00000  Uiso   1.00
C1503  C     0.80923   0.05944   0.83314   0.00000  Uiso   1.00
C1504  C     0.99722   0.20943   0.69211   0.00000  Uiso   1.00
Cu1505 Cu    0.50000   0.25000   0.88022   0.00000  Uiso   1.00
Cu1506 Cu    0.50000   0.25000   0.78645   0.00000  Uiso   1.00
Cu1507 Cu    0.75000   0.00000   0.88022   0.00000  Uiso   1.00
Cu1508 Cu    0.75000   0.00000   0.78645   0.00000  Uiso   1.00
H1509  H     0.89250   0.16765   0.76220   0.00000  Uiso   1.00
H1510  H     0.84895   0.09182   0.90741   0.00000  Uiso   1.00
H1511  H     0.84319   0.10742   0.76096   0.00000  Uiso   1.00
H1512  H     0.65741   0.39396   0.90727   0.00000  Uiso   1.00
H1513  H     0.83514   0.38307   0.90338   0.00000  Uiso   1.00
H1514  H     0.66724   0.11830   0.76410   0.00000  Uiso   1.00
H1515  H     0.63283   0.06876   0.89873   0.00000  Uiso   1.00
H1516  H     0.85535   0.41630   0.76096   0.00000  Uiso   1.00
H1517  H     0.97164   0.07307   0.73947   0.00000  Uiso   1.00
H1518  H     0.51937   0.07239   0.70650   0.00000  Uiso   1.00
H1519  H     0.52117   0.06447   0.76715   0.00000  Uiso   1.00
H1520  H     0.60404   0.33555   0.90625   0.00000  Uiso   1.00
H1521  H     0.54248   0.14423   0.73639   0.00000  Uiso   1.00
H1522  H     0.50227   0.14133   0.77967   0.00000  Uiso   1.00
H1523  H     0.95002   0.16965   0.72784   0.00000  Uiso   1.00
H1524  H     0.96991   0.14159   0.68483   0.00000  Uiso   1.00
H1525  H     0.94762   0.41167   0.90399   0.00000  Uiso   1.00
H1526  H     0.97651   0.43108   0.95235   0.00000  Uiso   1.00
H1527  H     0.99807   0.43747   0.89600   0.00000  Uiso   1.00
H1528  H     0.53166   0.37107   0.93662   0.00000  Uiso   1.00
H1529  H     0.50126   0.35476   0.88911   0.00000  Uiso   1.00
H1530  H     0.94386   0.32519   0.94105   0.00000  Uiso   1.00
H1531  H     0.58704   0.36462   0.76251   0.00000  Uiso   1.00
H1532  H     0.96334   0.35493   0.98378   0.00000  Uiso   1.00
H1533  H     0.54428   0.42216   0.73555   0.00000  Uiso   1.00
H1534  H     0.50781   0.42671   0.68921   0.00000  Uiso   1.00
H1535  H     0.99132   0.43832   0.74617   0.00000  Uiso   1.00
H1536  H     0.96665   0.36213   0.72411   0.00000  Uiso   1.00
H1537  H     0.50226   0.35772   0.77046   0.00000  Uiso   1.00
H1538  H     0.55492   0.32033   0.72162   0.00000  Uiso   1.00
H1539  H     0.53890   0.35231   0.67603   0.00000  Uiso   1.00
H1540  H     0.53500   0.07473   0.94323   0.00000  Uiso   1.00
H1541  H     0.98557   0.07369   0.97264   0.00000  Uiso   1.00
H1542  H     0.90220   0.15038   0.90812   0.00000  Uiso   1.00
H1543  H     0.98743   0.06510   0.91273   0.00000  Uiso   1.00
H1544  H     0.96357   0.14493   0.93883   0.00000  Uiso   1.00
H1545  H     0.50165   0.14238   0.89448   0.00000  Uiso   1.00
H1546  H     0.55472   0.17600   0.94337   0.00000  Uiso   1.00
H1547  H     0.53744   0.14467   0.98845   0.00000  Uiso   1.00
H1548  H     0.69822   0.33881   0.76312   0.00000  Uiso   1.00
H1549  H     0.72688   0.31876   0.71491   0.00000  Uiso   1.00
H1550  H     0.74859   0.31259   0.77123   0.00000  Uiso   1.00
H1551  H     0.78235   0.37845   0.73021   0.00000  Uiso   1.00
H1552  H     0.75189   0.39530   0.77757   0.00000  Uiso   1.00
H1553  H     0.57772   0.12481   0.89932   0.00000  Uiso   1.00
H1554  H     0.69470   0.42493   0.72530   0.00000  Uiso   1.00
H1555  H     0.71433   0.39500   0.68268   0.00000  Uiso   1.00
H1556  H     0.69575   0.16141   0.90552   0.00000  Uiso   1.00
H1557  H     0.72481   0.18042   0.95408   0.00000  Uiso   1.00
H1558  H     0.74593   0.18794   0.89756   0.00000  Uiso   1.00
H1559  H     0.78012   0.12165   0.93760   0.00000  Uiso   1.00
H1560  H     0.75060   0.10527   0.88963   0.00000  Uiso   1.00
H1561  H     0.69268   0.07441   0.94081   0.00000  Uiso   1.00
H1562  H     0.71169   0.10379   0.98396   0.00000  Uiso   1.00
H1563  H     0.80118   0.16867   0.73577   0.00000  Uiso   1.00
H1564  H     0.90866   0.35764   0.75979   0.00000  Uiso   1.00
H1565  H     0.76605   0.17698   0.68842   0.00000  Uiso   1.00
H1566  H     0.74933   0.18951   0.74515   0.00000  Uiso   1.00
H1567  H     0.71997   0.11602   0.72104   0.00000  Uiso   1.00
H1568  H     0.75327   0.10791   0.76884   0.00000  Uiso   1.00
H1569  H     0.80588   0.06815   0.72104   0.00000  Uiso   1.00
H1570  H     0.79132   0.10005   0.67478   0.00000  Uiso   1.00
H1571  H     0.79281   0.32665   0.93207   0.00000  Uiso   1.00
H1572  H     0.75567   0.32388   0.97772   0.00000  Uiso   1.00
H1573  H     0.73959   0.31238   0.92061   0.00000  Uiso   1.00
H1574  H     0.71658   0.38970   0.94161   0.00000  Uiso   1.00
H1575  H     0.88702   0.32461   0.90185   0.00000  Uiso   1.00
H1576  H     0.75283   0.39223   0.89586   0.00000  Uiso   1.00
H1577  H     0.80550   0.42912   0.94483   0.00000  Uiso   1.00
H1578  H     0.78927   0.39714   0.99032   0.00000  Uiso   1.00
H1579  H     0.61336   0.17635   0.76559   0.00000  Uiso   1.00
H1580  H     0.63822   0.42344   0.76407   0.00000  Uiso   1.00
N1581  N     0.50000   0.25000   0.95069   0.00000  Uiso   1.00
N1582  N     0.50000   0.25000   0.71598   0.00000  Uiso   1.00
N1583  N     0.75000   0.00000   0.95069   0.00000  Uiso   1.00
N1584  N     0.75000   0.00000   0.71598   0.00000  Uiso   1.00
O1585  O     0.54509   0.20491   0.87291   0.00000  Uiso   1.00
O1586  O     0.70492   0.04509   0.79375   0.00000  Uiso   1.00
O1587  O     0.70492   0.04509   0.87291   0.00000  Uiso   1.00
O1588  O     0.79509   0.45491   0.79375   0.00000  Uiso   1.00
O1589  O     0.70492   0.45491   0.79375   0.00000  Uiso   1.00
O1590  O     0.79509   0.04509   0.87291   0.00000  Uiso   1.00
O1591  O     0.79509   0.04509   0.79375   0.00000  Uiso   1.00
O1592  O     0.70492   0.45491   0.87291   0.00000  Uiso   1.00
O1593  O     0.95492   0.29509   0.79375   0.00000  Uiso   1.00
O1594  O     0.95492   0.29509   0.87291   0.00000  Uiso   1.00
O1595  O     0.54509   0.20491   0.79375   0.00000  Uiso   1.00
O1596  O     0.95492   0.20491   0.79375   0.00000  Uiso   1.00
O1597  O     0.54509   0.29509   0.87291   0.00000  Uiso   1.00
O1598  O     0.54509   0.29509   0.79375   0.00000  Uiso   1.00
O1599  O     0.95492   0.20491   0.87291   0.00000  Uiso   1.00
O1600  O     0.79509   0.45491   0.87291   0.00000  Uiso   1.00
C1601  C     0.05913   0.69049   0.83367   0.00000  Uiso   1.00
C1602  C     0.49543   0.79031   0.97460   0.00000  Uiso   1.00
C1603  C     0.00374   0.79015   0.68920   0.00000  Uiso   1.00
C1604  C     0.00522   0.70986   0.97739   0.00000  Uiso   1.00
C1605  C     0.24623   0.95958   0.69213   0.00000  Uiso   1.00
C1606  C     0.24500   0.54020   0.97457   0.00000  Uiso   1.00
C1607  C     0.25374   0.54009   0.68909   0.00000  Uiso   1.00
C1608  C     0.25466   0.95992   0.97753   0.00000  Uiso   1.00
C1609  C     0.38529   0.64967   0.79386   0.00000  Uiso   1.00
C1610  C     0.11204   0.85370   0.87463   0.00000  Uiso   1.00
C1611  C     0.10239   0.86952   0.79404   0.00000  Uiso   1.00
C1612  C     0.43993   0.80823   0.83283   0.00000  Uiso   1.00
C1613  C     0.39012   0.64040   0.87571   0.00000  Uiso   1.00
C1614  C     0.09798   0.62526   0.87053   0.00000  Uiso   1.00
C1615  C     0.39370   0.86407   0.79165   0.00000  Uiso   1.00
C1616  C     0.38193   0.84587   0.87149   0.00000  Uiso   1.00
C1617  C     0.11753   0.65325   0.79504   0.00000  Uiso   1.00
C1618  C     0.13270   0.90297   0.79479   0.00000  Uiso   1.00
C1619  C     0.35917   0.60720   0.87524   0.00000  Uiso   1.00
C1620  C     0.35551   0.61574   0.79326   0.00000  Uiso   1.00
C1621  C     0.14302   0.88681   0.87523   0.00000  Uiso   1.00
C1622  C     0.35140   0.87921   0.87226   0.00000  Uiso   1.00
C1623  C     0.43980   0.69190   0.83379   0.00000  Uiso   1.00
C1624  C     0.14867   0.62032   0.79421   0.00000  Uiso   1.00
C1625  C     0.12952   0.59284   0.86998   0.00000  Uiso   1.00
C1626  C     0.36274   0.89727   0.79232   0.00000  Uiso   1.00
C1627  C     0.09200   0.84412   0.83359   0.00000  Uiso   1.00
C1628  C     0.40462   0.66041   0.83466   0.00000  Uiso   1.00
C1629  C     0.40477   0.83972   0.83183   0.00000  Uiso   1.00
C1630  C     0.09229   0.65634   0.83358   0.00000  Uiso   1.00
C1631  C     0.34206   0.59404   0.83366   0.00000  Uiso   1.00
C1632  C     0.15481   0.91019   0.83478   0.00000  Uiso   1.00
C1633  C     0.15572   0.59097   0.83220   0.00000  Uiso   1.00
C1634  C     0.05918   0.80950   0.83311   0.00000  Uiso   1.00
C1635  C     0.34193   0.90579   0.83311   0.00000  Uiso   1.00
C1636  C     0.48016   0.66385   0.71251   0.00000  Uiso   1.00
C1637  C     0.00966   0.63509   0.74369   0.00000  Uiso   1.00
C1638  C     0.00489   0.58308   0.73865   0.00000  Uiso   1.00
C1639  C     0.47403   0.83409   0.95527   0.00000  Uiso   1.00
C1640  C     0.49954   0.86713   0.92387   0.00000  Uiso   1.00
C1641  C     0.47912   0.91472   0.91894   0.00000  Uiso   1.00
C1642  C     0.02610   0.83238   0.70557   0.00000  Uiso   1.00
C1643  C     0.49954   0.86553   0.73359   0.00000  Uiso   1.00
C1644  C     0.01164   0.91617   0.72556   0.00000  Uiso   1.00
C1645  C     0.30915   0.94047   0.83358   0.00000  Uiso   1.00
C1646  C     0.02525   0.66639   0.95963   0.00000  Uiso   1.00
C1647  C     0.49617   0.63627   0.93124   0.00000  Uiso   1.00
C1648  C     0.00171   0.58438   0.94075   0.00000  Uiso   1.00
C1649  C     0.22487   0.91583   0.71125   0.00000  Uiso   1.00
C1650  C     0.25025   0.88274   0.74289   0.00000  Uiso   1.00
C1651  C     0.22966   0.83536   0.74815   0.00000  Uiso   1.00
C1652  C     0.22286   0.58353   0.95535   0.00000  Uiso   1.00
C1653  C     0.24821   0.61730   0.92453   0.00000  Uiso   1.00
C1654  C     0.22730   0.66466   0.92031   0.00000  Uiso   1.00
C1655  C     0.27771   0.58143   0.70465   0.00000  Uiso   1.00
C1656  C     0.19029   0.55872   0.83289   0.00000  Uiso   1.00
C1657  C     0.25260   0.61639   0.73196   0.00000  Uiso   1.00
C1658  C     0.26842   0.66582   0.72482   0.00000  Uiso   1.00
C1659  C     0.27659   0.91745   0.96087   0.00000  Uiso   1.00
C1660  C     0.24950   0.88496   0.93276   0.00000  Uiso   1.00
C1661  C     0.26021   0.83395   0.94140   0.00000  Uiso   1.00
C1662  C     0.18992   0.94175   0.83381   0.00000  Uiso   1.00
C1663  C     0.30923   0.55944   0.83314   0.00000  Uiso   1.00
C1664  C     0.49722   0.70943   0.69211   0.00000  Uiso   1.00
Cu1665 Cu    0.00000   0.75000   0.88022   0.00000  Uiso   1.00
Cu1666 Cu    0.00000   0.75000   0.78645   0.00000  Uiso   1.00
Cu1667 Cu    0.25000   0.50000   0.88022   0.00000  Uiso   1.00
Cu1668 Cu    0.25000   0.50000   0.78645   0.00000  Uiso   1.00
H1669  H     0.39250   0.66765   0.76220   0.00000  Uiso   1.00
H1670  H     0.34895   0.59182   0.90741   0.00000  Uiso   1.00
H1671  H     0.34319   0.60742   0.76096   0.00000  Uiso   1.00
H1672  H     0.15741   0.89396   0.90727   0.00000  Uiso   1.00
H1673  H     0.33514   0.88307   0.90338   0.00000  Uiso   1.00
H1674  H     0.16724   0.61830   0.76410   0.00000  Uiso   1.00
H1675  H     0.13283   0.56876   0.89873   0.00000  Uiso   1.00
H1676  H     0.35535   0.91630   0.76096   0.00000  Uiso   1.00
H1677  H     0.47164   0.57307   0.73947   0.00000  Uiso   1.00
H1678  H     0.01937   0.57239   0.70650   0.00000  Uiso   1.00
H1679  H     0.02117   0.56447   0.76715   0.00000  Uiso   1.00
H1680  H     0.10404   0.83555   0.90625   0.00000  Uiso   1.00
H1681  H     0.04248   0.64423   0.73639   0.00000  Uiso   1.00
H1682  H     0.00227   0.64133   0.77967   0.00000  Uiso   1.00
H1683  H     0.45002   0.66965   0.72784   0.00000  Uiso   1.00
H1684  H     0.46991   0.64159   0.68483   0.00000  Uiso   1.00
H1685  H     0.44762   0.91167   0.90399   0.00000  Uiso   1.00
H1686  H     0.47651   0.93108   0.95235   0.00000  Uiso   1.00
H1687  H     0.49807   0.93747   0.89600   0.00000  Uiso   1.00
H1688  H     0.03166   0.87107   0.93662   0.00000  Uiso   1.00
H1689  H     0.00126   0.85476   0.88911   0.00000  Uiso   1.00
H1690  H     0.44386   0.82519   0.94105   0.00000  Uiso   1.00
H1691  H     0.08704   0.86462   0.76251   0.00000  Uiso   1.00
H1692  H     0.46334   0.85493   0.98378   0.00000  Uiso   1.00
H1693  H     0.04428   0.92216   0.73555   0.00000  Uiso   1.00
H1694  H     0.00781   0.92671   0.68921   0.00000  Uiso   1.00
H1695  H     0.49132   0.93832   0.74617   0.00000  Uiso   1.00
H1696  H     0.46665   0.86213   0.72411   0.00000  Uiso   1.00
H1697  H     0.00226   0.85772   0.77046   0.00000  Uiso   1.00
H1698  H     0.05492   0.82033   0.72162   0.00000  Uiso   1.00
H1699  H     0.03890   0.85231   0.67603   0.00000  Uiso   1.00
H1700  H     0.03500   0.57473   0.94323   0.00000  Uiso   1.00
H1701  H     0.48557   0.57369   0.97264   0.00000  Uiso   1.00
H1702  H     0.40220   0.65038   0.90812   0.00000  Uiso   1.00
H1703  H     0.48743   0.56510   0.91273   0.00000  Uiso   1.00
H1704  H     0.46357   0.64493   0.93883   0.00000  Uiso   1.00
H1705  H     0.00165   0.64238   0.89448   0.00000  Uiso   1.00
H1706  H     0.05472   0.67600   0.94337   0.00000  Uiso   1.00
H1707  H     0.03744   0.64467   0.98845   0.00000  Uiso   1.00
H1708  H     0.19822   0.83881   0.76312   0.00000  Uiso   1.00
H1709  H     0.22688   0.81876   0.71491   0.00000  Uiso   1.00
H1710  H     0.24859   0.81259   0.77123   0.00000  Uiso   1.00
H1711  H     0.28235   0.87845   0.73021   0.00000  Uiso   1.00
H1712  H     0.25189   0.89530   0.77757   0.00000  Uiso   1.00
H1713  H     0.07772   0.62481   0.89932   0.00000  Uiso   1.00
H1714  H     0.19470   0.92493   0.72530   0.00000  Uiso   1.00
H1715  H     0.21433   0.89500   0.68268   0.00000  Uiso   1.00
H1716  H     0.19575   0.66141   0.90552   0.00000  Uiso   1.00
H1717  H     0.22481   0.68042   0.95408   0.00000  Uiso   1.00
H1718  H     0.24593   0.68794   0.89756   0.00000  Uiso   1.00
H1719  H     0.28012   0.62165   0.93760   0.00000  Uiso   1.00
H1720  H     0.25060   0.60527   0.88963   0.00000  Uiso   1.00
H1721  H     0.19268   0.57441   0.94081   0.00000  Uiso   1.00
H1722  H     0.21169   0.60379   0.98396   0.00000  Uiso   1.00
H1723  H     0.30118   0.66867   0.73577   0.00000  Uiso   1.00
H1724  H     0.40866   0.85764   0.75979   0.00000  Uiso   1.00
H1725  H     0.26605   0.67698   0.68842   0.00000  Uiso   1.00
H1726  H     0.24933   0.68951   0.74515   0.00000  Uiso   1.00
H1727  H     0.21997   0.61602   0.72104   0.00000  Uiso   1.00
H1728  H     0.25327   0.60791   0.76884   0.00000  Uiso   1.00
H1729  H     0.30588   0.56815   0.72104   0.00000  Uiso   1.00
H1730  H     0.29132   0.60005   0.67478   0.00000  Uiso   1.00
H1731  H     0.29281   0.82665   0.93207   0.00000  Uiso   1.00
H1732  H     0.25567   0.82388   0.97772   0.00000  Uiso   1.00
H1733  H     0.23959   0.81238   0.92061   0.00000  Uiso   1.00
H1734  H     0.21658   0.88970   0.94161   0.00000  Uiso   1.00
H1735  H     0.38702   0.82461   0.90185   0.00000  Uiso   1.00
H1736  H     0.25283   0.89223   0.89586   0.00000  Uiso   1.00
H1737  H     0.30550   0.92912   0.94483   0.00000  Uiso   1.00
H1738  H     0.28927   0.89714   0.99032   0.00000  Uiso   1.00
H1739  H     0.11336   0.67635   0.76559   0.00000  Uiso   1.00
H1740  H     0.13822   0.92344   0.76407   0.00000  Uiso   1.00
N1741  N     0.00000   0.75000   0.95069   0.00000  Uiso   1.00
N1742  N     0.00000   0.75000   0.71598   0.00000  Uiso   1.00
N1743  N     0.25000   0.50000   0.95069   0.00000  Uiso   1.00
N1744  N     0.25000   0.50000   0.71598   0.00000  Uiso   1.00
O1745  O     0.04509   0.70491   0.87291   0.00000  Uiso   1.00
O1746  O     0.20492   0.54509   0.79375   0.00000  Uiso   1.00
O1747  O     0.20492   0.54509   0.87291   0.00000  Uiso   1.00
O1748  O     0.29509   0.95491   0.79375   0.00000  Uiso   1.00
O1749  O     0.20492   0.95491   0.79375   0.00000  Uiso   1.00
O1750  O     0.29509   0.54509   0.87291   0.00000  Uiso   1.00
O1751  O     0.29509   0.54509   0.79375   0.00000  Uiso   1.00
O1752  O     0.20492   0.95491   0.87291   0.00000  Uiso   1.00
O1753  O     0.45492   0.79509   0.79375   0.00000  Uiso   1.00
O1754  O     0.45492   0.79509   0.87291   0.00000  Uiso   1.00
O1755  O     0.04509   0.70491   0.79375   0.00000  Uiso   1.00
O1756  O     0.45492   0.70491   0.79375   0.00000  Uiso   1.00
O1757  O     0.04509   0.79509   0.87291   0.00000  Uiso   1.00
O1758  O     0.04509   0.79509   0.79375   0.00000  Uiso   1.00
O1759  O     0.45492   0.70491   0.87291   0.00000  Uiso   1.00
O1760  O     0.29509   0.95491   0.87291   0.00000  Uiso   1.00
C1761  C     0.55913   0.69049   0.83367   0.00000  Uiso   1.00
C1762  C     0.99543   0.79031   0.97460   0.00000  Uiso   1.00
C1763  C     0.50374   0.79015   0.68920   0.00000  Uiso   1.00
C1764  C     0.50522   0.70986   0.97739   0.00000  Uiso   1.00
C1765  C     0.74623   0.95958   0.69213   0.00000  Uiso   1.00
C1766  C     0.74500   0.54020   0.97457   0.00000  Uiso   1.00
C1767  C     0.75374   0.54009   0.68909   0.00000  Uiso   1.00
C1768  C     0.75466   0.95992   0.97753   0.00000  Uiso   1.00
C1769  C     0.88529   0.64967   0.79386   0.00000  Uiso   1.00
C1770  C     0.61204   0.85370   0.87463   0.00000  Uiso   1.00
C1771  C     0.60239   0.86952   0.79404   0.00000  Uiso   1.00
C1772  C     0.93993   0.80823   0.83283   0.00000  Uiso   1.00
C1773  C     0.89012   0.64040   0.87571   0.00000  Uiso   1.00
C1774  C     0.59798   0.62526   0.87053   0.00000  Uiso   1.00
C1775  C     0.89370   0.86407   0.79165   0.00000  Uiso   1.00
C1776  C     0.88193   0.84587   0.87149   0.00000  Uiso   1.00
C1777  C     0.61753   0.65325   0.79504   0.00000  Uiso   1.00
C1778  C     0.63270   0.90297   0.79479   0.00000  Uiso   1.00
C1779  C     0.85917   0.60720   0.87524   0.00000  Uiso   1.00
C1780  C     0.85551   0.61574   0.79326   0.00000  Uiso   1.00
C1781  C     0.64302   0.88681   0.87523   0.00000  Uiso   1.00
C1782  C     0.85140   0.87921   0.87226   0.00000  Uiso   1.00
C1783  C     0.93980   0.69190   0.83379   0.00000  Uiso   1.00
C1784  C     0.64867   0.62032   0.79421   0.00000  Uiso   1.00
C1785  C     0.62952   0.59284   0.86998   0.00000  Uiso   1.00
C1786  C     0.86274   0.89727   0.79232   0.00000  Uiso   1.00
C1787  C     0.59200   0.84412   0.83359   0.00000  Uiso   1.00
C1788  C     0.90462   0.66041   0.83466   0.00000  Uiso   1.00
C1789  C     0.90477   0.83972   0.83183   0.00000  Uiso   1.00
C1790  C     0.59229   0.65634   0.83358   0.00000  Uiso   1.00
C1791  C     0.84206   0.59404   0.83366   0.00000  Uiso   1.00
C1792  C     0.65481   0.91019   0.83478   0.00000  Uiso   1.00
C1793  C     0.65572   0.59097   0.83220   0.00000  Uiso   1.00
C1794  C     0.55918   0.80950   0.83311   0.00000  Uiso   1.00
C1795  C     0.84193   0.90579   0.83311   0.00000  Uiso   1.00
C1796  C     0.98016   0.66385   0.71251   0.00000  Uiso   1.00
C1797  C     0.50966   0.63509   0.74369   0.00000  Uiso   1.00
C1798  C     0.50489   0.58308   0.73865   0.00000  Uiso   1.00
C1799  C     0.97403   0.83409   0.95527   0.00000  Uiso   1.00
C1800  C     0.99954   0.86713   0.92387   0.00000  Uiso   1.00
C1801  C     0.97912   0.91472   0.91894   0.00000  Uiso   1.00
C1802  C     0.52610   0.83238   0.70557   0.00000  Uiso   1.00
C1803  C     0.99954   0.86553   0.73359   0.00000  Uiso   1.00
C1804  C     0.51164   0.91617   0.72556   0.00000  Uiso   1.00
C1805  C     0.80915   0.94047   0.83358   0.00000  Uiso   1.00
C1806  C     0.52525   0.66639   0.95963   0.00000  Uiso   1.00
C1807  C     0.99617   0.63627   0.93124   0.00000  Uiso   1.00
C1808  C     0.50171   0.58438   0.94075   0.00000  Uiso   1.00
C1809  C     0.72487   0.91583   0.71125   0.00000  Uiso   1.00
C1810  C     0.75025   0.88274   0.74289   0.00000  Uiso   1.00
C1811  C     0.72966   0.83536   0.74815   0.00000  Uiso   1.00
C1812  C     0.72286   0.58353   0.95535   0.00000  Uiso   1.00
C1813  C     0.74821   0.61730   0.92453   0.00000  Uiso   1.00
C1814  C     0.72730   0.66466   0.92031   0.00000  Uiso   1.00
C1815  C     0.77771   0.58143   0.70465   0.00000  Uiso   1.00
C1816  C     0.69029   0.55872   0.83289   0.00000  Uiso   1.00
C1817  C     0.75260   0.61639   0.73196   0.00000  Uiso   1.00
C1818  C     0.76842   0.66582   0.72482   0.00000  Uiso   1.00
C1819  C     0.77659   0.91745   0.96087   0.00000  Uiso   1.00
C1820  C     0.74950   0.88496   0.93276   0.00000  Uiso   1.00
C1821  C     0.76021   0.83395   0.94140   0.00000  Uiso   1.00
C1822  C     0.68992   0.94175   0.83381   0.00000  Uiso   1.00
C1823  C     0.80923   0.55944   0.83314   0.00000  Uiso   1.00
C1824  C     0.99722   0.70943   0.69211   0.00000  Uiso   1.00
Cu1825 Cu    0.50000   0.75000   0.88022   0.00000  Uiso   1.00
Cu1826 Cu    0.50000   0.75000   0.78645   0.00000  Uiso   1.00
Cu1827 Cu    0.75000   0.50000   0.88022   0.00000  Uiso   1.00
Cu1828 Cu    0.75000   0.50000   0.78645   0.00000  Uiso   1.00
H1829  H     0.89250   0.66765   0.76220   0.00000  Uiso   1.00
H1830  H     0.84895   0.59182   0.90741   0.00000  Uiso   1.00
H1831  H     0.84319   0.60742   0.76096   0.00000  Uiso   1.00
H1832  H     0.65741   0.89396   0.90727   0.00000  Uiso   1.00
H1833  H     0.83514   0.88307   0.90338   0.00000  Uiso   1.00
H1834  H     0.66724   0.61830   0.76410   0.00000  Uiso   1.00
H1835  H     0.63283   0.56876   0.89873   0.00000  Uiso   1.00
H1836  H     0.85535   0.91630   0.76096   0.00000  Uiso   1.00
H1837  H     0.97164   0.57307   0.73947   0.00000  Uiso   1.00
H1838  H     0.51937   0.57239   0.70650   0.00000  Uiso   1.00
H1839  H     0.52117   0.56447   0.76715   0.00000  Uiso   1.00
H1840  H     0.60404   0.83555   0.90625   0.00000  Uiso   1.00
H1841  H     0.54248   0.64423   0.73639   0.00000  Uiso   1.00
H1842  H     0.50227   0.64133   0.77967   0.00000  Uiso   1.00
H1843  H     0.95002   0.66965   0.72784   0.00000  Uiso   1.00
H1844  H     0.96991   0.64159   0.68483   0.00000  Uiso   1.00
H1845  H     0.94762   0.91167   0.90399   0.00000  Uiso   1.00
H1846  H     0.97651   0.93108   0.95235   0.00000  Uiso   1.00
H1847  H     0.99807   0.93747   0.89600   0.00000  Uiso   1.00
H1848  H     0.53166   0.87107   0.93662   0.00000  Uiso   1.00
H1849  H     0.50126   0.85476   0.88911   0.00000  Uiso   1.00
H1850  H     0.94386   0.82519   0.94105   0.00000  Uiso   1.00
H1851  H     0.58704   0.86462   0.76251   0.00000  Uiso   1.00
H1852  H     0.96334   0.85493   0.98378   0.00000  Uiso   1.00
H1853  H     0.54428   0.92216   0.73555   0.00000  Uiso   1.00
H1854  H     0.50781   0.92671   0.68921   0.00000  Uiso   1.00
H1855  H     0.99132   0.93832   0.74617   0.00000  Uiso   1.00
H1856  H     0.96665   0.86213   0.72411   0.00000  Uiso   1.00
H1857  H     0.50226   0.85772   0.77046   0.00000  Uiso   1.00
H1858  H     0.55492   0.82033   0.72162   0.00000  Uiso   1.00
H1859  H     0.53890   0.85231   0.67603   0.00000  Uiso   1.00
H1860  H     0.53500   0.57473   0.94323   0.00000  Uiso   1.00
H1861  H     0.98557   0.57369   0.97264   0.00000  Uiso   1.00
H1862  H     0.90220   0.65038   0.90812   0.00000  Uiso   1.00
H1863  H     0.98743   0.56510   0.91273   0.00000  Uiso   1.00
H1864  H     0.96357   0.64493   0.93883   0.00000  Uiso   1.00
H1865  H     0.50165   0.64238   0.89448   0.00000  Uiso   1.00
H1866  H     0.55472   0.67600   0.94337   0.00000  Uiso   1.00
H1867  H     0.53744   0.64467   0.98845   0.00000  Uiso   1.00
H1868  H     0.69822   0.83881   0.76312   0.00000  Uiso   1.00
H1869  H     0.72688   0.81876   0.71491   0.00000  Uiso   1.00
H1870  H     0.74859   0.81259   0.77123   0.00000  Uiso   1.00
H1871  H     0.78235   0.87845   0.73021   0.00000  Uiso   1.00
H1872  H     0.75189   0.89530   0.77757   0.00000  Uiso   1.00
H1873  H     0.57772   0.62481   0.89932   0.00000  Uiso   1.00
H1874  H     0.69470   0.92493   0.72530   0.00000  Uiso   1.00
H1875  H     0.71433   0.89500   0.68268   0.00000  Uiso   1.00
H1876  H     0.69575   0.66141   0.90552   0.00000  Uiso   1.00
H1877  H     0.72481   0.68042   0.95408   0.00000  Uiso   1.00
H1878  H     0.74593   0.68794   0.89756   0.00000  Uiso   1.00
H1879  H     0.78012   0.62165   0.93760   0.00000  Uiso   1.00
H1880  H     0.75060   0.60527   0.88963   0.00000  Uiso   1.00
H1881  H     0.69268   0.57441   0.94081   0.00000  Uiso   1.00
H1882  H     0.71169   0.60379   0.98396   0.00000  Uiso   1.00
H1883  H     0.80118   0.66867   0.73577   0.00000  Uiso   1.00
H1884  H     0.90866   0.85764   0.75979   0.00000  Uiso   1.00
H1885  H     0.76605   0.67698   0.68842   0.00000  Uiso   1.00
H1886  H     0.74933   0.68951   0.74515   0.00000  Uiso   1.00
H1887  H     0.71997   0.61602   0.72104   0.00000  Uiso   1.00
H1888  H     0.75327   0.60791   0.76884   0.00000  Uiso   1.00
H1889  H     0.80588   0.56815   0.72104   0.00000  Uiso   1.00
H1890  H     0.79132   0.60005   0.67478   0.00000  Uiso   1.00
H1891  H     0.79281   0.82665   0.93207   0.00000  Uiso   1.00
H1892  H     0.75567   0.82388   0.97772   0.00000  Uiso   1.00
H1893  H     0.73959   0.81238   0.92061   0.00000  Uiso   1.00
H1894  H     0.71658   0.88970   0.94161   0.00000  Uiso   1.00
H1895  H     0.88702   0.82461   0.90185   0.00000  Uiso   1.00
H1896  H     0.75283   0.89223   0.89586   0.00000  Uiso   1.00
H1897  H     0.80550   0.92912   0.94483   0.00000  Uiso   1.00
H1898  H     0.78927   0.89714   0.99032   0.00000  Uiso   1.00
H1899  H     0.61336   0.67635   0.76559   0.00000  Uiso   1.00
H1900  H     0.63822   0.92344   0.76407   0.00000  Uiso   1.00
N1901  N     0.50000   0.75000   0.95069   0.00000  Uiso   1.00
N1902  N     0.50000   0.75000   0.71598   0.00000  Uiso   1.00
N1903  N     0.75000   0.50000   0.95069   0.00000  Uiso   1.00
N1904  N     0.75000   0.50000   0.71598   0.00000  Uiso   1.00
O1905  O     0.54509   0.70491   0.87291   0.00000  Uiso   1.00
O1906  O     0.70492   0.54509   0.79375   0.00000  Uiso   1.00
O1907  O     0.70492   0.54509   0.87291   0.00000  Uiso   1.00
O1908  O     0.79509   0.95491   0.79375   0.00000  Uiso   1.00
O1909  O     0.70492   0.95491   0.79375   0.00000  Uiso   1.00
O1910  O     0.79509   0.54509   0.87291   0.00000  Uiso   1.00
O1911  O     0.79509   0.54509   0.79375   0.00000  Uiso   1.00
O1912  O     0.70492   0.95491   0.87291   0.00000  Uiso   1.00
O1913  O     0.95492   0.79509   0.79375   0.00000  Uiso   1.00
O1914  O     0.95492   0.79509   0.87291   0.00000  Uiso   1.00
O1915  O     0.54509   0.70491   0.79375   0.00000  Uiso   1.00
O1916  O     0.95492   0.70491   0.79375   0.00000  Uiso   1.00
O1917  O     0.54509   0.79509   0.87291   0.00000  Uiso   1.00
O1918  O     0.54509   0.79509   0.79375   0.00000  Uiso   1.00
O1919  O     0.95492   0.70491   0.87291   0.00000  Uiso   1.00
O1920  O     0.79509   0.95491   0.87291   0.00000  Uiso   1.00
loop_
_geom_bond_atom_site_label_1
_geom_bond_atom_site_label_2
_geom_bond_distance
_geom_bond_site_symmetry_2
_ccdc_geom_bond_type
C1     O145    1.320   .     A
C1     O155    1.311   .     A
C1     C30     1.455   .     S
C2     C39     1.534   .     S
C2     C803    1.433   .     S
C2     N301    1.391   .     S
C3     C42     1.514   .     S
C3     N142    1.387   .     A
C3     C1442   1.433   1_454 S
C4     C46     1.523   .     S
C4     N141    1.390   .     A
C4     C864    1.435   1_455 S
C5     N464    1.391   .     A
C5     C49     1.534   .     S
C5     C1288   1.434   1_554 S
C6     C52     1.533   .     S
C6     C647    1.433   .     S
C6     N143    1.390   .     S
C7     C55     1.511   .     S
C7     C1286   1.433   1_554 S
C7     N144    1.388   .     S
C8     C59     1.514   .     S
C8     N463    1.389   .     A
C8     C645    1.434   .     S
C9     H69     1.076   .     S
C9     C20     1.376   .     A
C9     C28     1.396   .     A
C10    C27     1.404   .     A
C10    C21     1.387   .     A
C10    H80     1.083   .     S
C11    C18     1.379   .     A
C11    C27     1.395   .     A
C11    H91     1.064   .     S
C12    C29     1.453   .     S
C12    O153    1.314   .     A
C12    O154    1.316   .     A
C13    C19     1.388   .     A
C13    C28     1.401   .     A
C13    H102    1.078   .     S
C14    C30     1.398   .     A
C14    H113    1.069   .     S
C14    C25     1.383   .     A
C15    C29     1.400   .     A
C15    H124    1.075   .     S
C15    C26     1.385   .     A
C16    C29     1.395   .     A
C16    C22     1.378   .     A
C16    H135    1.079   .     S
C17    C30     1.400   .     A
C17    C24     1.384   .     A
C17    H139    1.083   .     S
C18    H140    1.078   .     S
C18    C32     1.396   .     A
C19    C31     1.405   .     A
C19    H70     1.083   .     S
C20    H71     1.064   .     S
C20    C31     1.394   .     A
C21    C32     1.401   .     A
C21    H72     1.076   .     S
C22    C35     1.395   .     A
C22    H73     1.063   .     S
C23    O159    1.316   .     A
C23    O156    1.317   .     A
C23    C28     1.457   .     S
C24    C33     1.398   .     A
C24    H74     1.072   .     S
C25    H75     1.082   .     S
C25    C33     1.398   .     A
C26    H76     1.083   .     S
C26    C35     1.403   .     A
C27    C34     1.460   .     S
C31    C63     1.460   .     S
C32    C62     1.456   .     S
C33    C56     1.452   .     S
C34    O158    1.323   .     A
C34    O157    1.310   .     A
C35    C45     1.457   .     S
C36    H83     1.086   .     S
C36    H84     1.106   .     S
C36    C64     1.535   .     S
C36    C197    1.543   .     S
C37    C38     1.528   .     S
C37    H81     1.110   .     S
C37    H82     1.105   .     S
C37    C196    1.543   1_455 S
C38    H79     1.111   .     S
C38    H78     1.107   .     S
C38    H237    1.111   1_455 S
C39    H90     1.093   .     S
C39    H92     1.104   .     S
C39    C40     1.545   .     S
C40    C41     1.529   .     S
C40    H248    1.108   .     S
C40    H249    1.096   .     S
C41    H87     1.111   .     S
C41    H86     1.108   .     S
C41    H85     1.111   .     S
C42    H98     1.093   .     S
C42    H99     1.106   .     S
C42    C203    1.544   1_455 S
C43    H96     1.101   .     S
C43    C202    1.544   .     S
C43    C204    1.530   .     S
C43    H257    1.102   .     S
C44    H93     1.108   .     S
C44    H94     1.107   .     S
C44    C203    1.530   1_455 S
C44    H255    1.111   1_455 S
C45    O148    1.309   .     A
C45    O160    1.323   .     A
C46    H107    1.109   .     S
C46    H106    1.096   .     S
C46    C207    1.546   1_455 S
C47    H104    1.104   .     S
C47    C206    1.546   .     S
C47    C208    1.530   .     S
C47    H265    1.103   .     S
C48    H100    1.110   .     S
C48    C207    1.530   1_455 S
C48    H261    1.107   1_455 S
C48    H263    1.111   1_455 S
C49    H114    1.092   .     S
C49    H115    1.105   .     S
C49    C50     1.545   .     S
C50    H112    1.095   .     S
C50    C51     1.529   .     S
C50    H111    1.108   .     S
C51    H108    1.111   .     S
C51    H109    1.107   .     S
C51    H110    1.111   .     S
C52    H122    1.102   .     S
C52    H121    1.098   .     S
C52    C53     1.545   .     S
C53    H120    1.097   .     S
C53    C54     1.529   .     S
C53    H119    1.107   .     S
C54    H116    1.111   .     S
C54    H118    1.111   .     S
C54    H117    1.109   .     S
C55    H129    1.091   .     S
C55    H130    1.106   .     S
C55    C57     1.542   .     S
C56    O147    1.314   .     A
C56    O146    1.316   .     A
C57    H128    1.103   .     S
C57    H127    1.099   .     S
C57    C58     1.529   .     S
C58    H123    1.108   .     S
C58    H126    1.111   .     S
C58    H125    1.109   .     S
C59    H137    1.093   .     S
C59    C60     1.546   .     S
C59    H138    1.107   .     S
C60    H136    1.102   .     S
C60    C61     1.530   .     S
C60    H134    1.102   .     S
C61    H133    1.111   .     S
C61    H132    1.106   .     S
C61    H131    1.108   .     S
C62    O149    1.317   .     A
C62    O152    1.315   .     A
C63    O150    1.309   .     A
C63    O151    1.324   .     A
C64    C1444   1.435   1_554 S
C64    N302    1.393   .     S
Cu65   O319    1.973   1_455 S
Cu65   O314    1.959   1_455 S
Cu65   Cu66    2.755   .     S
Cu65   N141    2.070   .     S
Cu65   O145    1.969   .     S
Cu65   O157    1.963   .     S
Cu66   O313    1.969   1_455 S
Cu66   O316    1.963   1_455 S
Cu66   N142    2.070   .     S
Cu66   O155    1.959   .     S
Cu66   O158    1.973   .     S
Cu67   O480    1.969   1_545 S
Cu67   N143    2.070   .     S
Cu67   Cu68    2.755   .     S
Cu67   O472    1.973   1_545 S
Cu67   O147    1.959   .     S
Cu67   O150    1.963   .     S
Cu68   O469    1.963   1_545 S
Cu68   O468    1.959   1_545 S
Cu68   N144    2.070   .     S
Cu68   O146    1.969   .     S
Cu68   O151    1.973   .     S
H77    C198    1.111   .     S
H88    C200    1.108   1_455 S
H89    C200    1.096   1_455 S
H95    C204    1.111   .     S
H97    C203    1.102   1_455 S
H101   C208    1.107   .     S
H103   C208    1.111   .     S
H105   C207    1.103   1_455 S
N141   C162    1.391   1_455 S
N142   C224    1.393   1_455 S
N143   C328    1.389   1_545 A
N144   C325    1.391   1_545 A
O148   Cu388   1.959   .     S
O149   Cu388   1.963   .     S
O152   Cu387   1.973   .     S
O153   Cu226   1.969   .     S
O154   Cu225   1.959   .     S
O156   Cu226   1.963   .     S
O159   Cu225   1.973   .     S
O160   Cu387   1.969   .     S
C161   O305    1.320   .     A
C161   O315    1.311   .     A
C161   C190    1.455   .     S
C162   C199    1.534   .     S
C162   C643    1.433   1_655 S
C162   N141    1.391   1_655 S
C163   C202    1.514   .     S
C163   N302    1.387   .     A
C163   C1282   1.433   1_554 S
C164   C206    1.523   .     S
C164   N301    1.390   .     A
C164   C704    1.435   .     S
C165   N624    1.391   .     A
C165   C209    1.534   .     S
C165   C1448   1.434   1_554 S
C166   C212    1.533   .     S
C166   C807    1.433   .     S
C166   N303    1.390   .     S
C167   C215    1.511   .     S
C167   C1446   1.433   1_554 S
C167   N304    1.388   .     S
C168   C219    1.514   .     S
C168   N623    1.389   .     A
C168   C805    1.434   .     S
C169   H229    1.076   .     S
C169   C180    1.376   .     A
C169   C188    1.396   .     A
C170   C187    1.404   .     A
C170   C181    1.387   .     A
C170   H240    1.083   .     S
C171   C178    1.379   .     A
C171   C187    1.395   .     A
C171   H251    1.064   .     S
C172   C189    1.453   .     S
C172   O313    1.314   .     A
C172   O314    1.316   .     A
C173   C179    1.388   .     A
C173   C188    1.401   .     A
C173   H262    1.078   .     S
C174   C190    1.398   .     A
C174   H273    1.069   .     S
C174   C185    1.383   .     A
C175   C189    1.400   .     A
C175   H284    1.075   .     S
C175   C186    1.385   .     A
C176   C189    1.395   .     A
C176   C182    1.378   .     A
C176   H295    1.079   .     S
C177   C190    1.400   .     A
C177   C184    1.384   .     A
C177   H299    1.083   .     S
C178   H300    1.078   .     S
C178   C192    1.396   .     A
C179   C191    1.405   .     A
C179   H230    1.083   .     S
C180   H231    1.064   .     S
C180   C191    1.394   .     A
C181   C192    1.401   .     A
C181   H232    1.076   .     S
C182   C195    1.395   .     A
C182   H233    1.063   .     S
C183   O319    1.316   .     A
C183   O316    1.317   .     A
C183   C188    1.457   .     S
C184   C193    1.398   .     A
C184   H234    1.072   .     S
C185   H235    1.082   .     S
C185   C193    1.398   .     A
C186   H236    1.083   .     S
C186   C195    1.403   .     A
C187   C194    1.460   .     S
C191   C223    1.460   .     S
C192   C222    1.456   .     S
C193   C216    1.452   .     S
C194   O318    1.323   .     A
C194   O317    1.310   .     A
C195   C205    1.457   .     S
C196   H243    1.086   .     S
C196   H244    1.106   .     S
C196   C224    1.535   .     S
C196   C37     1.543   1_655 S
C197   C198    1.528   .     S
C197   H241    1.110   .     S
C197   H242    1.105   .     S
C198   H239    1.111   .     S
C198   H238    1.107   .     S
C199   H250    1.093   .     S
C199   H252    1.104   .     S
C199   C200    1.545   .     S
C200   C201    1.529   .     S
C200   H88     1.108   1_655 S
C200   H89     1.096   1_655 S
C201   H247    1.111   .     S
C201   H246    1.108   .     S
C201   H245    1.111   .     S
C202   H258    1.093   .     S
C202   H259    1.106   .     S
C203   H256    1.101   .     S
C203   C42     1.544   1_655 S
C203   C44     1.530   1_655 S
C203   H97     1.102   1_655 S
C204   H253    1.108   .     S
C204   H254    1.107   .     S
C205   O308    1.309   .     A
C205   O320    1.323   .     A
C206   H267    1.109   .     S
C206   H266    1.096   .     S
C207   H264    1.104   .     S
C207   C46     1.546   1_655 S
C207   C48     1.530   1_655 S
C207   H105    1.103   1_655 S
C208   H260    1.110   .     S
C209   H274    1.092   .     S
C209   H275    1.105   .     S
C209   C210    1.545   .     S
C210   H272    1.095   .     S
C210   C211    1.529   .     S
C210   H271    1.108   .     S
C211   H268    1.111   .     S
C211   H269    1.107   .     S
C211   H270    1.111   .     S
C212   H282    1.102   .     S
C212   H281    1.098   .     S
C212   C213    1.545   .     S
C213   H280    1.097   .     S
C213   C214    1.529   .     S
C213   H279    1.107   .     S
C214   H276    1.111   .     S
C214   H278    1.111   .     S
C214   H277    1.109   .     S
C215   H289    1.091   .     S
C215   H290    1.106   .     S
C215   C217    1.542   .     S
C216   O307    1.314   .     A
C216   O306    1.316   .     A
C217   H288    1.103   .     S
C217   H287    1.099   .     S
C217   C218    1.529   .     S
C218   H283    1.108   .     S
C218   H286    1.111   .     S
C218   H285    1.109   .     S
C219   H297    1.093   .     S
C219   C220    1.546   .     S
C219   H298    1.107   .     S
C220   H296    1.102   .     S
C220   C221    1.530   .     S
C220   H294    1.102   .     S
C221   H293    1.111   .     S
C221   H292    1.106   .     S
C221   H291    1.108   .     S
C222   O309    1.317   .     A
C222   O312    1.315   .     A
C223   O310    1.309   .     A
C223   O311    1.324   .     A
C224   C1284   1.435   1_654 S
C224   N142    1.393   1_655 S
Cu225  Cu226   2.755   .     S
Cu225  N301    2.070   .     S
Cu225  O305    1.969   .     S
Cu225  O317    1.963   .     S
Cu226  N302    2.070   .     S
Cu226  O315    1.959   .     S
Cu226  O318    1.973   .     S
Cu227  O640    1.969   1_545 S
Cu227  N303    2.070   .     S
Cu227  Cu228   2.755   .     S
Cu227  O632    1.973   1_545 S
Cu227  O307    1.959   .     S
Cu227  O310    1.963   .     S
Cu228  O629    1.963   1_545 S
Cu228  O628    1.959   1_545 S
Cu228  N304    2.070   .     S
Cu228  O306    1.969   .     S
Cu228  O311    1.973   .     S
H237   C38     1.111   1_655 S
H255   C44     1.111   1_655 S
H261   C48     1.107   1_655 S
H263   C48     1.111   1_655 S
N303   C488    1.389   1_545 A
N304   C485    1.391   1_545 A
O308   Cu548   1.959   .     S
O309   Cu548   1.963   .     S
O312   Cu547   1.973   .     S
O313   Cu66    1.969   1_655 S
O314   Cu65    1.959   1_655 S
O316   Cu66    1.963   1_655 S
O319   Cu65    1.973   1_655 S
O320   Cu547   1.969   .     S
C321   O465    1.320   .     A
C321   O475    1.311   .     A
C321   C350    1.455   .     S
C322   C359    1.534   .     S
C322   C1123   1.433   .     S
C322   N621    1.391   .     S
C323   C362    1.514   .     S
C323   N462    1.387   .     A
C323   C1762   1.433   1_454 S
C324   C366    1.523   .     S
C324   N461    1.390   .     A
C324   C1184   1.435   1_455 S
C325   N144    1.391   1_565 A
C325   C369    1.534   .     S
C325   C1608   1.434   1_554 S
C326   C372    1.533   .     S
C326   C967    1.433   .     S
C326   N463    1.390   .     S
C327   C375    1.511   .     S
C327   C1606   1.433   1_554 S
C327   N464    1.388   .     S
C328   C379    1.514   .     S
C328   N143    1.389   1_565 A
C328   C965    1.434   .     S
C329   H389    1.076   .     S
C329   C340    1.376   .     A
C329   C348    1.396   .     A
C330   C347    1.404   .     A
C330   C341    1.387   .     A
C330   H400    1.083   .     S
C331   C338    1.379   .     A
C331   C347    1.395   .     A
C331   H411    1.064   .     S
C332   C349    1.453   .     S
C332   O473    1.314   .     A
C332   O474    1.316   .     A
C333   C339    1.388   .     A
C333   C348    1.401   .     A
C333   H422    1.078   .     S
C334   C350    1.398   .     A
C334   H433    1.069   .     S
C334   C345    1.383   .     A
C335   C349    1.400   .     A
C335   H444    1.075   .     S
C335   C346    1.385   .     A
C336   C349    1.395   .     A
C336   C342    1.378   .     A
C336   H455    1.079   .     S
C337   C350    1.400   .     A
C337   C344    1.384   .     A
C337   H459    1.083   .     S
C338   H460    1.078   .     S
C338   C352    1.396   .     A
C339   C351    1.405   .     A
C339   H390    1.083   .     S
C340   H391    1.064   .     S
C340   C351    1.394   .     A
C341   C352    1.401   .     A
C341   H392    1.076   .     S
C342   C355    1.395   .     A
C342   H393    1.063   .     S
C343   O479    1.316   .     A
C343   O476    1.317   .     A
C343   C348    1.457   .     S
C344   C353    1.398   .     A
C344   H394    1.072   .     S
C345   H395    1.082   .     S
C345   C353    1.398   .     A
C346   H396    1.083   .     S
C346   C355    1.403   .     A
C347   C354    1.460   .     S
C351   C383    1.460   .     S
C352   C382    1.456   .     S
C353   C376    1.452   .     S
C354   O478    1.323   .     A
C354   O477    1.310   .     A
C355   C365    1.457   .     S
C356   H403    1.086   .     S
C356   H404    1.106   .     S
C356   C384    1.535   .     S
C356   C517    1.543   .     S
C357   C358    1.528   .     S
C357   H401    1.110   .     S
C357   H402    1.105   .     S
C357   C516    1.543   1_455 S
C358   H399    1.111   .     S
C358   H398    1.107   .     S
C358   H557    1.111   1_455 S
C359   H410    1.093   .     S
C359   H412    1.104   .     S
C359   C360    1.545   .     S
C360   C361    1.529   .     S
C360   H568    1.108   .     S
C360   H569    1.096   .     S
C361   H407    1.111   .     S
C361   H406    1.108   .     S
C361   H405    1.111   .     S
C362   H418    1.093   .     S
C362   H419    1.106   .     S
C362   C523    1.544   1_455 S
C363   H416    1.101   .     S
C363   C522    1.544   .     S
C363   C524    1.530   .     S
C363   H577    1.102   .     S
C364   H413    1.108   .     S
C364   H414    1.107   .     S
C364   C523    1.530   1_455 S
C364   H575    1.111   1_455 S
C365   O468    1.309   .     A
C365   O480    1.323   .     A
C366   H427    1.109   .     S
C366   H426    1.096   .     S
C366   C527    1.546   1_455 S
C367   H424    1.104   .     S
C367   C526    1.546   .     S
C367   C528    1.530   .     S
C367   H585    1.103   .     S
C368   H420    1.110   .     S
C368   C527    1.530   1_455 S
C368   H581    1.107   1_455 S
C368   H583    1.111   1_455 S
C369   H434    1.092   .     S
C369   H435    1.105   .     S
C369   C370    1.545   .     S
C370   H432    1.095   .     S
C370   C371    1.529   .     S
C370   H431    1.108   .     S
C371   H428    1.111   .     S
C371   H429    1.107   .     S
C371   H430    1.111   .     S
C372   H442    1.102   .     S
C372   H441    1.098   .     S
C372   C373    1.545   .     S
C373   H440    1.097   .     S
C373   C374    1.529   .     S
C373   H439    1.107   .     S
C374   H436    1.111   .     S
C374   H438    1.111   .     S
C374   H437    1.109   .     S
C375   H449    1.091   .     S
C375   H450    1.106   .     S
C375   C377    1.542   .     S
C376   O467    1.314   .     A
C376   O466    1.316   .     A
C377   H448    1.103   .     S
C377   H447    1.099   .     S
C377   C378    1.529   .     S
C378   H443    1.108   .     S
C378   H446    1.111   .     S
C378   H445    1.109   .     S
C379   H457    1.093   .     S
C379   C380    1.546   .     S
C379   H458    1.107   .     S
C380   H456    1.102   .     S
C380   C381    1.530   .     S
C380   H454    1.102   .     S
C381   H453    1.111   .     S
C381   H452    1.106   .     S
C381   H451    1.108   .     S
C382   O469    1.317   .     A
C382   O472    1.315   .     A
C383   O470    1.309   .     A
C383   O471    1.324   .     A
C384   C1764   1.435   1_554 S
C384   N622    1.393   .     S
Cu385  O639    1.973   1_455 S
Cu385  O634    1.959   1_455 S
Cu385  Cu386   2.755   .     S
Cu385  N461    2.070   .     S
Cu385  O465    1.969   .     S
Cu385  O477    1.963   .     S
Cu386  O633    1.969   1_455 S
Cu386  O636    1.963   1_455 S
Cu386  N462    2.070   .     S
Cu386  O475    1.959   .     S
Cu386  O478    1.973   .     S
Cu387  N463    2.070   .     S
Cu387  Cu388   2.755   .     S
Cu387  O467    1.959   .     S
Cu387  O470    1.963   .     S
Cu388  N464    2.070   .     S
Cu388  O466    1.969   .     S
Cu388  O471    1.973   .     S
H397   C518    1.111   .     S
H408   C520    1.108   1_455 S
H409   C520    1.096   1_455 S
H415   C524    1.111   .     S
H417   C523    1.102   1_455 S
H421   C528    1.107   .     S
H423   C528    1.111   .     S
H425   C527    1.103   1_455 S
N461   C482    1.391   1_455 S
N462   C544    1.393   1_455 S
O468   Cu68    1.959   1_565 S
O469   Cu68    1.963   1_565 S
O472   Cu67    1.973   1_565 S
O473   Cu546   1.969   .     S
O474   Cu545   1.959   .     S
O476   Cu546   1.963   .     S
O479   Cu545   1.973   .     S
O480   Cu67    1.969   1_565 S
C481   O625    1.320   .     A
C481   O635    1.311   .     A
C481   C510    1.455   .     S
C482   C519    1.534   .     S
C482   C963    1.433   1_655 S
C482   N461    1.391   1_655 S
C483   C522    1.514   .     S
C483   N622    1.387   .     A
C483   C1602   1.433   1_554 S
C484   C526    1.523   .     S
C484   N621    1.390   .     A
C484   C1024   1.435   .     S
C485   N304    1.391   1_565 A
C485   C529    1.534   .     S
C485   C1768   1.434   1_554 S
C486   C532    1.533   .     S
C486   C1127   1.433   .     S
C486   N623    1.390   .     S
C487   C535    1.511   .     S
C487   C1766   1.433   1_554 S
C487   N624    1.388   .     S
C488   C539    1.514   .     S
C488   N303    1.389   1_565 A
C488   C1125   1.434   .     S
C489   H549    1.076   .     S
C489   C500    1.376   .     A
C489   C508    1.396   .     A
C490   C507    1.404   .     A
C490   C501    1.387   .     A
C490   H560    1.083   .     S
C491   C498    1.379   .     A
C491   C507    1.395   .     A
C491   H571    1.064   .     S
C492   C509    1.453   .     S
C492   O633    1.314   .     A
C492   O634    1.316   .     A
C493   C499    1.388   .     A
C493   C508    1.401   .     A
C493   H582    1.078   .     S
C494   C510    1.398   .     A
C494   H593    1.069   .     S
C494   C505    1.383   .     A
C495   C509    1.400   .     A
C495   H604    1.075   .     S
C495   C506    1.385   .     A
C496   C509    1.395   .     A
C496   C502    1.378   .     A
C496   H615    1.079   .     S
C497   C510    1.400   .     A
C497   C504    1.384   .     A
C497   H619    1.083   .     S
C498   H620    1.078   .     S
C498   C512    1.396   .     A
C499   C511    1.405   .     A
C499   H550    1.083   .     S
C500   H551    1.064   .     S
C500   C511    1.394   .     A
C501   C512    1.401   .     A
C501   H552    1.076   .     S
C502   C515    1.395   .     A
C502   H553    1.063   .     S
C503   O639    1.316   .     A
C503   O636    1.317   .     A
C503   C508    1.457   .     S
C504   C513    1.398   .     A
C504   H554    1.072   .     S
C505   H555    1.082   .     S
C505   C513    1.398   .     A
C506   H556    1.083   .     S
C506   C515    1.403   .     A
C507   C514    1.460   .     S
C511   C543    1.460   .     S
C512   C542    1.456   .     S
C513   C536    1.452   .     S
C514   O638    1.323   .     A
C514   O637    1.310   .     A
C515   C525    1.457   .     S
C516   H563    1.086   .     S
C516   H564    1.106   .     S
C516   C544    1.535   .     S
C516   C357    1.543   1_655 S
C517   C518    1.528   .     S
C517   H561    1.110   .     S
C517   H562    1.105   .     S
C518   H559    1.111   .     S
C518   H558    1.107   .     S
C519   H570    1.093   .     S
C519   H572    1.104   .     S
C519   C520    1.545   .     S
C520   C521    1.529   .     S
C520   H408    1.108   1_655 S
C520   H409    1.096   1_655 S
C521   H567    1.111   .     S
C521   H566    1.108   .     S
C521   H565    1.111   .     S
C522   H578    1.093   .     S
C522   H579    1.106   .     S
C523   H576    1.101   .     S
C523   C362    1.544   1_655 S
C523   C364    1.530   1_655 S
C523   H417    1.102   1_655 S
C524   H573    1.108   .     S
C524   H574    1.107   .     S
C525   O628    1.309   .     A
C525   O640    1.323   .     A
C526   H587    1.109   .     S
C526   H586    1.096   .     S
C527   H584    1.104   .     S
C527   C366    1.546   1_655 S
C527   C368    1.530   1_655 S
C527   H425    1.103   1_655 S
C528   H580    1.110   .     S
C529   H594    1.092   .     S
C529   H595    1.105   .     S
C529   C530    1.545   .     S
C530   H592    1.095   .     S
C530   C531    1.529   .     S
C530   H591    1.108   .     S
C531   H588    1.111   .     S
C531   H589    1.107   .     S
C531   H590    1.111   .     S
C532   H602    1.102   .     S
C532   H601    1.098   .     S
C532   C533    1.545   .     S
C533   H600    1.097   .     S
C533   C534    1.529   .     S
C533   H599    1.107   .     S
C534   H596    1.111   .     S
C534   H598    1.111   .     S
C534   H597    1.109   .     S
C535   H609    1.091   .     S
C535   H610    1.106   .     S
C535   C537    1.542   .     S
C536   O627    1.314   .     A
C536   O626    1.316   .     A
C537   H608    1.103   .     S
C537   H607    1.099   .     S
C537   C538    1.529   .     S
C538   H603    1.108   .     S
C538   H606    1.111   .     S
C538   H605    1.109   .     S
C539   H617    1.093   .     S
C539   C540    1.546   .     S
C539   H618    1.107   .     S
C540   H616    1.102   .     S
C540   C541    1.530   .     S
C540   H614    1.102   .     S
C541   H613    1.111   .     S
C541   H612    1.106   .     S
C541   H611    1.108   .     S
C542   O629    1.317   .     A
C542   O632    1.315   .     A
C543   O630    1.309   .     A
C543   O631    1.324   .     A
C544   C1604   1.435   1_654 S
C544   N462    1.393   1_655 S
Cu545  Cu546   2.755   .     S
Cu545  N621    2.070   .     S
Cu545  O625    1.969   .     S
Cu545  O637    1.963   .     S
Cu546  N622    2.070   .     S
Cu546  O635    1.959   .     S
Cu546  O638    1.973   .     S
Cu547  N623    2.070   .     S
Cu547  Cu548   2.755   .     S
Cu547  O627    1.959   .     S
Cu547  O630    1.963   .     S
Cu548  N624    2.070   .     S
Cu548  O626    1.969   .     S
Cu548  O631    1.973   .     S
H557   C358    1.111   1_655 S
H575   C364    1.111   1_655 S
H581   C368    1.107   1_655 S
H583   C368    1.111   1_655 S
O628   Cu228   1.959   1_565 S
O629   Cu228   1.963   1_565 S
O632   Cu227   1.973   1_565 S
O633   Cu386   1.969   1_655 S
O634   Cu385   1.959   1_655 S
O636   Cu386   1.963   1_655 S
O639   Cu385   1.973   1_655 S
O640   Cu227   1.969   1_565 S
C641   O785    1.320   .     A
C641   O795    1.311   .     A
C641   C670    1.455   .     S
C642   C679    1.534   .     S
C642   C1443   1.433   .     S
C642   N941    1.391   .     S
C643   C682    1.514   .     S
C643   N782    1.387   .     A
C643   C162    1.433   1_455 S
C644   C686    1.523   .     S
C644   N781    1.390   .     A
C644   C1504   1.435   1_455 S
C645   N1104   1.391   .     A
C645   C689    1.534   .     S
C646   C692    1.533   .     S
C646   C1287   1.433   .     S
C646   N783    1.390   .     S
C647   C695    1.511   .     S
C647   N784    1.388   .     S
C648   C699    1.514   .     S
C648   N1103   1.389   .     A
C648   C1285   1.434   .     S
C649   H709    1.076   .     S
C649   C660    1.376   .     A
C649   C668    1.396   .     A
C650   C667    1.404   .     A
C650   C661    1.387   .     A
C650   H720    1.083   .     S
C651   C658    1.379   .     A
C651   C667    1.395   .     A
C651   H731    1.064   .     S
C652   C669    1.453   .     S
C652   O793    1.314   .     A
C652   O794    1.316   .     A
C653   C659    1.388   .     A
C653   C668    1.401   .     A
C653   H742    1.078   .     S
C654   C670    1.398   .     A
C654   H753    1.069   .     S
C654   C665    1.383   .     A
C655   C669    1.400   .     A
C655   H764    1.075   .     S
C655   C666    1.385   .     A
C656   C669    1.395   .     A
C656   C662    1.378   .     A
C656   H775    1.079   .     S
C657   C670    1.400   .     A
C657   C664    1.384   .     A
C657   H779    1.083   .     S
C658   H780    1.078   .     S
C658   C672    1.396   .     A
C659   C671    1.405   .     A
C659   H710    1.083   .     S
C660   H711    1.064   .     S
C660   C671    1.394   .     A
C661   C672    1.401   .     A
C661   H712    1.076   .     S
C662   C675    1.395   .     A
C662   H713    1.063   .     S
C663   O799    1.316   .     A
C663   O796    1.317   .     A
C663   C668    1.457   .     S
C664   C673    1.398   .     A
C664   H714    1.072   .     S
C665   H715    1.082   .     S
C665   C673    1.398   .     A
C666   H716    1.083   .     S
C666   C675    1.403   .     A
C667   C674    1.460   .     S
C671   C703    1.460   .     S
C672   C702    1.456   .     S
C673   C696    1.452   .     S
C674   O798    1.323   .     A
C674   O797    1.310   .     A
C675   C685    1.457   .     S
C676   H723    1.086   .     S
C676   H724    1.106   .     S
C676   C704    1.535   .     S
C676   C837    1.543   .     S
C677   C678    1.528   .     S
C677   H721    1.110   .     S
C677   H722    1.105   .     S
C677   C836    1.543   1_455 S
C678   H719    1.111   .     S
C678   H718    1.107   .     S
C678   H877    1.111   1_455 S
C679   H730    1.093   .     S
C679   H732    1.104   .     S
C679   C680    1.545   .     S
C680   C681    1.529   .     S
C680   H888    1.108   .     S
C680   H889    1.096   .     S
C681   H727    1.111   .     S
C681   H726    1.108   .     S
C681   H725    1.111   .     S
C682   H738    1.093   .     S
C682   H739    1.106   .     S
C682   C843    1.544   1_455 S
C683   H736    1.101   .     S
C683   C842    1.544   .     S
C683   C844    1.530   .     S
C683   H897    1.102   .     S
C684   H733    1.108   .     S
C684   H734    1.107   .     S
C684   C843    1.530   1_455 S
C684   H895    1.111   1_455 S
C685   O788    1.309   .     A
C685   O800    1.323   .     A
C686   H747    1.109   .     S
C686   H746    1.096   .     S
C686   C847    1.546   1_455 S
C687   H744    1.104   .     S
C687   C846    1.546   .     S
C687   C848    1.530   .     S
C687   H905    1.103   .     S
C688   H740    1.110   .     S
C688   C847    1.530   1_455 S
C688   H901    1.107   1_455 S
C688   H903    1.111   1_455 S
C689   H754    1.092   .     S
C689   H755    1.105   .     S
C689   C690    1.545   .     S
C690   H752    1.095   .     S
C690   C691    1.529   .     S
C690   H751    1.108   .     S
C691   H748    1.111   .     S
C691   H749    1.107   .     S
C691   H750    1.111   .     S
C692   H762    1.102   .     S
C692   H761    1.098   .     S
C692   C693    1.545   .     S
C693   H760    1.097   .     S
C693   C694    1.529   .     S
C693   H759    1.107   .     S
C694   H756    1.111   .     S
C694   H758    1.111   .     S
C694   H757    1.109   .     S
C695   H769    1.091   .     S
C695   H770    1.106   .     S
C695   C697    1.542   .     S
C696   O787    1.314   .     A
C696   O786    1.316   .     A
C697   H768    1.103   .     S
C697   H767    1.099   .     S
C697   C698    1.529   .     S
C698   H763    1.108   .     S
C698   H766    1.111   .     S
C698   H765    1.109   .     S
C699   H777    1.093   .     S
C699   C700    1.546   .     S
C699   H778    1.107   .     S
C700   H776    1.102   .     S
C700   C701    1.530   .     S
C700   H774    1.102   .     S
C701   H773    1.111   .     S
C701   H772    1.106   .     S
C701   H771    1.108   .     S
C702   O789    1.317   .     A
C702   O792    1.315   .     A
C703   O790    1.309   .     A
C703   O791    1.324   .     A
C704   N942    1.393   .     S
Cu705  O959    1.973   1_455 S
Cu705  O954    1.959   1_455 S
Cu705  Cu706   2.755   .     S
Cu705  N781    2.070   .     S
Cu705  O785    1.969   .     S
Cu705  O797    1.963   .     S
Cu706  O953    1.969   1_455 S
Cu706  O956    1.963   1_455 S
Cu706  N782    2.070   .     S
Cu706  O795    1.959   .     S
Cu706  O798    1.973   .     S
Cu707  O1120   1.969   1_545 S
Cu707  N783    2.070   .     S
Cu707  Cu708   2.755   .     S
Cu707  O1112   1.973   1_545 S
Cu707  O787    1.959   .     S
Cu707  O790    1.963   .     S
Cu708  O1109   1.963   1_545 S
Cu708  O1108   1.959   1_545 S
Cu708  N784    2.070   .     S
Cu708  O786    1.969   .     S
Cu708  O791    1.973   .     S
H717   C838    1.111   .     S
H728   C840    1.108   1_455 S
H729   C840    1.096   1_455 S
H735   C844    1.111   .     S
H737   C843    1.102   1_455 S
H741   C848    1.107   .     S
H743   C848    1.111   .     S
H745   C847    1.103   1_455 S
N781   C802    1.391   1_455 S
N782   C864    1.393   1_455 S
N783   C968    1.389   1_545 A
N784   C965    1.391   1_545 A
O788   Cu1028  1.959   .     S
O789   Cu1028  1.963   .     S
O792   Cu1027  1.973   .     S
O793   Cu866   1.969   .     S
O794   Cu865   1.959   .     S
O796   Cu866   1.963   .     S
O799   Cu865   1.973   .     S
O800   Cu1027  1.969   .     S
C801   O945    1.320   .     A
C801   O955    1.311   .     A
C801   C830    1.455   .     S
C802   C839    1.534   .     S
C802   C1283   1.433   1_655 S
C802   N781    1.391   1_655 S
C803   C842    1.514   .     S
C803   N942    1.387   .     A
C804   C846    1.523   .     S
C804   N941    1.390   .     A
C804   C1344   1.435   .     S
C805   N1264   1.391   .     A
C805   C849    1.534   .     S
C806   C852    1.533   .     S
C806   C1447   1.433   .     S
C806   N943    1.390   .     S
C807   C855    1.511   .     S
C807   N944    1.388   .     S
C808   C859    1.514   .     S
C808   N1263   1.389   .     A
C808   C1445   1.434   .     S
C809   H869    1.076   .     S
C809   C820    1.376   .     A
C809   C828    1.396   .     A
C810   C827    1.404   .     A
C810   C821    1.387   .     A
C810   H880    1.083   .     S
C811   C818    1.379   .     A
C811   C827    1.395   .     A
C811   H891    1.064   .     S
C812   C829    1.453   .     S
C812   O953    1.314   .     A
C812   O954    1.316   .     A
C813   C819    1.388   .     A
C813   C828    1.401   .     A
C813   H902    1.078   .     S
C814   C830    1.398   .     A
C814   H913    1.069   .     S
C814   C825    1.383   .     A
C815   C829    1.400   .     A
C815   H924    1.075   .     S
C815   C826    1.385   .     A
C816   C829    1.395   .     A
C816   C822    1.378   .     A
C816   H935    1.079   .     S
C817   C830    1.400   .     A
C817   C824    1.384   .     A
C817   H939    1.083   .     S
C818   H940    1.078   .     S
C818   C832    1.396   .     A
C819   C831    1.405   .     A
C819   H870    1.083   .     S
C820   H871    1.064   .     S
C820   C831    1.394   .     A
C821   C832    1.401   .     A
C821   H872    1.076   .     S
C822   C835    1.395   .     A
C822   H873    1.063   .     S
C823   O959    1.316   .     A
C823   O956    1.317   .     A
C823   C828    1.457   .     S
C824   C833    1.398   .     A
C824   H874    1.072   .     S
C825   H875    1.082   .     S
C825   C833    1.398   .     A
C826   H876    1.083   .     S
C826   C835    1.403   .     A
C827   C834    1.460   .     S
C831   C863    1.460   .     S
C832   C862    1.456   .     S
C833   C856    1.452   .     S
C834   O958    1.323   .     A
C834   O957    1.310   .     A
C835   C845    1.457   .     S
C836   H883    1.086   .     S
C836   H884    1.106   .     S
C836   C864    1.535   .     S
C836   C677    1.543   1_655 S
C837   C838    1.528   .     S
C837   H881    1.110   .     S
C837   H882    1.105   .     S
C838   H879    1.111   .     S
C838   H878    1.107   .     S
C839   H890    1.093   .     S
C839   H892    1.104   .     S
C839   C840    1.545   .     S
C840   C841    1.529   .     S
C840   H728    1.108   1_655 S
C840   H729    1.096   1_655 S
C841   H887    1.111   .     S
C841   H886    1.108   .     S
C841   H885    1.111   .     S
C842   H898    1.093   .     S
C842   H899    1.106   .     S
C843   H896    1.101   .     S
C843   C682    1.544   1_655 S
C843   C684    1.530   1_655 S
C843   H737    1.102   1_655 S
C844   H893    1.108   .     S
C844   H894    1.107   .     S
C845   O948    1.309   .     A
C845   O960    1.323   .     A
C846   H907    1.109   .     S
C846   H906    1.096   .     S
C847   H904    1.104   .     S
C847   C686    1.546   1_655 S
C847   C688    1.530   1_655 S
C847   H745    1.103   1_655 S
C848   H900    1.110   .     S
C849   H914    1.092   .     S
C849   H915    1.105   .     S
C849   C850    1.545   .     S
C850   H912    1.095   .     S
C850   C851    1.529   .     S
C850   H911    1.108   .     S
C851   H908    1.111   .     S
C851   H909    1.107   .     S
C851   H910    1.111   .     S
C852   H922    1.102   .     S
C852   H921    1.098   .     S
C852   C853    1.545   .     S
C853   H920    1.097   .     S
C853   C854    1.529   .     S
C853   H919    1.107   .     S
C854   H916    1.111   .     S
C854   H918    1.111   .     S
C854   H917    1.109   .     S
C855   H929    1.091   .     S
C855   H930    1.106   .     S
C855   C857    1.542   .     S
C856   O947    1.314   .     A
C856   O946    1.316   .     A
C857   H928    1.103   .     S
C857   H927    1.099   .     S
C857   C858    1.529   .     S
C858   H923    1.108   .     S
C858   H926    1.111   .     S
C858   H925    1.109   .     S
C859   H937    1.093   .     S
C859   C860    1.546   .     S
C859   H938    1.107   .     S
C860   H936    1.102   .     S
C860   C861    1.530   .     S
C860   H934    1.102   .     S
C861   H933    1.111   .     S
C861   H932    1.106   .     S
C861   H931    1.108   .     S
C862   O949    1.317   .     A
C862   O952    1.315   .     A
C863   O950    1.309   .     A
C863   O951    1.324   .     A
C864   C4      1.435   1_655 S
C864   N782    1.393   1_655 S
Cu865  Cu866   2.755   .     S
Cu865  N941    2.070   .     S
Cu865  O945    1.969   .     S
Cu865  O957    1.963   .     S
Cu866  N942    2.070   .     S
Cu866  O955    1.959   .     S
Cu866  O958    1.973   .     S
Cu867  O1280   1.969   1_545 S
Cu867  N943    2.070   .     S
Cu867  Cu868   2.755   .     S
Cu867  O1272   1.973   1_545 S
Cu867  O947    1.959   .     S
Cu867  O950    1.963   .     S
Cu868  O1269   1.963   1_545 S
Cu868  O1268   1.959   1_545 S
Cu868  N944    2.070   .     S
Cu868  O946    1.969   .     S
Cu868  O951    1.973   .     S
H877   C678    1.111   1_655 S
H895   C684    1.111   1_655 S
H901   C688    1.107   1_655 S
H903   C688    1.111   1_655 S
N943   C1128   1.389   1_545 A
N944   C1125   1.391   1_545 A
O948   Cu1188  1.959   .     S
O949   Cu1188  1.963   .     S
O952   Cu1187  1.973   .     S
O953   Cu706   1.969   1_655 S
O954   Cu705   1.959   1_655 S
O956   Cu706   1.963   1_655 S
O959   Cu705   1.973   1_655 S
O960   Cu1187  1.969   .     S
C961   O1105   1.320   .     A
C961   O1115   1.311   .     A
C961   C990    1.455   .     S
C962   C999    1.534   .     S
C962   C1763   1.433   .     S
C962   N1261   1.391   .     S
C963   C1002   1.514   .     S
C963   N1102   1.387   .     A
C963   C482    1.433   1_455 S
C964   C1006   1.523   .     S
C964   N1101   1.390   .     A
C964   C1824   1.435   1_455 S
C965   N784    1.391   1_565 A
C965   C1009   1.534   .     S
C966   C1012   1.533   .     S
C966   C1607   1.433   .     S
C966   N1103   1.390   .     S
C967   C1015   1.511   .     S
C967   N1104   1.388   .     S
C968   C1019   1.514   .     S
C968   N783    1.389   1_565 A
C968   C1605   1.434   .     S
C969   H1029   1.076   .     S
C969   C980    1.376   .     A
C969   C988    1.396   .     A
C970   C987    1.404   .     A
C970   C981    1.387   .     A
C970   H1040   1.083   .     S
C971   C978    1.379   .     A
C971   C987    1.395   .     A
C971   H1051   1.064   .     S
C972   C989    1.453   .     S
C972   O1113   1.314   .     A
C972   O1114   1.316   .     A
C973   C979    1.388   .     A
C973   C988    1.401   .     A
C973   H1062   1.078   .     S
C974   C990    1.398   .     A
C974   H1073   1.069   .     S
C974   C985    1.383   .     A
C975   C989    1.400   .     A
C975   H1084   1.075   .     S
C975   C986    1.385   .     A
C976   C989    1.395   .     A
C976   C982    1.378   .     A
C976   H1095   1.079   .     S
C977   C990    1.400   .     A
C977   C984    1.384   .     A
C977   H1099   1.083   .     S
C978   H1100   1.078   .     S
C978   C992    1.396   .     A
C979   C991    1.405   .     A
C979   H1030   1.083   .     S
C980   H1031   1.064   .     S
C980   C991    1.394   .     A
C981   C992    1.401   .     A
C981   H1032   1.076   .     S
C982   C995    1.395   .     A
C982   H1033   1.063   .     S
C983   O1119   1.316   .     A
C983   O1116   1.317   .     A
C983   C988    1.457   .     S
C984   C993    1.398   .     A
C984   H1034   1.072   .     S
C985   H1035   1.082   .     S
C985   C993    1.398   .     A
C986   H1036   1.083   .     S
C986   C995    1.403   .     A
C987   C994    1.460   .     S
C991   C1023   1.460   .     S
C992   C1022   1.456   .     S
C993   C1016   1.452   .     S
C994   O1118   1.323   .     A
C994   O1117   1.310   .     A
C995   C1005   1.457   .     S
C996   H1043   1.086   .     S
C996   H1044   1.106   .     S
C996   C1024   1.535   .     S
C996   C1157   1.543   .     S
C997   C998    1.528   .     S
C997   H1041   1.110   .     S
C997   H1042   1.105   .     S
C997   C1156   1.543   1_455 S
C998   H1039   1.111   .     S
C998   H1038   1.107   .     S
C998   H1197   1.111   1_455 S
C999   H1050   1.093   .     S
C999   H1052   1.104   .     S
C999   C1000   1.545   .     S
C1000  C1001   1.529   .     S
C1000  H1208   1.108   .     S
C1000  H1209   1.096   .     S
C1001  H1047   1.111   .     S
C1001  H1046   1.108   .     S
C1001  H1045   1.111   .     S
C1002  H1058   1.093   .     S
C1002  H1059   1.106   .     S
C1002  C1163   1.544   1_455 S
C1003  H1056   1.101   .     S
C1003  C1162   1.544   .     S
C1003  C1164   1.530   .     S
C1003  H1217   1.102   .     S
C1004  H1053   1.108   .     S
C1004  H1054   1.107   .     S
C1004  C1163   1.530   1_455 S
C1004  H1215   1.111   1_455 S
C1005  O1108   1.309   .     A
C1005  O1120   1.323   .     A
C1006  H1067   1.109   .     S
C1006  H1066   1.096   .     S
C1006  C1167   1.546   1_455 S
C1007  H1064   1.104   .     S
C1007  C1166   1.546   .     S
C1007  C1168   1.530   .     S
C1007  H1225   1.103   .     S
C1008  H1060   1.110   .     S
C1008  C1167   1.530   1_455 S
C1008  H1221   1.107   1_455 S
C1008  H1223   1.111   1_455 S
C1009  H1074   1.092   .     S
C1009  H1075   1.105   .     S
C1009  C1010   1.545   .     S
C1010  H1072   1.095   .     S
C1010  C1011   1.529   .     S
C1010  H1071   1.108   .     S
C1011  H1068   1.111   .     S
C1011  H1069   1.107   .     S
C1011  H1070   1.111   .     S
C1012  H1082   1.102   .     S
C1012  H1081   1.098   .     S
C1012  C1013   1.545   .     S
C1013  H1080   1.097   .     S
C1013  C1014   1.529   .     S
C1013  H1079   1.107   .     S
C1014  H1076   1.111   .     S
C1014  H1078   1.111   .     S
C1014  H1077   1.109   .     S
C1015  H1089   1.091   .     S
C1015  H1090   1.106   .     S
C1015  C1017   1.542   .     S
C1016  O1107   1.314   .     A
C1016  O1106   1.316   .     A
C1017  H1088   1.103   .     S
C1017  H1087   1.099   .     S
C1017  C1018   1.529   .     S
C1018  H1083   1.108   .     S
C1018  H1086   1.111   .     S
C1018  H1085   1.109   .     S
C1019  H1097   1.093   .     S
C1019  C1020   1.546   .     S
C1019  H1098   1.107   .     S
C1020  H1096   1.102   .     S
C1020  C1021   1.530   .     S
C1020  H1094   1.102   .     S
C1021  H1093   1.111   .     S
C1021  H1092   1.106   .     S
C1021  H1091   1.108   .     S
C1022  O1109   1.317   .     A
C1022  O1112   1.315   .     A
C1023  O1110   1.309   .     A
C1023  O1111   1.324   .     A
C1024  N1262   1.393   .     S
Cu1025 O1279   1.973   1_455 S
Cu1025 O1274   1.959   1_455 S
Cu1025 Cu1026  2.755   .     S
Cu1025 N1101   2.070   .     S
Cu1025 O1105   1.969   .     S
Cu1025 O1117   1.963   .     S
Cu1026 O1273   1.969   1_455 S
Cu1026 O1276   1.963   1_455 S
Cu1026 N1102   2.070   .     S
Cu1026 O1115   1.959   .     S
Cu1026 O1118   1.973   .     S
Cu1027 N1103   2.070   .     S
Cu1027 Cu1028  2.755   .     S
Cu1027 O1107   1.959   .     S
Cu1027 O1110   1.963   .     S
Cu1028 N1104   2.070   .     S
Cu1028 O1106   1.969   .     S
Cu1028 O1111   1.973   .     S
H1037  C1158   1.111   .     S
H1048  C1160   1.108   1_455 S
H1049  C1160   1.096   1_455 S
H1055  C1164   1.111   .     S
H1057  C1163   1.102   1_455 S
H1061  C1168   1.107   .     S
H1063  C1168   1.111   .     S
H1065  C1167   1.103   1_455 S
N1101  C1122   1.391   1_455 S
N1102  C1184   1.393   1_455 S
O1108  Cu708   1.959   1_565 S
O1109  Cu708   1.963   1_565 S
O1112  Cu707   1.973   1_565 S
O1113  Cu1186  1.969   .     S
O1114  Cu1185  1.959   .     S
O1116  Cu1186  1.963   .     S
O1119  Cu1185  1.973   .     S
O1120  Cu707   1.969   1_565 S
C1121  O1265   1.320   .     A
C1121  O1275   1.311   .     A
C1121  C1150   1.455   .     S
C1122  C1159   1.534   .     S
C1122  C1603   1.433   1_655 S
C1122  N1101   1.391   1_655 S
C1123  C1162   1.514   .     S
C1123  N1262   1.387   .     A
C1124  C1166   1.523   .     S
C1124  N1261   1.390   .     A
C1124  C1664   1.435   .     S
C1125  N944    1.391   1_565 A
C1125  C1169   1.534   .     S
C1126  C1172   1.533   .     S
C1126  C1767   1.433   .     S
C1126  N1263   1.390   .     S
C1127  C1175   1.511   .     S
C1127  N1264   1.388   .     S
C1128  C1179   1.514   .     S
C1128  N943    1.389   1_565 A
C1128  C1765   1.434   .     S
C1129  H1189   1.076   .     S
C1129  C1140   1.376   .     A
C1129  C1148   1.396   .     A
C1130  C1147   1.404   .     A
C1130  C1141   1.387   .     A
C1130  H1200   1.083   .     S
C1131  C1138   1.379   .     A
C1131  C1147   1.395   .     A
C1131  H1211   1.064   .     S
C1132  C1149   1.453   .     S
C1132  O1273   1.314   .     A
C1132  O1274   1.316   .     A
C1133  C1139   1.388   .     A
C1133  C1148   1.401   .     A
C1133  H1222   1.078   .     S
C1134  C1150   1.398   .     A
C1134  H1233   1.069   .     S
C1134  C1145   1.383   .     A
C1135  C1149   1.400   .     A
C1135  H1244   1.075   .     S
C1135  C1146   1.385   .     A
C1136  C1149   1.395   .     A
C1136  C1142   1.378   .     A
C1136  H1255   1.079   .     S
C1137  C1150   1.400   .     A
C1137  C1144   1.384   .     A
C1137  H1259   1.083   .     S
C1138  H1260   1.078   .     S
C1138  C1152   1.396   .     A
C1139  C1151   1.405   .     A
C1139  H1190   1.083   .     S
C1140  H1191   1.064   .     S
C1140  C1151   1.394   .     A
C1141  C1152   1.401   .     A
C1141  H1192   1.076   .     S
C1142  C1155   1.395   .     A
C1142  H1193   1.063   .     S
C1143  O1279   1.316   .     A
C1143  O1276   1.317   .     A
C1143  C1148   1.457   .     S
C1144  C1153   1.398   .     A
C1144  H1194   1.072   .     S
C1145  H1195   1.082   .     S
C1145  C1153   1.398   .     A
C1146  H1196   1.083   .     S
C1146  C1155   1.403   .     A
C1147  C1154   1.460   .     S
C1151  C1183   1.460   .     S
C1152  C1182   1.456   .     S
C1153  C1176   1.452   .     S
C1154  O1278   1.323   .     A
C1154  O1277   1.310   .     A
C1155  C1165   1.457   .     S
C1156  H1203   1.086   .     S
C1156  H1204   1.106   .     S
C1156  C1184   1.535   .     S
C1156  C997    1.543   1_655 S
C1157  C1158   1.528   .     S
C1157  H1201   1.110   .     S
C1157  H1202   1.105   .     S
C1158  H1199   1.111   .     S
C1158  H1198   1.107   .     S
C1159  H1210   1.093   .     S
C1159  H1212   1.104   .     S
C1159  C1160   1.545   .     S
C1160  C1161   1.529   .     S
C1160  H1048   1.108   1_655 S
C1160  H1049   1.096   1_655 S
C1161  H1207   1.111   .     S
C1161  H1206   1.108   .     S
C1161  H1205   1.111   .     S
C1162  H1218   1.093   .     S
C1162  H1219   1.106   .     S
C1163  H1216   1.101   .     S
C1163  C1002   1.544   1_655 S
C1163  C1004   1.530   1_655 S
C1163  H1057   1.102   1_655 S
C1164  H1213   1.108   .     S
C1164  H1214   1.107   .     S
C1165  O1268   1.309   .     A
C1165  O1280   1.323   .     A
C1166  H1227   1.109   .     S
C1166  H1226   1.096   .     S
C1167  H1224   1.104   .     S
C1167  C1006   1.546   1_655 S
C1167  C1008   1.530   1_655 S
C1167  H1065   1.103   1_655 S
C1168  H1220   1.110   .     S
C1169  H1234   1.092   .     S
C1169  H1235   1.105   .     S
C1169  C1170   1.545   .     S
C1170  H1232   1.095   .     S
C1170  C1171   1.529   .     S
C1170  H1231   1.108   .     S
C1171  H1228   1.111   .     S
C1171  H1229   1.107   .     S
C1171  H1230   1.111   .     S
C1172  H1242   1.102   .     S
C1172  H1241   1.098   .     S
C1172  C1173   1.545   .     S
C1173  H1240   1.097   .     S
C1173  C1174   1.529   .     S
C1173  H1239   1.107   .     S
C1174  H1236   1.111   .     S
C1174  H1238   1.111   .     S
C1174  H1237   1.109   .     S
C1175  H1249   1.091   .     S
C1175  H1250   1.106   .     S
C1175  C1177   1.542   .     S
C1176  O1267   1.314   .     A
C1176  O1266   1.316   .     A
C1177  H1248   1.103   .     S
C1177  H1247   1.099   .     S
C1177  C1178   1.529   .     S
C1178  H1243   1.108   .     S
C1178  H1246   1.111   .     S
C1178  H1245   1.109   .     S
C1179  H1257   1.093   .     S
C1179  C1180   1.546   .     S
C1179  H1258   1.107   .     S
C1180  H1256   1.102   .     S
C1180  C1181   1.530   .     S
C1180  H1254   1.102   .     S
C1181  H1253   1.111   .     S
C1181  H1252   1.106   .     S
C1181  H1251   1.108   .     S
C1182  O1269   1.317   .     A
C1182  O1272   1.315   .     A
C1183  O1270   1.309   .     A
C1183  O1271   1.324   .     A
C1184  C324    1.435   1_655 S
C1184  N1102   1.393   1_655 S
Cu1185 Cu1186  2.755   .     S
Cu1185 N1261   2.070   .     S
Cu1185 O1265   1.969   .     S
Cu1185 O1277   1.963   .     S
Cu1186 N1262   2.070   .     S
Cu1186 O1275   1.959   .     S
Cu1186 O1278   1.973   .     S
Cu1187 N1263   2.070   .     S
Cu1187 Cu1188  2.755   .     S
Cu1187 O1267   1.959   .     S
Cu1187 O1270   1.963   .     S
Cu1188 N1264   2.070   .     S
Cu1188 O1266   1.969   .     S
Cu1188 O1271   1.973   .     S
H1197  C998    1.111   1_655 S
H1215  C1004   1.111   1_655 S
H1221  C1008   1.107   1_655 S
H1223  C1008   1.111   1_655 S
O1268  Cu868   1.959   1_565 S
O1269  Cu868   1.963   1_565 S
O1272  Cu867   1.973   1_565 S
O1273  Cu1026  1.969   1_655 S
O1274  Cu1025  1.959   1_655 S
O1276  Cu1026  1.963   1_655 S
O1279  Cu1025  1.973   1_655 S
O1280  Cu867   1.969   1_565 S
C1281  O1425   1.320   .     A
C1281  O1435   1.311   .     A
C1281  C1310   1.455   .     S
C1282  C1319   1.534   .     S
C1282  C163    1.433   1_556 S
C1282  N1581   1.391   .     S
C1283  C1322   1.514   .     S
C1283  N1422   1.387   .     A
C1283  C802    1.433   1_455 S
C1284  C1326   1.523   .     S
C1284  N1421   1.390   .     A
C1284  C224    1.435   1_456 S
C1285  N1744   1.391   .     A
C1285  C1329   1.534   .     S
C1286  C1332   1.533   .     S
C1286  C7      1.433   1_556 S
C1286  N1423   1.390   .     S
C1287  C1335   1.511   .     S
C1287  N1424   1.388   .     S
C1288  C1339   1.514   .     S
C1288  N1743   1.389   .     A
C1288  C5      1.434   1_556 S
C1289  H1349   1.076   .     S
C1289  C1300   1.376   .     A
C1289  C1308   1.396   .     A
C1290  C1307   1.404   .     A
C1290  C1301   1.387   .     A
C1290  H1360   1.083   .     S
C1291  C1298   1.379   .     A
C1291  C1307   1.395   .     A
C1291  H1371   1.064   .     S
C1292  C1309   1.453   .     S
C1292  O1433   1.314   .     A
C1292  O1434   1.316   .     A
C1293  C1299   1.388   .     A
C1293  C1308   1.401   .     A
C1293  H1382   1.078   .     S
C1294  C1310   1.398   .     A
C1294  H1393   1.069   .     S
C1294  C1305   1.383   .     A
C1295  C1309   1.400   .     A
C1295  H1404   1.075   .     S
C1295  C1306   1.385   .     A
C1296  C1309   1.395   .     A
C1296  C1302   1.378   .     A
C1296  H1415   1.079   .     S
C1297  C1310   1.400   .     A
C1297  C1304   1.384   .     A
C1297  H1419   1.083   .     S
C1298  H1420   1.078   .     S
C1298  C1312   1.396   .     A
C1299  C1311   1.405   .     A
C1299  H1350   1.083   .     S
C1300  H1351   1.064   .     S
C1300  C1311   1.394   .     A
C1301  C1312   1.401   .     A
C1301  H1352   1.076   .     S
C1302  C1315   1.395   .     A
C1302  H1353   1.063   .     S
C1303  O1439   1.316   .     A
C1303  O1436   1.317   .     A
C1303  C1308   1.457   .     S
C1304  C1313   1.398   .     A
C1304  H1354   1.072   .     S
C1305  H1355   1.082   .     S
C1305  C1313   1.398   .     A
C1306  H1356   1.083   .     S
C1306  C1315   1.403   .     A
C1307  C1314   1.460   .     S
C1311  C1343   1.460   .     S
C1312  C1342   1.456   .     S
C1313  C1336   1.452   .     S
C1314  O1438   1.323   .     A
C1314  O1437   1.310   .     A
C1315  C1325   1.457   .     S
C1316  H1363   1.086   .     S
C1316  H1364   1.106   .     S
C1316  C1344   1.535   .     S
C1316  C1477   1.543   .     S
C1317  C1318   1.528   .     S
C1317  H1361   1.110   .     S
C1317  H1362   1.105   .     S
C1317  C1476   1.543   1_455 S
C1318  H1359   1.111   .     S
C1318  H1358   1.107   .     S
C1318  H1517   1.111   1_455 S
C1319  H1370   1.093   .     S
C1319  H1372   1.104   .     S
C1319  C1320   1.545   .     S
C1320  C1321   1.529   .     S
C1320  H1528   1.108   .     S
C1320  H1529   1.096   .     S
C1321  H1367   1.111   .     S
C1321  H1366   1.108   .     S
C1321  H1365   1.111   .     S
C1322  H1378   1.093   .     S
C1322  H1379   1.106   .     S
C1322  C1483   1.544   1_455 S
C1323  H1376   1.101   .     S
C1323  C1482   1.544   .     S
C1323  C1484   1.530   .     S
C1323  H1537   1.102   .     S
C1324  H1373   1.108   .     S
C1324  H1374   1.107   .     S
C1324  C1483   1.530   1_455 S
C1324  H1535   1.111   1_455 S
C1325  O1428   1.309   .     A
C1325  O1440   1.323   .     A
C1326  H1387   1.109   .     S
C1326  H1386   1.096   .     S
C1326  C1487   1.546   1_455 S
C1327  H1384   1.104   .     S
C1327  C1486   1.546   .     S
C1327  C1488   1.530   .     S
C1327  H1545   1.103   .     S
C1328  H1380   1.110   .     S
C1328  C1487   1.530   1_455 S
C1328  H1541   1.107   1_455 S
C1328  H1543   1.111   1_455 S
C1329  H1394   1.092   .     S
C1329  H1395   1.105   .     S
C1329  C1330   1.545   .     S
C1330  H1392   1.095   .     S
C1330  C1331   1.529   .     S
C1330  H1391   1.108   .     S
C1331  H1388   1.111   .     S
C1331  H1389   1.107   .     S
C1331  H1390   1.111   .     S
C1332  H1402   1.102   .     S
C1332  H1401   1.098   .     S
C1332  C1333   1.545   .     S
C1333  H1400   1.097   .     S
C1333  C1334   1.529   .     S
C1333  H1399   1.107   .     S
C1334  H1396   1.111   .     S
C1334  H1398   1.111   .     S
C1334  H1397   1.109   .     S
C1335  H1409   1.091   .     S
C1335  H1410   1.106   .     S
C1335  C1337   1.542   .     S
C1336  O1427   1.314   .     A
C1336  O1426   1.316   .     A
C1337  H1408   1.103   .     S
C1337  H1407   1.099   .     S
C1337  C1338   1.529   .     S
C1338  H1403   1.108   .     S
C1338  H1406   1.111   .     S
C1338  H1405   1.109   .     S
C1339  H1417   1.093   .     S
C1339  C1340   1.546   .     S
C1339  H1418   1.107   .     S
C1340  H1416   1.102   .     S
C1340  C1341   1.530   .     S
C1340  H1414   1.102   .     S
C1341  H1413   1.111   .     S
C1341  H1412   1.106   .     S
C1341  H1411   1.108   .     S
C1342  O1429   1.317   .     A
C1342  O1432   1.315   .     A
C1343  O1430   1.309   .     A
C1343  O1431   1.324   .     A
C1344  N1582   1.393   .     S
Cu1345 O1599   1.973   1_455 S
Cu1345 O1594   1.959   1_455 S
Cu1345 Cu1346  2.755   .     S
Cu1345 N1421   2.070   .     S
Cu1345 O1425   1.969   .     S
Cu1345 O1437   1.963   .     S
Cu1346 O1593   1.969   1_455 S
Cu1346 O1596   1.963   1_455 S
Cu1346 N1422   2.070   .     S
Cu1346 O1435   1.959   .     S
Cu1346 O1438   1.973   .     S
Cu1347 O1760   1.969   1_545 S
Cu1347 N1423   2.070   .     S
Cu1347 Cu1348  2.755   .     S
Cu1347 O1752   1.973   1_545 S
Cu1347 O1427   1.959   .     S
Cu1347 O1430   1.963   .     S
Cu1348 O1749   1.963   1_545 S
Cu1348 O1748   1.959   1_545 S
Cu1348 N1424   2.070   .     S
Cu1348 O1426   1.969   .     S
Cu1348 O1431   1.973   .     S
H1357  C1478   1.111   .     S
H1368  C1480   1.108   1_455 S
H1369  C1480   1.096   1_455 S
H1375  C1484   1.111   .     S
H1377  C1483   1.102   1_455 S
H1381  C1488   1.107   .     S
H1383  C1488   1.111   .     S
H1385  C1487   1.103   1_455 S
N1421  C1442   1.391   1_455 S
N1422  C1504   1.393   1_455 S
N1423  C1608   1.389   1_545 A
N1424  C1605   1.391   1_545 A
O1428  Cu1668  1.959   .     S
O1429  Cu1668  1.963   .     S
O1432  Cu1667  1.973   .     S
O1433  Cu1506  1.969   .     S
O1434  Cu1505  1.959   .     S
O1436  Cu1506  1.963   .     S
O1439  Cu1505  1.973   .     S
O1440  Cu1667  1.969   .     S
C1441  O1585   1.320   .     A
C1441  O1595   1.311   .     A
C1441  C1470   1.455   .     S
C1442  C1479   1.534   .     S
C1442  C3      1.433   1_656 S
C1442  N1421   1.391   1_655 S
C1443  C1482   1.514   .     S
C1443  N1582   1.387   .     A
C1444  C1486   1.523   .     S
C1444  N1581   1.390   .     A
C1444  C64     1.435   1_556 S
C1445  N1904   1.391   .     A
C1445  C1489   1.534   .     S
C1446  C1492   1.533   .     S
C1446  C167    1.433   1_556 S
C1446  N1583   1.390   .     S
C1447  C1495   1.511   .     S
C1447  N1584   1.388   .     S
C1448  C1499   1.514   .     S
C1448  N1903   1.389   .     A
C1448  C165    1.434   1_556 S
C1449  H1509   1.076   .     S
C1449  C1460   1.376   .     A
C1449  C1468   1.396   .     A
C1450  C1467   1.404   .     A
C1450  C1461   1.387   .     A
C1450  H1520   1.083   .     S
C1451  C1458   1.379   .     A
C1451  C1467   1.395   .     A
C1451  H1531   1.064   .     S
C1452  C1469   1.453   .     S
C1452  O1593   1.314   .     A
C1452  O1594   1.316   .     A
C1453  C1459   1.388   .     A
C1453  C1468   1.401   .     A
C1453  H1542   1.078   .     S
C1454  C1470   1.398   .     A
C1454  H1553   1.069   .     S
C1454  C1465   1.383   .     A
C1455  C1469   1.400   .     A
C1455  H1564   1.075   .     S
C1455  C1466   1.385   .     A
C1456  C1469   1.395   .     A
C1456  C1462   1.378   .     A
C1456  H1575   1.079   .     S
C1457  C1470   1.400   .     A
C1457  C1464   1.384   .     A
C1457  H1579   1.083   .     S
C1458  H1580   1.078   .     S
C1458  C1472   1.396   .     A
C1459  C1471   1.405   .     A
C1459  H1510   1.083   .     S
C1460  H1511   1.064   .     S
C1460  C1471   1.394   .     A
C1461  C1472   1.401   .     A
C1461  H1512   1.076   .     S
C1462  C1475   1.395   .     A
C1462  H1513   1.063   .     S
C1463  O1599   1.316   .     A
C1463  O1596   1.317   .     A
C1463  C1468   1.457   .     S
C1464  C1473   1.398   .     A
C1464  H1514   1.072   .     S
C1465  H1515   1.082   .     S
C1465  C1473   1.398   .     A
C1466  H1516   1.083   .     S
C1466  C1475   1.403   .     A
C1467  C1474   1.460   .     S
C1471  C1503   1.460   .     S
C1472  C1502   1.456   .     S
C1473  C1496   1.452   .     S
C1474  O1598   1.323   .     A
C1474  O1597   1.310   .     A
C1475  C1485   1.457   .     S
C1476  H1523   1.086   .     S
C1476  H1524   1.106   .     S
C1476  C1504   1.535   .     S
C1476  C1317   1.543   1_655 S
C1477  C1478   1.528   .     S
C1477  H1521   1.110   .     S
C1477  H1522   1.105   .     S
C1478  H1519   1.111   .     S
C1478  H1518   1.107   .     S
C1479  H1530   1.093   .     S
C1479  H1532   1.104   .     S
C1479  C1480   1.545   .     S
C1480  C1481   1.529   .     S
C1480  H1368   1.108   1_655 S
C1480  H1369   1.096   1_655 S
C1481  H1527   1.111   .     S
C1481  H1526   1.108   .     S
C1481  H1525   1.111   .     S
C1482  H1538   1.093   .     S
C1482  H1539   1.106   .     S
C1483  H1536   1.101   .     S
C1483  C1322   1.544   1_655 S
C1483  C1324   1.530   1_655 S
C1483  H1377   1.102   1_655 S
C1484  H1533   1.108   .     S
C1484  H1534   1.107   .     S
C1485  O1588   1.309   .     A
C1485  O1600   1.323   .     A
C1486  H1547   1.109   .     S
C1486  H1546   1.096   .     S
C1487  H1544   1.104   .     S
C1487  C1326   1.546   1_655 S
C1487  C1328   1.530   1_655 S
C1487  H1385   1.103   1_655 S
C1488  H1540   1.110   .     S
C1489  H1554   1.092   .     S
C1489  H1555   1.105   .     S
C1489  C1490   1.545   .     S
C1490  H1552   1.095   .     S
C1490  C1491   1.529   .     S
C1490  H1551   1.108   .     S
C1491  H1548   1.111   .     S
C1491  H1549   1.107   .     S
C1491  H1550   1.111   .     S
C1492  H1562   1.102   .     S
C1492  H1561   1.098   .     S
C1492  C1493   1.545   .     S
C1493  H1560   1.097   .     S
C1493  C1494   1.529   .     S
C1493  H1559   1.107   .     S
C1494  H1556   1.111   .     S
C1494  H1558   1.111   .     S
C1494  H1557   1.109   .     S
C1495  H1569   1.091   .     S
C1495  H1570   1.106   .     S
C1495  C1497   1.542   .     S
C1496  O1587   1.314   .     A
C1496  O1586   1.316   .     A
C1497  H1568   1.103   .     S
C1497  H1567   1.099   .     S
C1497  C1498   1.529   .     S
C1498  H1563   1.108   .     S
C1498  H1566   1.111   .     S
C1498  H1565   1.109   .     S
C1499  H1577   1.093   .     S
C1499  C1500   1.546   .     S
C1499  H1578   1.107   .     S
C1500  H1576   1.102   .     S
C1500  C1501   1.530   .     S
C1500  H1574   1.102   .     S
C1501  H1573   1.111   .     S
C1501  H1572   1.106   .     S
C1501  H1571   1.108   .     S
C1502  O1589   1.317   .     A
C1502  O1592   1.315   .     A
C1503  O1590   1.309   .     A
C1503  O1591   1.324   .     A
C1504  C644    1.435   1_655 S
C1504  N1422   1.393   1_655 S
Cu1505 Cu1506  2.755   .     S
Cu1505 N1581   2.070   .     S
Cu1505 O1585   1.969   .     S
Cu1505 O1597   1.963   .     S
Cu1506 N1582   2.070   .     S
Cu1506 O1595   1.959   .     S
Cu1506 O1598   1.973   .     S
Cu1507 O1920   1.969   1_545 S
Cu1507 N1583   2.070   .     S
Cu1507 Cu1508  2.755   .     S
Cu1507 O1912   1.973   1_545 S
Cu1507 O1587   1.959   .     S
Cu1507 O1590   1.963   .     S
Cu1508 O1909   1.963   1_545 S
Cu1508 O1908   1.959   1_545 S
Cu1508 N1584   2.070   .     S
Cu1508 O1586   1.969   .     S
Cu1508 O1591   1.973   .     S
H1517  C1318   1.111   1_655 S
H1535  C1324   1.111   1_655 S
H1541  C1328   1.107   1_655 S
H1543  C1328   1.111   1_655 S
N1583  C1768   1.389   1_545 A
N1584  C1765   1.391   1_545 A
O1588  Cu1828  1.959   .     S
O1589  Cu1828  1.963   .     S
O1592  Cu1827  1.973   .     S
O1593  Cu1346  1.969   1_655 S
O1594  Cu1345  1.959   1_655 S
O1596  Cu1346  1.963   1_655 S
O1599  Cu1345  1.973   1_655 S
O1600  Cu1827  1.969   .     S
C1601  O1745   1.320   .     A
C1601  O1755   1.311   .     A
C1601  C1630   1.455   .     S
C1602  C1639   1.534   .     S
C1602  C483    1.433   1_556 S
C1602  N1901   1.391   .     S
C1603  C1642   1.514   .     S
C1603  N1742   1.387   .     A
C1603  C1122   1.433   1_455 S
C1604  C1646   1.523   .     S
C1604  N1741   1.390   .     A
C1604  C544    1.435   1_456 S
C1605  N1424   1.391   1_565 A
C1605  C1649   1.534   .     S
C1606  C1652   1.533   .     S
C1606  C327    1.433   1_556 S
C1606  N1743   1.390   .     S
C1607  C1655   1.511   .     S
C1607  N1744   1.388   .     S
C1608  C1659   1.514   .     S
C1608  N1423   1.389   1_565 A
C1608  C325    1.434   1_556 S
C1609  H1669   1.076   .     S
C1609  C1620   1.376   .     A
C1609  C1628   1.396   .     A
C1610  C1627   1.404   .     A
C1610  C1621   1.387   .     A
C1610  H1680   1.083   .     S
C1611  C1618   1.379   .     A
C1611  C1627   1.395   .     A
C1611  H1691   1.064   .     S
C1612  C1629   1.453   .     S
C1612  O1753   1.314   .     A
C1612  O1754   1.316   .     A
C1613  C1619   1.388   .     A
C1613  C1628   1.401   .     A
C1613  H1702   1.078   .     S
C1614  C1630   1.398   .     A
C1614  H1713   1.069   .     S
C1614  C1625   1.383   .     A
C1615  C1629   1.400   .     A
C1615  H1724   1.075   .     S
C1615  C1626   1.385   .     A
C1616  C1629   1.395   .     A
C1616  C1622   1.378   .     A
C1616  H1735   1.079   .     S
C1617  C1630   1.400   .     A
C1617  C1624   1.384   .     A
C1617  H1739   1.083   .     S
C1618  H1740   1.078   .     S
C1618  C1632   1.396   .     A
C1619  C1631   1.405   .     A
C1619  H1670   1.083   .     S
C1620  H1671   1.064   .     S
C1620  C1631   1.394   .     A
C1621  C1632   1.401   .     A
C1621  H1672   1.076   .     S
C1622  C1635   1.395   .     A
C1622  H1673   1.063   .     S
C1623  O1759   1.316   .     A
C1623  O1756   1.317   .     A
C1623  C1628   1.457   .     S
C1624  C1633   1.398   .     A
C1624  H1674   1.072   .     S
C1625  H1675   1.082   .     S
C1625  C1633   1.398   .     A
C1626  H1676   1.083   .     S
C1626  C1635   1.403   .     A
C1627  C1634   1.460   .     S
C1631  C1663   1.460   .     S
C1632  C1662   1.456   .     S
C1633  C1656   1.452   .     S
C1634  O1758   1.323   .     A
C1634  O1757   1.310   .     A
C1635  C1645   1.457   .     S
C1636  H1683   1.086   .     S
C1636  H1684   1.106   .     S
C1636  C1664   1.535   .     S
C1636  C1797   1.543   .     S
C1637  C1638   1.528   .     S
C1637  H1681   1.110   .     S
C1637  H1682   1.105   .     S
C1637  C1796   1.543   1_455 S
C1638  H1679   1.111   .     S
C1638  H1678   1.107   .     S
C1638  H1837   1.111   1_455 S
C1639  H1690   1.093   .     S
C1639  H1692   1.104   .     S
C1639  C1640   1.545   .     S
C1640  C1641   1.529   .     S
C1640  H1848   1.108   .     S
C1640  H1849   1.096   .     S
C1641  H1687   1.111   .     S
C1641  H1686   1.108   .     S
C1641  H1685   1.111   .     S
C1642  H1698   1.093   .     S
C1642  H1699   1.106   .     S
C1642  C1803   1.544   1_455 S
C1643  H1696   1.101   .     S
C1643  C1802   1.544   .     S
C1643  C1804   1.530   .     S
C1643  H1857   1.102   .     S
C1644  H1693   1.108   .     S
C1644  H1694   1.107   .     S
C1644  C1803   1.530   1_455 S
C1644  H1855   1.111   1_455 S
C1645  O1748   1.309   .     A
C1645  O1760   1.323   .     A
C1646  H1707   1.109   .     S
C1646  H1706   1.096   .     S
C1646  C1807   1.546   1_455 S
C1647  H1704   1.104   .     S
C1647  C1806   1.546   .     S
C1647  C1808   1.530   .     S
C1647  H1865   1.103   .     S
C1648  H1700   1.110   .     S
C1648  C1807   1.530   1_455 S
C1648  H1861   1.107   1_455 S
C1648  H1863   1.111   1_455 S
C1649  H1714   1.092   .     S
C1649  H1715   1.105   .     S
C1649  C1650   1.545   .     S
C1650  H1712   1.095   .     S
C1650  C1651   1.529   .     S
C1650  H1711   1.108   .     S
C1651  H1708   1.111   .     S
C1651  H1709   1.107   .     S
C1651  H1710   1.111   .     S
C1652  H1722   1.102   .     S
C1652  H1721   1.098   .     S
C1652  C1653   1.545   .     S
C1653  H1720   1.097   .     S
C1653  C1654   1.529   .     S
C1653  H1719   1.107   .     S
C1654  H1716   1.111   .     S
C1654  H1718   1.111   .     S
C1654  H1717   1.109   .     S
C1655  H1729   1.091   .     S
C1655  H1730   1.106   .     S
C1655  C1657   1.542   .     S
C1656  O1747   1.314   .     A
C1656  O1746   1.316   .     A
C1657  H1728   1.103   .     S
C1657  H1727   1.099   .     S
C1657  C1658   1.529   .     S
C1658  H1723   1.108   .     S
C1658  H1726   1.111   .     S
C1658  H1725   1.109   .     S
C1659  H1737   1.093   .     S
C1659  C1660   1.546   .     S
C1659  H1738   1.107   .     S
C1660  H1736   1.102   .     S
C1660  C1661   1.530   .     S
C1660  H1734   1.102   .     S
C1661  H1733   1.111   .     S
C1661  H1732   1.106   .     S
C1661  H1731   1.108   .     S
C1662  O1749   1.317   .     A
C1662  O1752   1.315   .     A
C1663  O1750   1.309   .     A
C1663  O1751   1.324   .     A
C1664  N1902   1.393   .     S
Cu1665 O1919   1.973   1_455 S
Cu1665 O1914   1.959   1_455 S
Cu1665 Cu1666  2.755   .     S
Cu1665 N1741   2.070   .     S
Cu1665 O1745   1.969   .     S
Cu1665 O1757   1.963   .     S
Cu1666 O1913   1.969   1_455 S
Cu1666 O1916   1.963   1_455 S
Cu1666 N1742   2.070   .     S
Cu1666 O1755   1.959   .     S
Cu1666 O1758   1.973   .     S
Cu1667 N1743   2.070   .     S
Cu1667 Cu1668  2.755   .     S
Cu1667 O1747   1.959   .     S
Cu1667 O1750   1.963   .     S
Cu1668 N1744   2.070   .     S
Cu1668 O1746   1.969   .     S
Cu1668 O1751   1.973   .     S
H1677  C1798   1.111   .     S
H1688  C1800   1.108   1_455 S
H1689  C1800   1.096   1_455 S
H1695  C1804   1.111   .     S
H1697  C1803   1.102   1_455 S
H1701  C1808   1.107   .     S
H1703  C1808   1.111   .     S
H1705  C1807   1.103   1_455 S
N1741  C1762   1.391   1_455 S
N1742  C1824   1.393   1_455 S
O1748  Cu1348  1.959   1_565 S
O1749  Cu1348  1.963   1_565 S
O1752  Cu1347  1.973   1_565 S
O1753  Cu1826  1.969   .     S
O1754  Cu1825  1.959   .     S
O1756  Cu1826  1.963   .     S
O1759  Cu1825  1.973   .     S
O1760  Cu1347  1.969   1_565 S
C1761  O1905   1.320   .     A
C1761  O1915   1.311   .     A
C1761  C1790   1.455   .     S
C1762  C1799   1.534   .     S
C1762  C323    1.433   1_656 S
C1762  N1741   1.391   1_655 S
C1763  C1802   1.514   .     S
C1763  N1902   1.387   .     A
C1764  C1806   1.523   .     S
C1764  N1901   1.390   .     A
C1764  C384    1.435   1_556 S
C1765  N1584   1.391   1_565 A
C1765  C1809   1.534   .     S
C1766  C1812   1.533   .     S
C1766  C487    1.433   1_556 S
C1766  N1903   1.390   .     S
C1767  C1815   1.511   .     S
C1767  N1904   1.388   .     S
C1768  C1819   1.514   .     S
C1768  N1583   1.389   1_565 A
C1768  C485    1.434   1_556 S
C1769  H1829   1.076   .     S
C1769  C1780   1.376   .     A
C1769  C1788   1.396   .     A
C1770  C1787   1.404   .     A
C1770  C1781   1.387   .     A
C1770  H1840   1.083   .     S
C1771  C1778   1.379   .     A
C1771  C1787   1.395   .     A
C1771  H1851   1.064   .     S
C1772  C1789   1.453   .     S
C1772  O1913   1.314   .     A
C1772  O1914   1.316   .     A
C1773  C1779   1.388   .     A
C1773  C1788   1.401   .     A
C1773  H1862   1.078   .     S
C1774  C1790   1.398   .     A
C1774  H1873   1.069   .     S
C1774  C1785   1.383   .     A
C1775  C1789   1.400   .     A
C1775  H1884   1.075   .     S
C1775  C1786   1.385   .     A
C1776  C1789   1.395   .     A
C1776  C1782   1.378   .     A
C1776  H1895   1.079   .     S
C1777  C1790   1.400   .     A
C1777  C1784   1.384   .     A
C1777  H1899   1.083   .     S
C1778  H1900   1.078   .     S
C1778  C1792   1.396   .     A
C1779  C1791   1.405   .     A
C1779  H1830   1.083   .     S
C1780  H1831   1.064   .     S
C1780  C1791   1.394   .     A
C1781  C1792   1.401   .     A
C1781  H1832   1.076   .     S
C1782  C1795   1.395   .     A
C1782  H1833   1.063   .     S
C1783  O1919   1.316   .     A
C1783  O1916   1.317   .     A
C1783  C1788   1.457   .     S
C1784  C1793   1.398   .     A
C1784  H1834   1.072   .     S
C1785  H1835   1.082   .     S
C1785  C1793   1.398   .     A
C1786  H1836   1.083   .     S
C1786  C1795   1.403   .     A
C1787  C1794   1.460   .     S
C1791  C1823   1.460   .     S
C1792  C1822   1.456   .     S
C1793  C1816   1.452   .     S
C1794  O1918   1.323   .     A
C1794  O1917   1.310   .     A
C1795  C1805   1.457   .     S
C1796  H1843   1.086   .     S
C1796  H1844   1.106   .     S
C1796  C1824   1.535   .     S
C1796  C1637   1.543   1_655 S
C1797  C1798   1.528   .     S
C1797  H1841   1.110   .     S
C1797  H1842   1.105   .     S
C1798  H1839   1.111   .     S
C1798  H1838   1.107   .     S
C1799  H1850   1.093   .     S
C1799  H1852   1.104   .     S
C1799  C1800   1.545   .     S
C1800  C1801   1.529   .     S
C1800  H1688   1.108   1_655 S
C1800  H1689   1.096   1_655 S
C1801  H1847   1.111   .     S
C1801  H1846   1.108   .     S
C1801  H1845   1.111   .     S
C1802  H1858   1.093   .     S
C1802  H1859   1.106   .     S
C1803  H1856   1.101   .     S
C1803  C1642   1.544   1_655 S
C1803  C1644   1.530   1_655 S
C1803  H1697   1.102   1_655 S
C1804  H1853   1.108   .     S
C1804  H1854   1.107   .     S
C1805  O1908   1.309   .     A
C1805  O1920   1.323   .     A
C1806  H1867   1.109   .     S
C1806  H1866   1.096   .     S
C1807  H1864   1.104   .     S
C1807  C1646   1.546   1_655 S
C1807  C1648   1.530   1_655 S
C1807  H1705   1.103   1_655 S
C1808  H1860   1.110   .     S
C1809  H1874   1.092   .     S
C1809  H1875   1.105   .     S
C1809  C1810   1.545   .     S
C1810  H1872   1.095   .     S
C1810  C1811   1.529   .     S
C1810  H1871   1.108   .     S
C1811  H1868   1.111   .     S
C1811  H1869   1.107   .     S
C1811  H1870   1.111   .     S
C1812  H1882   1.102   .     S
C1812  H1881   1.098   .     S
C1812  C1813   1.545   .     S
C1813  H1880   1.097   .     S
C1813  C1814   1.529   .     S
C1813  H1879   1.107   .     S
C1814  H1876   1.111   .     S
C1814  H1878   1.111   .     S
C1814  H1877   1.109   .     S
C1815  H1889   1.091   .     S
C1815  H1890   1.106   .     S
C1815  C1817   1.542   .     S
C1816  O1907   1.314   .     A
C1816  O1906   1.316   .     A
C1817  H1888   1.103   .     S
C1817  H1887   1.099   .     S
C1817  C1818   1.529   .     S
C1818  H1883   1.108   .     S
C1818  H1886   1.111   .     S
C1818  H1885   1.109   .     S
C1819  H1897   1.093   .     S
C1819  C1820   1.546   .     S
C1819  H1898   1.107   .     S
C1820  H1896   1.102   .     S
C1820  C1821   1.530   .     S
C1820  H1894   1.102   .     S
C1821  H1893   1.111   .     S
C1821  H1892   1.106   .     S
C1821  H1891   1.108   .     S
C1822  O1909   1.317   .     A
C1822  O1912   1.315   .     A
C1823  O1910   1.309   .     A
C1823  O1911   1.324   .     A
C1824  C964    1.435   1_655 S
C1824  N1742   1.393   1_655 S
Cu1825 Cu1826  2.755   .     S
Cu1825 N1901   2.070   .     S
Cu1825 O1905   1.969   .     S
Cu1825 O1917   1.963   .     S
Cu1826 N1902   2.070   .     S
Cu1826 O1915   1.959   .     S
Cu1826 O1918   1.973   .     S
Cu1827 N1903   2.070   .     S
Cu1827 Cu1828  2.755   .     S
Cu1827 O1907   1.959   .     S
Cu1827 O1910   1.963   .     S
Cu1828 N1904   2.070   .     S
Cu1828 O1906   1.969   .     S
Cu1828 O1911   1.973   .     S
H1837  C1638   1.111   1_655 S
H1855  C1644   1.111   1_655 S
H1861  C1648   1.107   1_655 S
H1863  C1648   1.111   1_655 S
O1908  Cu1508  1.959   1_565 S
O1909  Cu1508  1.963   1_565 S
O1912  Cu1507  1.973   1_565 S
O1913  Cu1666  1.969   1_655 S
O1914  Cu1665  1.959   1_655 S
O1916  Cu1666  1.963   1_655 S
O1919  Cu1665  1.973   1_655 S
O1920  Cu1507  1.969   1_565 S
