data_str_m2_o1_o2_pcu_sym.107
_audit_creation_date              2020-01-03
_audit_creation_method            'Materials Studio'
_symmetry_space_group_name_H-M    'P1'
_symmetry_Int_Tables_number       1
_symmetry_cell_setting            triclinic
loop_
_symmetry_equiv_pos_as_xyz
  x,y,z
_cell_length_a                    32.7172
_cell_length_b                    28.9263
_cell_length_c                    30.1738
_cell_angle_alpha                 91.1075
_cell_angle_beta                  93.4172
_cell_angle_gamma                 92.1085
loop_
_atom_site_label
_atom_site_type_symbol
_atom_site_fract_x
_atom_site_fract_y
_atom_site_fract_z
_atom_site_U_iso_or_equiv
_atom_site_adp_type
_atom_site_occupancy
C1     C     0.08750   0.16608   0.25095   0.00000  Uiso   1.00
C2     C     0.24579   0.16741   0.25053   0.00000  Uiso   1.00
C3     C     0.16813   0.16640   0.16504   0.00000  Uiso   1.00
C4     C     0.16706   0.16706   0.33489   0.00000  Uiso   1.00
C5     C     0.14718   0.02280   0.21588   0.00000  Uiso   1.00
C6     C     0.18830   0.31031   0.28276   0.00000  Uiso   1.00
C7     C     0.18873   0.02666   0.28225   0.00000  Uiso   1.00
C8     C     0.14418   0.30659   0.21806   0.00000  Uiso   1.00
C9     C     0.01826   0.13199   0.22801   0.00000  Uiso   1.00
C10    C     0.31482   0.20079   0.27694   0.00000  Uiso   1.00
C11    C     0.30887   0.13413   0.22589   0.00000  Uiso   1.00
C12    C     0.02402   0.19940   0.27813   0.00000  Uiso   1.00
C13    C     0.18449   0.20821   0.04966   0.00000  Uiso   1.00
C14    C     0.19766   0.13933   0.45269   0.00000  Uiso   1.00
C15    C     0.14713   0.19872   0.45267   0.00000  Uiso   1.00
C16    C     0.16438   0.12673   0.04501   0.00000  Uiso   1.00
C17    C     0.18401   0.20707   0.09572   0.00000  Uiso   1.00
C18    C     0.19576   0.13907   0.40657   0.00000  Uiso   1.00
C19    C     0.14464   0.19776   0.40642   0.00000  Uiso   1.00
C20    C     0.16304   0.12593   0.09093   0.00000  Uiso   1.00
C21    C     0.17175   0.16631   0.11668   0.00000  Uiso   1.00
C22    C     0.16894   0.16786   0.38325   0.00000  Uiso   1.00
C23    C     0.17426   0.16808   0.02420   0.00000  Uiso   1.00
C24    C     0.17337   0.16915   0.47585   0.00000  Uiso   1.00
C25    C     0.29042   0.16829   0.25062   0.00000  Uiso   1.00
C26    C     0.04276   0.16539   0.25280   0.00000  Uiso   1.00
Cu27   Cu    0.16667   0.21355   0.25000   0.00000  Uiso   1.00
Cu28   Cu    0.16667   0.11978   0.25000   0.00000  Uiso   1.00
H29    H     0.19308   0.24016   0.03388   0.00000  Uiso   1.00
H30    H     0.21830   0.11666   0.47037   0.00000  Uiso   1.00
H31    H     0.12800   0.22167   0.47036   0.00000  Uiso   1.00
H32    H     0.15672   0.09537   0.02559   0.00000  Uiso   1.00
H33    H     0.19327   0.23805   0.11490   0.00000  Uiso   1.00
H34    H     0.21585   0.11717   0.38921   0.00000  Uiso   1.00
H35    H     0.12369   0.22007   0.38879   0.00000  Uiso   1.00
H36    H     0.15461   0.09390   0.10585   0.00000  Uiso   1.00
N37    N     0.16667   0.28402   0.25000   0.00000  Uiso   1.00
N38    N     0.16667   0.04931   0.25000   0.00000  Uiso   1.00
O39    O     0.10655   0.20625   0.25000   0.00000  Uiso   1.00
O40    O     0.22679   0.12709   0.25000   0.00000  Uiso   1.00
O41    O     0.22679   0.20625   0.25000   0.00000  Uiso   1.00
O42    O     0.10655   0.12709   0.25000   0.00000  Uiso   1.00
O43    O     0.16666   0.20626   0.18573   0.00000  Uiso   1.00
O44    O     0.16667   0.12707   0.31427   0.00000  Uiso   1.00
O45    O     0.16667   0.20626   0.31427   0.00000  Uiso   1.00
O46    O     0.16666   0.12707   0.18573   0.00000  Uiso   1.00
N47    N     0.14100   0.04309   0.17384   0.00000  Uiso   1.00
H48    H     0.16090   0.03198   0.15100   0.00000  Uiso   1.00
C49    C     0.09981   0.04929   0.15589   0.00000  Uiso   1.00
H50    H     0.09636   0.03672   0.12084   0.00000  Uiso   1.00
H51    H     0.09448   0.08683   0.15526   0.00000  Uiso   1.00
H52    H     0.07696   0.03047   0.17516   0.00000  Uiso   1.00
N53    N     0.21038   0.28772   0.31752   0.00000  Uiso   1.00
H54    H     0.24105   0.29667   0.31989   0.00000  Uiso   1.00
C55    C     0.19319   0.28952   0.36067   0.00000  Uiso   1.00
H56    H     0.20412   0.32106   0.37977   0.00000  Uiso   1.00
H57    H     0.20413   0.25990   0.38022   0.00000  Uiso   1.00
H58    H     0.15915   0.28786   0.35748   0.00000  Uiso   1.00
N59    N     0.21263   0.05338   0.31491   0.00000  Uiso   1.00
H60    H     0.20199   0.05304   0.34624   0.00000  Uiso   1.00
C61    C     0.25678   0.05425   0.31278   0.00000  Uiso   1.00
H62    H     0.27081   0.03433   0.34045   0.00000  Uiso   1.00
H63    H     0.26892   0.09050   0.31671   0.00000  Uiso   1.00
H64    H     0.26602   0.03986   0.28060   0.00000  Uiso   1.00
N65    N     0.11286   0.28087   0.19232   0.00000  Uiso   1.00
H66    H     0.08365   0.28557   0.20223   0.00000  Uiso   1.00
C67    C     0.11549   0.27536   0.14478   0.00000  Uiso   1.00
H68    H     0.09001   0.29272   0.12691   0.00000  Uiso   1.00
H69    H     0.11137   0.23821   0.13537   0.00000  Uiso   1.00
H70    H     0.14522   0.28894   0.13377   0.00000  Uiso   1.00
N71    N     0.03679   0.09589   0.20459   0.00000  Uiso   1.00
H72    H     0.02693   0.09708   0.17106   0.00000  Uiso   1.00
H73    H     0.02692   0.06426   0.21724   0.00000  Uiso   1.00
N74    N     0.29720   0.23619   0.30253   0.00000  Uiso   1.00
H75    H     0.27531   0.22113   0.32222   0.00000  Uiso   1.00
H76    H     0.28353   0.25888   0.28016   0.00000  Uiso   1.00
N77    N     0.28393   0.10257   0.19738   0.00000  Uiso   1.00
H78    H     0.28965   0.06860   0.20637   0.00000  Uiso   1.00
H79    H     0.29133   0.10724   0.16451   0.00000  Uiso   1.00
N80    N     0.04741   0.23223   0.30666   0.00000  Uiso   1.00
H81    H     0.06901   0.21481   0.32631   0.00000  Uiso   1.00
H82    H     0.06220   0.25646   0.28731   0.00000  Uiso   1.00
C83    C     0.42084   0.16608   0.25095   0.00000  Uiso   1.00
C84    C     0.57912   0.16741   0.25053   0.00000  Uiso   1.00
C85    C     0.50146   0.16640   0.16504   0.00000  Uiso   1.00
C86    C     0.50040   0.16706   0.33489   0.00000  Uiso   1.00
C87    C     0.48052   0.02280   0.21588   0.00000  Uiso   1.00
C88    C     0.52163   0.31031   0.28276   0.00000  Uiso   1.00
C89    C     0.52207   0.02666   0.28225   0.00000  Uiso   1.00
C90    C     0.47752   0.30659   0.21806   0.00000  Uiso   1.00
C91    C     0.35159   0.13199   0.22801   0.00000  Uiso   1.00
C92    C     0.64815   0.20079   0.27694   0.00000  Uiso   1.00
C93    C     0.64221   0.13413   0.22589   0.00000  Uiso   1.00
C94    C     0.35736   0.19940   0.27813   0.00000  Uiso   1.00
C95    C     0.51782   0.20821   0.04966   0.00000  Uiso   1.00
C96    C     0.53099   0.13933   0.45269   0.00000  Uiso   1.00
C97    C     0.48046   0.19872   0.45267   0.00000  Uiso   1.00
C98    C     0.49771   0.12673   0.04501   0.00000  Uiso   1.00
C99    C     0.51735   0.20707   0.09572   0.00000  Uiso   1.00
C100   C     0.52909   0.13907   0.40657   0.00000  Uiso   1.00
C101   C     0.47797   0.19776   0.40642   0.00000  Uiso   1.00
C102   C     0.49637   0.12593   0.09093   0.00000  Uiso   1.00
C103   C     0.50508   0.16631   0.11668   0.00000  Uiso   1.00
C104   C     0.50228   0.16786   0.38325   0.00000  Uiso   1.00
C105   C     0.50760   0.16808   0.02420   0.00000  Uiso   1.00
C106   C     0.50670   0.16915   0.47585   0.00000  Uiso   1.00
C107   C     0.62376   0.16829   0.25062   0.00000  Uiso   1.00
C108   C     0.37610   0.16539   0.25280   0.00000  Uiso   1.00
Cu109  Cu    0.50000   0.21355   0.25000   0.00000  Uiso   1.00
Cu110  Cu    0.50000   0.11978   0.25000   0.00000  Uiso   1.00
H111   H     0.52641   0.24016   0.03388   0.00000  Uiso   1.00
H112   H     0.55164   0.11666   0.47037   0.00000  Uiso   1.00
H113   H     0.46134   0.22167   0.47036   0.00000  Uiso   1.00
H114   H     0.49005   0.09537   0.02559   0.00000  Uiso   1.00
H115   H     0.52660   0.23805   0.11490   0.00000  Uiso   1.00
H116   H     0.54919   0.11717   0.38921   0.00000  Uiso   1.00
H117   H     0.45702   0.22007   0.38879   0.00000  Uiso   1.00
H118   H     0.48794   0.09390   0.10585   0.00000  Uiso   1.00
N119   N     0.50000   0.28402   0.25000   0.00000  Uiso   1.00
N120   N     0.50000   0.04931   0.25000   0.00000  Uiso   1.00
O121   O     0.43988   0.20625   0.25000   0.00000  Uiso   1.00
O122   O     0.56012   0.12709   0.25000   0.00000  Uiso   1.00
O123   O     0.56012   0.20625   0.25000   0.00000  Uiso   1.00
O124   O     0.43988   0.12709   0.25000   0.00000  Uiso   1.00
O125   O     0.50000   0.20626   0.18573   0.00000  Uiso   1.00
O126   O     0.50000   0.12707   0.31427   0.00000  Uiso   1.00
O127   O     0.50000   0.20626   0.31427   0.00000  Uiso   1.00
O128   O     0.50000   0.12707   0.18573   0.00000  Uiso   1.00
N129   N     0.47434   0.04309   0.17384   0.00000  Uiso   1.00
H130   H     0.49424   0.03198   0.15100   0.00000  Uiso   1.00
C131   C     0.43314   0.04929   0.15589   0.00000  Uiso   1.00
H132   H     0.42969   0.03672   0.12084   0.00000  Uiso   1.00
H133   H     0.42781   0.08683   0.15526   0.00000  Uiso   1.00
H134   H     0.41030   0.03047   0.17516   0.00000  Uiso   1.00
N135   N     0.54371   0.28772   0.31752   0.00000  Uiso   1.00
H136   H     0.57439   0.29667   0.31989   0.00000  Uiso   1.00
C137   C     0.52653   0.28952   0.36067   0.00000  Uiso   1.00
H138   H     0.53745   0.32106   0.37977   0.00000  Uiso   1.00
H139   H     0.53746   0.25990   0.38022   0.00000  Uiso   1.00
H140   H     0.49248   0.28786   0.35748   0.00000  Uiso   1.00
N141   N     0.54597   0.05338   0.31491   0.00000  Uiso   1.00
H142   H     0.53533   0.05304   0.34624   0.00000  Uiso   1.00
C143   C     0.59012   0.05425   0.31278   0.00000  Uiso   1.00
H144   H     0.60414   0.03433   0.34045   0.00000  Uiso   1.00
H145   H     0.60225   0.09050   0.31671   0.00000  Uiso   1.00
H146   H     0.59936   0.03986   0.28060   0.00000  Uiso   1.00
N147   N     0.44619   0.28087   0.19232   0.00000  Uiso   1.00
H148   H     0.41699   0.28557   0.20223   0.00000  Uiso   1.00
C149   C     0.44883   0.27536   0.14478   0.00000  Uiso   1.00
H150   H     0.42334   0.29272   0.12691   0.00000  Uiso   1.00
H151   H     0.44470   0.23821   0.13537   0.00000  Uiso   1.00
H152   H     0.47855   0.28894   0.13377   0.00000  Uiso   1.00
N153   N     0.37012   0.09589   0.20459   0.00000  Uiso   1.00
H154   H     0.36026   0.09708   0.17106   0.00000  Uiso   1.00
H155   H     0.36026   0.06426   0.21724   0.00000  Uiso   1.00
N156   N     0.63054   0.23619   0.30253   0.00000  Uiso   1.00
H157   H     0.60864   0.22113   0.32222   0.00000  Uiso   1.00
H158   H     0.61686   0.25888   0.28016   0.00000  Uiso   1.00
N159   N     0.61727   0.10257   0.19738   0.00000  Uiso   1.00
H160   H     0.62299   0.06860   0.20637   0.00000  Uiso   1.00
H161   H     0.62466   0.10724   0.16451   0.00000  Uiso   1.00
N162   N     0.38075   0.23223   0.30666   0.00000  Uiso   1.00
H163   H     0.40235   0.21481   0.32631   0.00000  Uiso   1.00
H164   H     0.39554   0.25646   0.28731   0.00000  Uiso   1.00
C165   C     0.75417   0.16608   0.25095   0.00000  Uiso   1.00
C166   C     0.91246   0.16741   0.25053   0.00000  Uiso   1.00
C167   C     0.83480   0.16640   0.16504   0.00000  Uiso   1.00
C168   C     0.83373   0.16706   0.33489   0.00000  Uiso   1.00
C169   C     0.81385   0.02280   0.21588   0.00000  Uiso   1.00
C170   C     0.85496   0.31031   0.28276   0.00000  Uiso   1.00
C171   C     0.85540   0.02666   0.28225   0.00000  Uiso   1.00
C172   C     0.81085   0.30659   0.21806   0.00000  Uiso   1.00
C173   C     0.68492   0.13199   0.22801   0.00000  Uiso   1.00
C174   C     0.98149   0.20079   0.27694   0.00000  Uiso   1.00
C175   C     0.97554   0.13413   0.22589   0.00000  Uiso   1.00
C176   C     0.69069   0.19940   0.27813   0.00000  Uiso   1.00
C177   C     0.85115   0.20821   0.04966   0.00000  Uiso   1.00
C178   C     0.86432   0.13933   0.45269   0.00000  Uiso   1.00
C179   C     0.81379   0.19872   0.45267   0.00000  Uiso   1.00
C180   C     0.83104   0.12673   0.04501   0.00000  Uiso   1.00
C181   C     0.85068   0.20707   0.09572   0.00000  Uiso   1.00
C182   C     0.86243   0.13907   0.40657   0.00000  Uiso   1.00
C183   C     0.81131   0.19776   0.40642   0.00000  Uiso   1.00
C184   C     0.82971   0.12593   0.09093   0.00000  Uiso   1.00
C185   C     0.83841   0.16631   0.11668   0.00000  Uiso   1.00
C186   C     0.83561   0.16786   0.38325   0.00000  Uiso   1.00
C187   C     0.84093   0.16808   0.02420   0.00000  Uiso   1.00
C188   C     0.84003   0.16915   0.47585   0.00000  Uiso   1.00
C189   C     0.95709   0.16829   0.25062   0.00000  Uiso   1.00
C190   C     0.70943   0.16539   0.25280   0.00000  Uiso   1.00
Cu191  Cu    0.83333   0.21355   0.25000   0.00000  Uiso   1.00
Cu192  Cu    0.83333   0.11978   0.25000   0.00000  Uiso   1.00
H193   H     0.85974   0.24016   0.03388   0.00000  Uiso   1.00
H194   H     0.88497   0.11666   0.47037   0.00000  Uiso   1.00
H195   H     0.79467   0.22167   0.47036   0.00000  Uiso   1.00
H196   H     0.82339   0.09537   0.02559   0.00000  Uiso   1.00
H197   H     0.85994   0.23805   0.11490   0.00000  Uiso   1.00
H198   H     0.88252   0.11717   0.38921   0.00000  Uiso   1.00
H199   H     0.79036   0.22007   0.38879   0.00000  Uiso   1.00
H200   H     0.82128   0.09390   0.10585   0.00000  Uiso   1.00
N201   N     0.83333   0.28402   0.25000   0.00000  Uiso   1.00
N202   N     0.83333   0.04931   0.25000   0.00000  Uiso   1.00
O203   O     0.77321   0.20625   0.25000   0.00000  Uiso   1.00
O204   O     0.89345   0.12709   0.25000   0.00000  Uiso   1.00
O205   O     0.89345   0.20625   0.25000   0.00000  Uiso   1.00
O206   O     0.77321   0.12709   0.25000   0.00000  Uiso   1.00
O207   O     0.83333   0.20626   0.18573   0.00000  Uiso   1.00
O208   O     0.83334   0.12707   0.31427   0.00000  Uiso   1.00
O209   O     0.83334   0.20626   0.31427   0.00000  Uiso   1.00
O210   O     0.83333   0.12707   0.18573   0.00000  Uiso   1.00
N211   N     0.80767   0.04309   0.17384   0.00000  Uiso   1.00
H212   H     0.82757   0.03198   0.15100   0.00000  Uiso   1.00
C213   C     0.76647   0.04929   0.15589   0.00000  Uiso   1.00
H214   H     0.76303   0.03672   0.12084   0.00000  Uiso   1.00
H215   H     0.76115   0.08683   0.15526   0.00000  Uiso   1.00
H216   H     0.74363   0.03047   0.17516   0.00000  Uiso   1.00
N217   N     0.87704   0.28772   0.31752   0.00000  Uiso   1.00
H218   H     0.90772   0.29667   0.31989   0.00000  Uiso   1.00
C219   C     0.85986   0.28952   0.36067   0.00000  Uiso   1.00
H220   H     0.87078   0.32106   0.37977   0.00000  Uiso   1.00
H221   H     0.87080   0.25990   0.38022   0.00000  Uiso   1.00
H222   H     0.82582   0.28786   0.35748   0.00000  Uiso   1.00
N223   N     0.87930   0.05338   0.31491   0.00000  Uiso   1.00
H224   H     0.86866   0.05304   0.34624   0.00000  Uiso   1.00
C225   C     0.92345   0.05425   0.31278   0.00000  Uiso   1.00
H226   H     0.93748   0.03433   0.34045   0.00000  Uiso   1.00
H227   H     0.93558   0.09050   0.31671   0.00000  Uiso   1.00
H228   H     0.93269   0.03986   0.28060   0.00000  Uiso   1.00
N229   N     0.77953   0.28087   0.19232   0.00000  Uiso   1.00
H230   H     0.75032   0.28557   0.20223   0.00000  Uiso   1.00
C231   C     0.78216   0.27536   0.14478   0.00000  Uiso   1.00
H232   H     0.75668   0.29272   0.12691   0.00000  Uiso   1.00
H233   H     0.77804   0.23821   0.13537   0.00000  Uiso   1.00
H234   H     0.81189   0.28894   0.13377   0.00000  Uiso   1.00
N235   N     0.70345   0.09589   0.20459   0.00000  Uiso   1.00
H236   H     0.69359   0.09708   0.17106   0.00000  Uiso   1.00
H237   H     0.69359   0.06426   0.21724   0.00000  Uiso   1.00
N238   N     0.96387   0.23619   0.30253   0.00000  Uiso   1.00
H239   H     0.94198   0.22113   0.32222   0.00000  Uiso   1.00
H240   H     0.95020   0.25888   0.28016   0.00000  Uiso   1.00
N241   N     0.95060   0.10257   0.19738   0.00000  Uiso   1.00
H242   H     0.95632   0.06860   0.20637   0.00000  Uiso   1.00
H243   H     0.95800   0.10724   0.16451   0.00000  Uiso   1.00
N244   N     0.71408   0.23223   0.30666   0.00000  Uiso   1.00
H245   H     0.73568   0.21481   0.32631   0.00000  Uiso   1.00
H246   H     0.72887   0.25646   0.28731   0.00000  Uiso   1.00
C247   C     0.08750   0.49941   0.25095   0.00000  Uiso   1.00
C248   C     0.24579   0.50074   0.25053   0.00000  Uiso   1.00
C249   C     0.16813   0.49974   0.16504   0.00000  Uiso   1.00
C250   C     0.16706   0.50039   0.33489   0.00000  Uiso   1.00
C251   C     0.14718   0.35613   0.21588   0.00000  Uiso   1.00
C252   C     0.18830   0.64364   0.28276   0.00000  Uiso   1.00
C253   C     0.18873   0.36000   0.28225   0.00000  Uiso   1.00
C254   C     0.14418   0.63992   0.21806   0.00000  Uiso   1.00
C255   C     0.01826   0.46532   0.22801   0.00000  Uiso   1.00
C256   C     0.31482   0.53412   0.27694   0.00000  Uiso   1.00
C257   C     0.30887   0.46747   0.22589   0.00000  Uiso   1.00
C258   C     0.02402   0.53273   0.27813   0.00000  Uiso   1.00
C259   C     0.18449   0.54154   0.04966   0.00000  Uiso   1.00
C260   C     0.19766   0.47266   0.45269   0.00000  Uiso   1.00
C261   C     0.14713   0.53206   0.45267   0.00000  Uiso   1.00
C262   C     0.16438   0.46006   0.04501   0.00000  Uiso   1.00
C263   C     0.18401   0.54040   0.09572   0.00000  Uiso   1.00
C264   C     0.19576   0.47240   0.40657   0.00000  Uiso   1.00
C265   C     0.14464   0.53109   0.40642   0.00000  Uiso   1.00
C266   C     0.16304   0.45927   0.09093   0.00000  Uiso   1.00
C267   C     0.17175   0.49965   0.11668   0.00000  Uiso   1.00
C268   C     0.16894   0.50119   0.38325   0.00000  Uiso   1.00
C269   C     0.17426   0.50141   0.02420   0.00000  Uiso   1.00
C270   C     0.17337   0.50249   0.47585   0.00000  Uiso   1.00
C271   C     0.29042   0.50162   0.25062   0.00000  Uiso   1.00
C272   C     0.04276   0.49872   0.25280   0.00000  Uiso   1.00
Cu273  Cu    0.16667   0.54689   0.25000   0.00000  Uiso   1.00
Cu274  Cu    0.16667   0.45311   0.25000   0.00000  Uiso   1.00
H275   H     0.19308   0.57349   0.03388   0.00000  Uiso   1.00
H276   H     0.21830   0.45000   0.47037   0.00000  Uiso   1.00
H277   H     0.12800   0.55500   0.47036   0.00000  Uiso   1.00
H278   H     0.15672   0.42870   0.02559   0.00000  Uiso   1.00
H279   H     0.19327   0.57138   0.11490   0.00000  Uiso   1.00
H280   H     0.21585   0.45050   0.38921   0.00000  Uiso   1.00
H281   H     0.12369   0.55340   0.38879   0.00000  Uiso   1.00
H282   H     0.15461   0.42724   0.10585   0.00000  Uiso   1.00
N283   N     0.16667   0.61736   0.25000   0.00000  Uiso   1.00
N284   N     0.16667   0.38264   0.25000   0.00000  Uiso   1.00
O285   O     0.10655   0.53958   0.25000   0.00000  Uiso   1.00
O286   O     0.22679   0.46042   0.25000   0.00000  Uiso   1.00
O287   O     0.22679   0.53958   0.25000   0.00000  Uiso   1.00
O288   O     0.10655   0.46042   0.25000   0.00000  Uiso   1.00
O289   O     0.16666   0.53959   0.18573   0.00000  Uiso   1.00
O290   O     0.16667   0.46041   0.31427   0.00000  Uiso   1.00
O291   O     0.16667   0.53959   0.31427   0.00000  Uiso   1.00
O292   O     0.16666   0.46041   0.18573   0.00000  Uiso   1.00
N293   N     0.14100   0.37642   0.17384   0.00000  Uiso   1.00
H294   H     0.16090   0.36531   0.15100   0.00000  Uiso   1.00
C295   C     0.09981   0.38263   0.15589   0.00000  Uiso   1.00
H296   H     0.09636   0.37005   0.12084   0.00000  Uiso   1.00
H297   H     0.09448   0.42016   0.15526   0.00000  Uiso   1.00
H298   H     0.07696   0.36380   0.17516   0.00000  Uiso   1.00
N299   N     0.21038   0.62105   0.31752   0.00000  Uiso   1.00
H300   H     0.24105   0.63001   0.31989   0.00000  Uiso   1.00
C301   C     0.19319   0.62285   0.36067   0.00000  Uiso   1.00
H302   H     0.20412   0.65440   0.37977   0.00000  Uiso   1.00
H303   H     0.20413   0.59323   0.38022   0.00000  Uiso   1.00
H304   H     0.15915   0.62120   0.35748   0.00000  Uiso   1.00
N305   N     0.21263   0.38671   0.31491   0.00000  Uiso   1.00
H306   H     0.20199   0.38638   0.34624   0.00000  Uiso   1.00
C307   C     0.25678   0.38759   0.31278   0.00000  Uiso   1.00
H308   H     0.27081   0.36766   0.34045   0.00000  Uiso   1.00
H309   H     0.26892   0.42384   0.31671   0.00000  Uiso   1.00
H310   H     0.26602   0.37319   0.28060   0.00000  Uiso   1.00
N311   N     0.11286   0.61421   0.19232   0.00000  Uiso   1.00
H312   H     0.08365   0.61890   0.20223   0.00000  Uiso   1.00
C313   C     0.11549   0.60869   0.14478   0.00000  Uiso   1.00
H314   H     0.09001   0.62606   0.12691   0.00000  Uiso   1.00
H315   H     0.11137   0.57155   0.13537   0.00000  Uiso   1.00
H316   H     0.14522   0.62227   0.13377   0.00000  Uiso   1.00
N317   N     0.03679   0.42922   0.20459   0.00000  Uiso   1.00
H318   H     0.02693   0.43041   0.17106   0.00000  Uiso   1.00
H319   H     0.02692   0.39759   0.21724   0.00000  Uiso   1.00
N320   N     0.29720   0.56952   0.30253   0.00000  Uiso   1.00
H321   H     0.27531   0.55446   0.32222   0.00000  Uiso   1.00
H322   H     0.28353   0.59221   0.28016   0.00000  Uiso   1.00
N323   N     0.28393   0.43590   0.19738   0.00000  Uiso   1.00
H324   H     0.28965   0.40194   0.20637   0.00000  Uiso   1.00
H325   H     0.29133   0.44057   0.16451   0.00000  Uiso   1.00
N326   N     0.04741   0.56556   0.30666   0.00000  Uiso   1.00
H327   H     0.06901   0.54814   0.32631   0.00000  Uiso   1.00
H328   H     0.06220   0.58980   0.28731   0.00000  Uiso   1.00
C329   C     0.42084   0.49941   0.25095   0.00000  Uiso   1.00
C330   C     0.57912   0.50074   0.25053   0.00000  Uiso   1.00
C331   C     0.50146   0.49974   0.16504   0.00000  Uiso   1.00
C332   C     0.50040   0.50039   0.33489   0.00000  Uiso   1.00
C333   C     0.48052   0.35613   0.21588   0.00000  Uiso   1.00
C334   C     0.52163   0.64364   0.28276   0.00000  Uiso   1.00
C335   C     0.52207   0.36000   0.28225   0.00000  Uiso   1.00
C336   C     0.47752   0.63992   0.21806   0.00000  Uiso   1.00
C337   C     0.35159   0.46532   0.22801   0.00000  Uiso   1.00
C338   C     0.64815   0.53412   0.27694   0.00000  Uiso   1.00
C339   C     0.64221   0.46747   0.22589   0.00000  Uiso   1.00
C340   C     0.35736   0.53273   0.27813   0.00000  Uiso   1.00
C341   C     0.51782   0.54154   0.04966   0.00000  Uiso   1.00
C342   C     0.53099   0.47266   0.45269   0.00000  Uiso   1.00
C343   C     0.48046   0.53206   0.45267   0.00000  Uiso   1.00
C344   C     0.49771   0.46006   0.04501   0.00000  Uiso   1.00
C345   C     0.51735   0.54040   0.09572   0.00000  Uiso   1.00
C346   C     0.52909   0.47240   0.40657   0.00000  Uiso   1.00
C347   C     0.47797   0.53109   0.40642   0.00000  Uiso   1.00
C348   C     0.49637   0.45927   0.09093   0.00000  Uiso   1.00
C349   C     0.50508   0.49965   0.11668   0.00000  Uiso   1.00
C350   C     0.50228   0.50119   0.38325   0.00000  Uiso   1.00
C351   C     0.50760   0.50141   0.02420   0.00000  Uiso   1.00
C352   C     0.50670   0.50249   0.47585   0.00000  Uiso   1.00
C353   C     0.62376   0.50162   0.25062   0.00000  Uiso   1.00
C354   C     0.37610   0.49872   0.25280   0.00000  Uiso   1.00
Cu355  Cu    0.50000   0.54689   0.25000   0.00000  Uiso   1.00
Cu356  Cu    0.50000   0.45311   0.25000   0.00000  Uiso   1.00
H357   H     0.52641   0.57349   0.03388   0.00000  Uiso   1.00
H358   H     0.55164   0.45000   0.47037   0.00000  Uiso   1.00
H359   H     0.46134   0.55500   0.47036   0.00000  Uiso   1.00
H360   H     0.49005   0.42870   0.02559   0.00000  Uiso   1.00
H361   H     0.52660   0.57138   0.11490   0.00000  Uiso   1.00
H362   H     0.54919   0.45050   0.38921   0.00000  Uiso   1.00
H363   H     0.45702   0.55340   0.38879   0.00000  Uiso   1.00
H364   H     0.48794   0.42724   0.10585   0.00000  Uiso   1.00
N365   N     0.50000   0.61736   0.25000   0.00000  Uiso   1.00
N366   N     0.50000   0.38264   0.25000   0.00000  Uiso   1.00
O367   O     0.43988   0.53958   0.25000   0.00000  Uiso   1.00
O368   O     0.56012   0.46042   0.25000   0.00000  Uiso   1.00
O369   O     0.56012   0.53958   0.25000   0.00000  Uiso   1.00
O370   O     0.43988   0.46042   0.25000   0.00000  Uiso   1.00
O371   O     0.50000   0.53959   0.18573   0.00000  Uiso   1.00
O372   O     0.50000   0.46041   0.31427   0.00000  Uiso   1.00
O373   O     0.50000   0.53959   0.31427   0.00000  Uiso   1.00
O374   O     0.50000   0.46041   0.18573   0.00000  Uiso   1.00
N375   N     0.47434   0.37642   0.17384   0.00000  Uiso   1.00
H376   H     0.49424   0.36531   0.15100   0.00000  Uiso   1.00
C377   C     0.43314   0.38263   0.15589   0.00000  Uiso   1.00
H378   H     0.42969   0.37005   0.12084   0.00000  Uiso   1.00
H379   H     0.42781   0.42016   0.15526   0.00000  Uiso   1.00
H380   H     0.41030   0.36380   0.17516   0.00000  Uiso   1.00
N381   N     0.54371   0.62105   0.31752   0.00000  Uiso   1.00
H382   H     0.57439   0.63001   0.31989   0.00000  Uiso   1.00
C383   C     0.52653   0.62285   0.36067   0.00000  Uiso   1.00
H384   H     0.53745   0.65440   0.37977   0.00000  Uiso   1.00
H385   H     0.53746   0.59323   0.38022   0.00000  Uiso   1.00
H386   H     0.49248   0.62120   0.35748   0.00000  Uiso   1.00
N387   N     0.54597   0.38671   0.31491   0.00000  Uiso   1.00
H388   H     0.53533   0.38638   0.34624   0.00000  Uiso   1.00
C389   C     0.59012   0.38759   0.31278   0.00000  Uiso   1.00
H390   H     0.60414   0.36766   0.34045   0.00000  Uiso   1.00
H391   H     0.60225   0.42384   0.31671   0.00000  Uiso   1.00
H392   H     0.59936   0.37319   0.28060   0.00000  Uiso   1.00
N393   N     0.44619   0.61421   0.19232   0.00000  Uiso   1.00
H394   H     0.41699   0.61890   0.20223   0.00000  Uiso   1.00
C395   C     0.44883   0.60869   0.14478   0.00000  Uiso   1.00
H396   H     0.42334   0.62606   0.12691   0.00000  Uiso   1.00
H397   H     0.44470   0.57155   0.13537   0.00000  Uiso   1.00
H398   H     0.47855   0.62227   0.13377   0.00000  Uiso   1.00
N399   N     0.37012   0.42922   0.20459   0.00000  Uiso   1.00
H400   H     0.36026   0.43041   0.17106   0.00000  Uiso   1.00
H401   H     0.36026   0.39759   0.21724   0.00000  Uiso   1.00
N402   N     0.63054   0.56952   0.30253   0.00000  Uiso   1.00
H403   H     0.60864   0.55446   0.32222   0.00000  Uiso   1.00
H404   H     0.61686   0.59221   0.28016   0.00000  Uiso   1.00
N405   N     0.61727   0.43590   0.19738   0.00000  Uiso   1.00
H406   H     0.62299   0.40194   0.20637   0.00000  Uiso   1.00
H407   H     0.62466   0.44057   0.16451   0.00000  Uiso   1.00
N408   N     0.38075   0.56556   0.30666   0.00000  Uiso   1.00
H409   H     0.40235   0.54814   0.32631   0.00000  Uiso   1.00
H410   H     0.39554   0.58980   0.28731   0.00000  Uiso   1.00
C411   C     0.75417   0.49941   0.25095   0.00000  Uiso   1.00
C412   C     0.91246   0.50074   0.25053   0.00000  Uiso   1.00
C413   C     0.83480   0.49974   0.16504   0.00000  Uiso   1.00
C414   C     0.83373   0.50039   0.33489   0.00000  Uiso   1.00
C415   C     0.81385   0.35613   0.21588   0.00000  Uiso   1.00
C416   C     0.85496   0.64364   0.28276   0.00000  Uiso   1.00
C417   C     0.85540   0.36000   0.28225   0.00000  Uiso   1.00
C418   C     0.81085   0.63992   0.21806   0.00000  Uiso   1.00
C419   C     0.68492   0.46532   0.22801   0.00000  Uiso   1.00
C420   C     0.98149   0.53412   0.27694   0.00000  Uiso   1.00
C421   C     0.97554   0.46747   0.22589   0.00000  Uiso   1.00
C422   C     0.69069   0.53273   0.27813   0.00000  Uiso   1.00
C423   C     0.85115   0.54154   0.04966   0.00000  Uiso   1.00
C424   C     0.86432   0.47266   0.45269   0.00000  Uiso   1.00
C425   C     0.81379   0.53206   0.45267   0.00000  Uiso   1.00
C426   C     0.83104   0.46006   0.04501   0.00000  Uiso   1.00
C427   C     0.85068   0.54040   0.09572   0.00000  Uiso   1.00
C428   C     0.86243   0.47240   0.40657   0.00000  Uiso   1.00
C429   C     0.81131   0.53109   0.40642   0.00000  Uiso   1.00
C430   C     0.82971   0.45927   0.09093   0.00000  Uiso   1.00
C431   C     0.83841   0.49965   0.11668   0.00000  Uiso   1.00
C432   C     0.83561   0.50119   0.38325   0.00000  Uiso   1.00
C433   C     0.84093   0.50141   0.02420   0.00000  Uiso   1.00
C434   C     0.84003   0.50249   0.47585   0.00000  Uiso   1.00
C435   C     0.95709   0.50162   0.25062   0.00000  Uiso   1.00
C436   C     0.70943   0.49872   0.25280   0.00000  Uiso   1.00
Cu437  Cu    0.83333   0.54689   0.25000   0.00000  Uiso   1.00
Cu438  Cu    0.83333   0.45311   0.25000   0.00000  Uiso   1.00
H439   H     0.85974   0.57349   0.03388   0.00000  Uiso   1.00
H440   H     0.88497   0.45000   0.47037   0.00000  Uiso   1.00
H441   H     0.79467   0.55500   0.47036   0.00000  Uiso   1.00
H442   H     0.82339   0.42870   0.02559   0.00000  Uiso   1.00
H443   H     0.85994   0.57138   0.11490   0.00000  Uiso   1.00
H444   H     0.88252   0.45050   0.38921   0.00000  Uiso   1.00
H445   H     0.79036   0.55340   0.38879   0.00000  Uiso   1.00
H446   H     0.82128   0.42724   0.10585   0.00000  Uiso   1.00
N447   N     0.83333   0.61736   0.25000   0.00000  Uiso   1.00
N448   N     0.83333   0.38264   0.25000   0.00000  Uiso   1.00
O449   O     0.77321   0.53958   0.25000   0.00000  Uiso   1.00
O450   O     0.89345   0.46042   0.25000   0.00000  Uiso   1.00
O451   O     0.89345   0.53958   0.25000   0.00000  Uiso   1.00
O452   O     0.77321   0.46042   0.25000   0.00000  Uiso   1.00
O453   O     0.83333   0.53959   0.18573   0.00000  Uiso   1.00
O454   O     0.83334   0.46041   0.31427   0.00000  Uiso   1.00
O455   O     0.83334   0.53959   0.31427   0.00000  Uiso   1.00
O456   O     0.83333   0.46041   0.18573   0.00000  Uiso   1.00
N457   N     0.80767   0.37642   0.17384   0.00000  Uiso   1.00
H458   H     0.82757   0.36531   0.15100   0.00000  Uiso   1.00
C459   C     0.76647   0.38263   0.15589   0.00000  Uiso   1.00
H460   H     0.76303   0.37005   0.12084   0.00000  Uiso   1.00
H461   H     0.76115   0.42016   0.15526   0.00000  Uiso   1.00
H462   H     0.74363   0.36380   0.17516   0.00000  Uiso   1.00
N463   N     0.87704   0.62105   0.31752   0.00000  Uiso   1.00
H464   H     0.90772   0.63001   0.31989   0.00000  Uiso   1.00
C465   C     0.85986   0.62285   0.36067   0.00000  Uiso   1.00
H466   H     0.87078   0.65440   0.37977   0.00000  Uiso   1.00
H467   H     0.87080   0.59323   0.38022   0.00000  Uiso   1.00
H468   H     0.82582   0.62120   0.35748   0.00000  Uiso   1.00
N469   N     0.87930   0.38671   0.31491   0.00000  Uiso   1.00
H470   H     0.86866   0.38638   0.34624   0.00000  Uiso   1.00
C471   C     0.92345   0.38759   0.31278   0.00000  Uiso   1.00
H472   H     0.93748   0.36766   0.34045   0.00000  Uiso   1.00
H473   H     0.93558   0.42384   0.31671   0.00000  Uiso   1.00
H474   H     0.93269   0.37319   0.28060   0.00000  Uiso   1.00
N475   N     0.77953   0.61421   0.19232   0.00000  Uiso   1.00
H476   H     0.75032   0.61890   0.20223   0.00000  Uiso   1.00
C477   C     0.78216   0.60869   0.14478   0.00000  Uiso   1.00
H478   H     0.75668   0.62606   0.12691   0.00000  Uiso   1.00
H479   H     0.77804   0.57155   0.13537   0.00000  Uiso   1.00
H480   H     0.81189   0.62227   0.13377   0.00000  Uiso   1.00
N481   N     0.70345   0.42922   0.20459   0.00000  Uiso   1.00
H482   H     0.69359   0.43041   0.17106   0.00000  Uiso   1.00
H483   H     0.69359   0.39759   0.21724   0.00000  Uiso   1.00
N484   N     0.96387   0.56952   0.30253   0.00000  Uiso   1.00
H485   H     0.94198   0.55446   0.32222   0.00000  Uiso   1.00
H486   H     0.95020   0.59221   0.28016   0.00000  Uiso   1.00
N487   N     0.95060   0.43590   0.19738   0.00000  Uiso   1.00
H488   H     0.95632   0.40194   0.20637   0.00000  Uiso   1.00
H489   H     0.95800   0.44057   0.16451   0.00000  Uiso   1.00
N490   N     0.71408   0.56556   0.30666   0.00000  Uiso   1.00
H491   H     0.73568   0.54814   0.32631   0.00000  Uiso   1.00
H492   H     0.72887   0.58980   0.28731   0.00000  Uiso   1.00
C493   C     0.08750   0.83274   0.25095   0.00000  Uiso   1.00
C494   C     0.24579   0.83407   0.25053   0.00000  Uiso   1.00
C495   C     0.16813   0.83307   0.16504   0.00000  Uiso   1.00
C496   C     0.16706   0.83372   0.33489   0.00000  Uiso   1.00
C497   C     0.14718   0.68947   0.21588   0.00000  Uiso   1.00
C498   C     0.18830   0.97697   0.28276   0.00000  Uiso   1.00
C499   C     0.18873   0.69333   0.28225   0.00000  Uiso   1.00
C500   C     0.14418   0.97325   0.21806   0.00000  Uiso   1.00
C501   C     0.01826   0.79866   0.22801   0.00000  Uiso   1.00
C502   C     0.31482   0.86746   0.27694   0.00000  Uiso   1.00
C503   C     0.30887   0.80080   0.22589   0.00000  Uiso   1.00
C504   C     0.02402   0.86607   0.27813   0.00000  Uiso   1.00
C505   C     0.18449   0.87488   0.04966   0.00000  Uiso   1.00
C506   C     0.19766   0.80599   0.45269   0.00000  Uiso   1.00
C507   C     0.14713   0.86539   0.45267   0.00000  Uiso   1.00
C508   C     0.16438   0.79339   0.04501   0.00000  Uiso   1.00
C509   C     0.18401   0.87374   0.09572   0.00000  Uiso   1.00
C510   C     0.19576   0.80573   0.40657   0.00000  Uiso   1.00
C511   C     0.14464   0.86443   0.40642   0.00000  Uiso   1.00
C512   C     0.16304   0.79260   0.09093   0.00000  Uiso   1.00
C513   C     0.17175   0.83298   0.11668   0.00000  Uiso   1.00
C514   C     0.16894   0.83453   0.38325   0.00000  Uiso   1.00
C515   C     0.17426   0.83475   0.02420   0.00000  Uiso   1.00
C516   C     0.17337   0.83582   0.47585   0.00000  Uiso   1.00
C517   C     0.29042   0.83496   0.25062   0.00000  Uiso   1.00
C518   C     0.04276   0.83206   0.25280   0.00000  Uiso   1.00
Cu519  Cu    0.16667   0.88022   0.25000   0.00000  Uiso   1.00
Cu520  Cu    0.16667   0.78645   0.25000   0.00000  Uiso   1.00
H521   H     0.19308   0.90683   0.03388   0.00000  Uiso   1.00
H522   H     0.21830   0.78333   0.47037   0.00000  Uiso   1.00
H523   H     0.12800   0.88833   0.47036   0.00000  Uiso   1.00
H524   H     0.15672   0.76203   0.02559   0.00000  Uiso   1.00
H525   H     0.19327   0.90471   0.11490   0.00000  Uiso   1.00
H526   H     0.21585   0.78384   0.38921   0.00000  Uiso   1.00
H527   H     0.12369   0.88673   0.38879   0.00000  Uiso   1.00
H528   H     0.15461   0.76057   0.10585   0.00000  Uiso   1.00
N529   N     0.16667   0.95069   0.25000   0.00000  Uiso   1.00
N530   N     0.16667   0.71598   0.25000   0.00000  Uiso   1.00
O531   O     0.10655   0.87291   0.25000   0.00000  Uiso   1.00
O532   O     0.22679   0.79375   0.25000   0.00000  Uiso   1.00
O533   O     0.22679   0.87291   0.25000   0.00000  Uiso   1.00
O534   O     0.10655   0.79375   0.25000   0.00000  Uiso   1.00
O535   O     0.16666   0.87293   0.18573   0.00000  Uiso   1.00
O536   O     0.16667   0.79374   0.31427   0.00000  Uiso   1.00
O537   O     0.16667   0.87293   0.31427   0.00000  Uiso   1.00
O538   O     0.16666   0.79374   0.18573   0.00000  Uiso   1.00
N539   N     0.14100   0.70975   0.17384   0.00000  Uiso   1.00
H540   H     0.16090   0.69865   0.15100   0.00000  Uiso   1.00
C541   C     0.09981   0.71596   0.15589   0.00000  Uiso   1.00
H542   H     0.09636   0.70339   0.12084   0.00000  Uiso   1.00
H543   H     0.09448   0.75349   0.15526   0.00000  Uiso   1.00
H544   H     0.07696   0.69713   0.17516   0.00000  Uiso   1.00
N545   N     0.21038   0.95439   0.31752   0.00000  Uiso   1.00
H546   H     0.24105   0.96334   0.31989   0.00000  Uiso   1.00
C547   C     0.19319   0.95619   0.36067   0.00000  Uiso   1.00
H548   H     0.20412   0.98773   0.37977   0.00000  Uiso   1.00
H549   H     0.20413   0.92656   0.38022   0.00000  Uiso   1.00
H550   H     0.15915   0.95453   0.35748   0.00000  Uiso   1.00
N551   N     0.21263   0.72004   0.31491   0.00000  Uiso   1.00
H552   H     0.20199   0.71971   0.34624   0.00000  Uiso   1.00
C553   C     0.25678   0.72092   0.31278   0.00000  Uiso   1.00
H554   H     0.27081   0.70099   0.34045   0.00000  Uiso   1.00
H555   H     0.26892   0.75717   0.31671   0.00000  Uiso   1.00
H556   H     0.26602   0.70653   0.28060   0.00000  Uiso   1.00
N557   N     0.11286   0.94754   0.19232   0.00000  Uiso   1.00
H558   H     0.08365   0.95224   0.20223   0.00000  Uiso   1.00
C559   C     0.11549   0.94203   0.14478   0.00000  Uiso   1.00
H560   H     0.09001   0.95939   0.12691   0.00000  Uiso   1.00
H561   H     0.11137   0.90488   0.13537   0.00000  Uiso   1.00
H562   H     0.14522   0.95561   0.13377   0.00000  Uiso   1.00
N563   N     0.03679   0.76256   0.20459   0.00000  Uiso   1.00
H564   H     0.02693   0.76375   0.17106   0.00000  Uiso   1.00
H565   H     0.02692   0.73093   0.21724   0.00000  Uiso   1.00
N566   N     0.29720   0.90285   0.30253   0.00000  Uiso   1.00
H567   H     0.27531   0.88779   0.32222   0.00000  Uiso   1.00
H568   H     0.28353   0.92554   0.28016   0.00000  Uiso   1.00
N569   N     0.28393   0.76923   0.19738   0.00000  Uiso   1.00
H570   H     0.28965   0.73527   0.20637   0.00000  Uiso   1.00
H571   H     0.29133   0.77391   0.16451   0.00000  Uiso   1.00
N572   N     0.04741   0.89889   0.30666   0.00000  Uiso   1.00
H573   H     0.06901   0.88147   0.32631   0.00000  Uiso   1.00
H574   H     0.06220   0.92313   0.28731   0.00000  Uiso   1.00
C575   C     0.42084   0.83274   0.25095   0.00000  Uiso   1.00
C576   C     0.57912   0.83407   0.25053   0.00000  Uiso   1.00
C577   C     0.50146   0.83307   0.16504   0.00000  Uiso   1.00
C578   C     0.50040   0.83372   0.33489   0.00000  Uiso   1.00
C579   C     0.48052   0.68947   0.21588   0.00000  Uiso   1.00
C580   C     0.52163   0.97697   0.28276   0.00000  Uiso   1.00
C581   C     0.52207   0.69333   0.28225   0.00000  Uiso   1.00
C582   C     0.47752   0.97325   0.21806   0.00000  Uiso   1.00
C583   C     0.35159   0.79866   0.22801   0.00000  Uiso   1.00
C584   C     0.64815   0.86746   0.27694   0.00000  Uiso   1.00
C585   C     0.64221   0.80080   0.22589   0.00000  Uiso   1.00
C586   C     0.35736   0.86607   0.27813   0.00000  Uiso   1.00
C587   C     0.51782   0.87488   0.04966   0.00000  Uiso   1.00
C588   C     0.53099   0.80599   0.45269   0.00000  Uiso   1.00
C589   C     0.48046   0.86539   0.45267   0.00000  Uiso   1.00
C590   C     0.49771   0.79339   0.04501   0.00000  Uiso   1.00
C591   C     0.51735   0.87374   0.09572   0.00000  Uiso   1.00
C592   C     0.52909   0.80573   0.40657   0.00000  Uiso   1.00
C593   C     0.47797   0.86443   0.40642   0.00000  Uiso   1.00
C594   C     0.49637   0.79260   0.09093   0.00000  Uiso   1.00
C595   C     0.50508   0.83298   0.11668   0.00000  Uiso   1.00
C596   C     0.50228   0.83453   0.38325   0.00000  Uiso   1.00
C597   C     0.50760   0.83475   0.02420   0.00000  Uiso   1.00
C598   C     0.50670   0.83582   0.47585   0.00000  Uiso   1.00
C599   C     0.62376   0.83496   0.25062   0.00000  Uiso   1.00
C600   C     0.37610   0.83206   0.25280   0.00000  Uiso   1.00
Cu601  Cu    0.50000   0.88022   0.25000   0.00000  Uiso   1.00
Cu602  Cu    0.50000   0.78645   0.25000   0.00000  Uiso   1.00
H603   H     0.52641   0.90683   0.03388   0.00000  Uiso   1.00
H604   H     0.55164   0.78333   0.47037   0.00000  Uiso   1.00
H605   H     0.46134   0.88833   0.47036   0.00000  Uiso   1.00
H606   H     0.49005   0.76203   0.02559   0.00000  Uiso   1.00
H607   H     0.52660   0.90471   0.11490   0.00000  Uiso   1.00
H608   H     0.54919   0.78384   0.38921   0.00000  Uiso   1.00
H609   H     0.45702   0.88673   0.38879   0.00000  Uiso   1.00
H610   H     0.48794   0.76057   0.10585   0.00000  Uiso   1.00
N611   N     0.50000   0.95069   0.25000   0.00000  Uiso   1.00
N612   N     0.50000   0.71598   0.25000   0.00000  Uiso   1.00
O613   O     0.43988   0.87291   0.25000   0.00000  Uiso   1.00
O614   O     0.56012   0.79375   0.25000   0.00000  Uiso   1.00
O615   O     0.56012   0.87291   0.25000   0.00000  Uiso   1.00
O616   O     0.43988   0.79375   0.25000   0.00000  Uiso   1.00
O617   O     0.50000   0.87293   0.18573   0.00000  Uiso   1.00
O618   O     0.50000   0.79374   0.31427   0.00000  Uiso   1.00
O619   O     0.50000   0.87293   0.31427   0.00000  Uiso   1.00
O620   O     0.50000   0.79374   0.18573   0.00000  Uiso   1.00
N621   N     0.47434   0.70975   0.17384   0.00000  Uiso   1.00
H622   H     0.49424   0.69865   0.15100   0.00000  Uiso   1.00
C623   C     0.43314   0.71596   0.15589   0.00000  Uiso   1.00
H624   H     0.42969   0.70339   0.12084   0.00000  Uiso   1.00
H625   H     0.42781   0.75349   0.15526   0.00000  Uiso   1.00
H626   H     0.41030   0.69713   0.17516   0.00000  Uiso   1.00
N627   N     0.54371   0.95439   0.31752   0.00000  Uiso   1.00
H628   H     0.57439   0.96334   0.31989   0.00000  Uiso   1.00
C629   C     0.52653   0.95619   0.36067   0.00000  Uiso   1.00
H630   H     0.53745   0.98773   0.37977   0.00000  Uiso   1.00
H631   H     0.53746   0.92656   0.38022   0.00000  Uiso   1.00
H632   H     0.49248   0.95453   0.35748   0.00000  Uiso   1.00
N633   N     0.54597   0.72004   0.31491   0.00000  Uiso   1.00
H634   H     0.53533   0.71971   0.34624   0.00000  Uiso   1.00
C635   C     0.59012   0.72092   0.31278   0.00000  Uiso   1.00
H636   H     0.60414   0.70099   0.34045   0.00000  Uiso   1.00
H637   H     0.60225   0.75717   0.31671   0.00000  Uiso   1.00
H638   H     0.59936   0.70653   0.28060   0.00000  Uiso   1.00
N639   N     0.44619   0.94754   0.19232   0.00000  Uiso   1.00
H640   H     0.41699   0.95224   0.20223   0.00000  Uiso   1.00
C641   C     0.44883   0.94203   0.14478   0.00000  Uiso   1.00
H642   H     0.42334   0.95939   0.12691   0.00000  Uiso   1.00
H643   H     0.44470   0.90488   0.13537   0.00000  Uiso   1.00
H644   H     0.47855   0.95561   0.13377   0.00000  Uiso   1.00
N645   N     0.37012   0.76256   0.20459   0.00000  Uiso   1.00
H646   H     0.36026   0.76375   0.17106   0.00000  Uiso   1.00
H647   H     0.36026   0.73093   0.21724   0.00000  Uiso   1.00
N648   N     0.63054   0.90285   0.30253   0.00000  Uiso   1.00
H649   H     0.60864   0.88779   0.32222   0.00000  Uiso   1.00
H650   H     0.61686   0.92554   0.28016   0.00000  Uiso   1.00
N651   N     0.61727   0.76923   0.19738   0.00000  Uiso   1.00
H652   H     0.62299   0.73527   0.20637   0.00000  Uiso   1.00
H653   H     0.62466   0.77391   0.16451   0.00000  Uiso   1.00
N654   N     0.38075   0.89889   0.30666   0.00000  Uiso   1.00
H655   H     0.40235   0.88147   0.32631   0.00000  Uiso   1.00
H656   H     0.39554   0.92313   0.28731   0.00000  Uiso   1.00
C657   C     0.75417   0.83274   0.25095   0.00000  Uiso   1.00
C658   C     0.91246   0.83407   0.25053   0.00000  Uiso   1.00
C659   C     0.83480   0.83307   0.16504   0.00000  Uiso   1.00
C660   C     0.83373   0.83372   0.33489   0.00000  Uiso   1.00
C661   C     0.81385   0.68947   0.21588   0.00000  Uiso   1.00
C662   C     0.85496   0.97697   0.28276   0.00000  Uiso   1.00
C663   C     0.85540   0.69333   0.28225   0.00000  Uiso   1.00
C664   C     0.81085   0.97325   0.21806   0.00000  Uiso   1.00
C665   C     0.68492   0.79866   0.22801   0.00000  Uiso   1.00
C666   C     0.98149   0.86746   0.27694   0.00000  Uiso   1.00
C667   C     0.97554   0.80080   0.22589   0.00000  Uiso   1.00
C668   C     0.69069   0.86607   0.27813   0.00000  Uiso   1.00
C669   C     0.85115   0.87488   0.04966   0.00000  Uiso   1.00
C670   C     0.86432   0.80599   0.45269   0.00000  Uiso   1.00
C671   C     0.81379   0.86539   0.45267   0.00000  Uiso   1.00
C672   C     0.83104   0.79339   0.04501   0.00000  Uiso   1.00
C673   C     0.85068   0.87374   0.09572   0.00000  Uiso   1.00
C674   C     0.86243   0.80573   0.40657   0.00000  Uiso   1.00
C675   C     0.81131   0.86443   0.40642   0.00000  Uiso   1.00
C676   C     0.82971   0.79260   0.09093   0.00000  Uiso   1.00
C677   C     0.83841   0.83298   0.11668   0.00000  Uiso   1.00
C678   C     0.83561   0.83453   0.38325   0.00000  Uiso   1.00
C679   C     0.84093   0.83475   0.02420   0.00000  Uiso   1.00
C680   C     0.84003   0.83582   0.47585   0.00000  Uiso   1.00
C681   C     0.95709   0.83496   0.25062   0.00000  Uiso   1.00
C682   C     0.70943   0.83206   0.25280   0.00000  Uiso   1.00
Cu683  Cu    0.83333   0.88022   0.25000   0.00000  Uiso   1.00
Cu684  Cu    0.83333   0.78645   0.25000   0.00000  Uiso   1.00
H685   H     0.85974   0.90683   0.03388   0.00000  Uiso   1.00
H686   H     0.88497   0.78333   0.47037   0.00000  Uiso   1.00
H687   H     0.79467   0.88833   0.47036   0.00000  Uiso   1.00
H688   H     0.82339   0.76203   0.02559   0.00000  Uiso   1.00
H689   H     0.85994   0.90471   0.11490   0.00000  Uiso   1.00
H690   H     0.88252   0.78384   0.38921   0.00000  Uiso   1.00
H691   H     0.79036   0.88673   0.38879   0.00000  Uiso   1.00
H692   H     0.82128   0.76057   0.10585   0.00000  Uiso   1.00
N693   N     0.83333   0.95069   0.25000   0.00000  Uiso   1.00
N694   N     0.83333   0.71598   0.25000   0.00000  Uiso   1.00
O695   O     0.77321   0.87291   0.25000   0.00000  Uiso   1.00
O696   O     0.89345   0.79375   0.25000   0.00000  Uiso   1.00
O697   O     0.89345   0.87291   0.25000   0.00000  Uiso   1.00
O698   O     0.77321   0.79375   0.25000   0.00000  Uiso   1.00
O699   O     0.83333   0.87293   0.18573   0.00000  Uiso   1.00
O700   O     0.83334   0.79374   0.31427   0.00000  Uiso   1.00
O701   O     0.83334   0.87293   0.31427   0.00000  Uiso   1.00
O702   O     0.83333   0.79374   0.18573   0.00000  Uiso   1.00
N703   N     0.80767   0.70975   0.17384   0.00000  Uiso   1.00
H704   H     0.82757   0.69865   0.15100   0.00000  Uiso   1.00
C705   C     0.76647   0.71596   0.15589   0.00000  Uiso   1.00
H706   H     0.76303   0.70339   0.12084   0.00000  Uiso   1.00
H707   H     0.76115   0.75349   0.15526   0.00000  Uiso   1.00
H708   H     0.74363   0.69713   0.17516   0.00000  Uiso   1.00
N709   N     0.87704   0.95439   0.31752   0.00000  Uiso   1.00
H710   H     0.90772   0.96334   0.31989   0.00000  Uiso   1.00
C711   C     0.85986   0.95619   0.36067   0.00000  Uiso   1.00
H712   H     0.87078   0.98773   0.37977   0.00000  Uiso   1.00
H713   H     0.87080   0.92656   0.38022   0.00000  Uiso   1.00
H714   H     0.82582   0.95453   0.35748   0.00000  Uiso   1.00
N715   N     0.87930   0.72004   0.31491   0.00000  Uiso   1.00
H716   H     0.86866   0.71971   0.34624   0.00000  Uiso   1.00
C717   C     0.92345   0.72092   0.31278   0.00000  Uiso   1.00
H718   H     0.93748   0.70099   0.34045   0.00000  Uiso   1.00
H719   H     0.93558   0.75717   0.31671   0.00000  Uiso   1.00
H720   H     0.93269   0.70653   0.28060   0.00000  Uiso   1.00
N721   N     0.77953   0.94754   0.19232   0.00000  Uiso   1.00
H722   H     0.75032   0.95224   0.20223   0.00000  Uiso   1.00
C723   C     0.78216   0.94203   0.14478   0.00000  Uiso   1.00
H724   H     0.75668   0.95939   0.12691   0.00000  Uiso   1.00
H725   H     0.77804   0.90488   0.13537   0.00000  Uiso   1.00
H726   H     0.81189   0.95561   0.13377   0.00000  Uiso   1.00
N727   N     0.70345   0.76256   0.20459   0.00000  Uiso   1.00
H728   H     0.69359   0.76375   0.17106   0.00000  Uiso   1.00
H729   H     0.69359   0.73093   0.21724   0.00000  Uiso   1.00
N730   N     0.96387   0.90285   0.30253   0.00000  Uiso   1.00
H731   H     0.94198   0.88779   0.32222   0.00000  Uiso   1.00
H732   H     0.95020   0.92554   0.28016   0.00000  Uiso   1.00
N733   N     0.95060   0.76923   0.19738   0.00000  Uiso   1.00
H734   H     0.95632   0.73527   0.20637   0.00000  Uiso   1.00
H735   H     0.95800   0.77391   0.16451   0.00000  Uiso   1.00
N736   N     0.71408   0.89889   0.30666   0.00000  Uiso   1.00
H737   H     0.73568   0.88147   0.32631   0.00000  Uiso   1.00
H738   H     0.72887   0.92313   0.28731   0.00000  Uiso   1.00
C739   C     0.08750   0.16608   0.75095   0.00000  Uiso   1.00
C740   C     0.24579   0.16741   0.75053   0.00000  Uiso   1.00
C741   C     0.16813   0.16640   0.66504   0.00000  Uiso   1.00
C742   C     0.16706   0.16706   0.83489   0.00000  Uiso   1.00
C743   C     0.14718   0.02280   0.71588   0.00000  Uiso   1.00
C744   C     0.18830   0.31031   0.78276   0.00000  Uiso   1.00
C745   C     0.18873   0.02666   0.78225   0.00000  Uiso   1.00
C746   C     0.14418   0.30659   0.71806   0.00000  Uiso   1.00
C747   C     0.01826   0.13199   0.72801   0.00000  Uiso   1.00
C748   C     0.31482   0.20079   0.77694   0.00000  Uiso   1.00
C749   C     0.30887   0.13413   0.72589   0.00000  Uiso   1.00
C750   C     0.02402   0.19940   0.77813   0.00000  Uiso   1.00
C751   C     0.18449   0.20821   0.54966   0.00000  Uiso   1.00
C752   C     0.19766   0.13933   0.95269   0.00000  Uiso   1.00
C753   C     0.14713   0.19872   0.95267   0.00000  Uiso   1.00
C754   C     0.16438   0.12673   0.54501   0.00000  Uiso   1.00
C755   C     0.18401   0.20707   0.59572   0.00000  Uiso   1.00
C756   C     0.19576   0.13907   0.90657   0.00000  Uiso   1.00
C757   C     0.14464   0.19776   0.90642   0.00000  Uiso   1.00
C758   C     0.16304   0.12593   0.59093   0.00000  Uiso   1.00
C759   C     0.17175   0.16631   0.61668   0.00000  Uiso   1.00
C760   C     0.16894   0.16786   0.88325   0.00000  Uiso   1.00
C761   C     0.17426   0.16808   0.52420   0.00000  Uiso   1.00
C762   C     0.17337   0.16915   0.97585   0.00000  Uiso   1.00
C763   C     0.29042   0.16829   0.75062   0.00000  Uiso   1.00
C764   C     0.04276   0.16539   0.75280   0.00000  Uiso   1.00
Cu765  Cu    0.16667   0.21355   0.75000   0.00000  Uiso   1.00
Cu766  Cu    0.16667   0.11978   0.75000   0.00000  Uiso   1.00
H767   H     0.19308   0.24016   0.53388   0.00000  Uiso   1.00
H768   H     0.21830   0.11666   0.97037   0.00000  Uiso   1.00
H769   H     0.12800   0.22167   0.97036   0.00000  Uiso   1.00
H770   H     0.15672   0.09537   0.52559   0.00000  Uiso   1.00
H771   H     0.19327   0.23805   0.61490   0.00000  Uiso   1.00
H772   H     0.21585   0.11717   0.88921   0.00000  Uiso   1.00
H773   H     0.12369   0.22007   0.88879   0.00000  Uiso   1.00
H774   H     0.15461   0.09390   0.60585   0.00000  Uiso   1.00
N775   N     0.16667   0.28402   0.75000   0.00000  Uiso   1.00
N776   N     0.16667   0.04931   0.75000   0.00000  Uiso   1.00
O777   O     0.10655   0.20625   0.75000   0.00000  Uiso   1.00
O778   O     0.22679   0.12709   0.75000   0.00000  Uiso   1.00
O779   O     0.22679   0.20625   0.75000   0.00000  Uiso   1.00
O780   O     0.10655   0.12709   0.75000   0.00000  Uiso   1.00
O781   O     0.16666   0.20626   0.68573   0.00000  Uiso   1.00
O782   O     0.16667   0.12707   0.81427   0.00000  Uiso   1.00
O783   O     0.16667   0.20626   0.81427   0.00000  Uiso   1.00
O784   O     0.16666   0.12707   0.68573   0.00000  Uiso   1.00
N785   N     0.14100   0.04309   0.67384   0.00000  Uiso   1.00
H786   H     0.16090   0.03198   0.65100   0.00000  Uiso   1.00
C787   C     0.09981   0.04929   0.65589   0.00000  Uiso   1.00
H788   H     0.09636   0.03672   0.62084   0.00000  Uiso   1.00
H789   H     0.09448   0.08683   0.65526   0.00000  Uiso   1.00
H790   H     0.07696   0.03047   0.67516   0.00000  Uiso   1.00
N791   N     0.21038   0.28772   0.81752   0.00000  Uiso   1.00
H792   H     0.24105   0.29667   0.81989   0.00000  Uiso   1.00
C793   C     0.19319   0.28952   0.86067   0.00000  Uiso   1.00
H794   H     0.20412   0.32106   0.87977   0.00000  Uiso   1.00
H795   H     0.20413   0.25990   0.88022   0.00000  Uiso   1.00
H796   H     0.15915   0.28786   0.85748   0.00000  Uiso   1.00
N797   N     0.21263   0.05338   0.81491   0.00000  Uiso   1.00
H798   H     0.20199   0.05304   0.84624   0.00000  Uiso   1.00
C799   C     0.25678   0.05425   0.81278   0.00000  Uiso   1.00
H800   H     0.27081   0.03433   0.84045   0.00000  Uiso   1.00
H801   H     0.26892   0.09050   0.81671   0.00000  Uiso   1.00
H802   H     0.26602   0.03986   0.78060   0.00000  Uiso   1.00
N803   N     0.11286   0.28087   0.69232   0.00000  Uiso   1.00
H804   H     0.08365   0.28557   0.70223   0.00000  Uiso   1.00
C805   C     0.11549   0.27536   0.64478   0.00000  Uiso   1.00
H806   H     0.09001   0.29272   0.62691   0.00000  Uiso   1.00
H807   H     0.11137   0.23821   0.63537   0.00000  Uiso   1.00
H808   H     0.14522   0.28894   0.63377   0.00000  Uiso   1.00
N809   N     0.03679   0.09589   0.70459   0.00000  Uiso   1.00
H810   H     0.02693   0.09708   0.67106   0.00000  Uiso   1.00
H811   H     0.02692   0.06426   0.71724   0.00000  Uiso   1.00
N812   N     0.29720   0.23619   0.80253   0.00000  Uiso   1.00
H813   H     0.27531   0.22113   0.82222   0.00000  Uiso   1.00
H814   H     0.28353   0.25888   0.78016   0.00000  Uiso   1.00
N815   N     0.28393   0.10257   0.69738   0.00000  Uiso   1.00
H816   H     0.28965   0.06860   0.70637   0.00000  Uiso   1.00
H817   H     0.29133   0.10724   0.66451   0.00000  Uiso   1.00
N818   N     0.04741   0.23223   0.80666   0.00000  Uiso   1.00
H819   H     0.06901   0.21481   0.82631   0.00000  Uiso   1.00
H820   H     0.06220   0.25646   0.78731   0.00000  Uiso   1.00
C821   C     0.42084   0.16608   0.75095   0.00000  Uiso   1.00
C822   C     0.57912   0.16741   0.75053   0.00000  Uiso   1.00
C823   C     0.50146   0.16640   0.66504   0.00000  Uiso   1.00
C824   C     0.50040   0.16706   0.83489   0.00000  Uiso   1.00
C825   C     0.48052   0.02280   0.71588   0.00000  Uiso   1.00
C826   C     0.52163   0.31031   0.78276   0.00000  Uiso   1.00
C827   C     0.52207   0.02666   0.78225   0.00000  Uiso   1.00
C828   C     0.47752   0.30659   0.71806   0.00000  Uiso   1.00
C829   C     0.35159   0.13199   0.72801   0.00000  Uiso   1.00
C830   C     0.64815   0.20079   0.77694   0.00000  Uiso   1.00
C831   C     0.64221   0.13413   0.72589   0.00000  Uiso   1.00
C832   C     0.35736   0.19940   0.77813   0.00000  Uiso   1.00
C833   C     0.51782   0.20821   0.54966   0.00000  Uiso   1.00
C834   C     0.53099   0.13933   0.95269   0.00000  Uiso   1.00
C835   C     0.48046   0.19872   0.95267   0.00000  Uiso   1.00
C836   C     0.49771   0.12673   0.54501   0.00000  Uiso   1.00
C837   C     0.51735   0.20707   0.59572   0.00000  Uiso   1.00
C838   C     0.52909   0.13907   0.90657   0.00000  Uiso   1.00
C839   C     0.47797   0.19776   0.90642   0.00000  Uiso   1.00
C840   C     0.49637   0.12593   0.59093   0.00000  Uiso   1.00
C841   C     0.50508   0.16631   0.61668   0.00000  Uiso   1.00
C842   C     0.50228   0.16786   0.88325   0.00000  Uiso   1.00
C843   C     0.50760   0.16808   0.52420   0.00000  Uiso   1.00
C844   C     0.50670   0.16915   0.97585   0.00000  Uiso   1.00
C845   C     0.62376   0.16829   0.75062   0.00000  Uiso   1.00
C846   C     0.37610   0.16539   0.75280   0.00000  Uiso   1.00
Cu847  Cu    0.50000   0.21355   0.75000   0.00000  Uiso   1.00
Cu848  Cu    0.50000   0.11978   0.75000   0.00000  Uiso   1.00
H849   H     0.52641   0.24016   0.53388   0.00000  Uiso   1.00
H850   H     0.55164   0.11666   0.97037   0.00000  Uiso   1.00
H851   H     0.46134   0.22167   0.97036   0.00000  Uiso   1.00
H852   H     0.49005   0.09537   0.52559   0.00000  Uiso   1.00
H853   H     0.52660   0.23805   0.61490   0.00000  Uiso   1.00
H854   H     0.54919   0.11717   0.88921   0.00000  Uiso   1.00
H855   H     0.45702   0.22007   0.88879   0.00000  Uiso   1.00
H856   H     0.48794   0.09390   0.60585   0.00000  Uiso   1.00
N857   N     0.50000   0.28402   0.75000   0.00000  Uiso   1.00
N858   N     0.50000   0.04931   0.75000   0.00000  Uiso   1.00
O859   O     0.43988   0.20625   0.75000   0.00000  Uiso   1.00
O860   O     0.56012   0.12709   0.75000   0.00000  Uiso   1.00
O861   O     0.56012   0.20625   0.75000   0.00000  Uiso   1.00
O862   O     0.43988   0.12709   0.75000   0.00000  Uiso   1.00
O863   O     0.50000   0.20626   0.68573   0.00000  Uiso   1.00
O864   O     0.50000   0.12707   0.81427   0.00000  Uiso   1.00
O865   O     0.50000   0.20626   0.81427   0.00000  Uiso   1.00
O866   O     0.50000   0.12707   0.68573   0.00000  Uiso   1.00
N867   N     0.47434   0.04309   0.67384   0.00000  Uiso   1.00
H868   H     0.49424   0.03198   0.65100   0.00000  Uiso   1.00
C869   C     0.43314   0.04929   0.65589   0.00000  Uiso   1.00
H870   H     0.42969   0.03672   0.62084   0.00000  Uiso   1.00
H871   H     0.42781   0.08683   0.65526   0.00000  Uiso   1.00
H872   H     0.41030   0.03047   0.67516   0.00000  Uiso   1.00
N873   N     0.54371   0.28772   0.81752   0.00000  Uiso   1.00
H874   H     0.57439   0.29667   0.81989   0.00000  Uiso   1.00
C875   C     0.52653   0.28952   0.86067   0.00000  Uiso   1.00
H876   H     0.53745   0.32106   0.87977   0.00000  Uiso   1.00
H877   H     0.53746   0.25990   0.88022   0.00000  Uiso   1.00
H878   H     0.49248   0.28786   0.85748   0.00000  Uiso   1.00
N879   N     0.54597   0.05338   0.81491   0.00000  Uiso   1.00
H880   H     0.53533   0.05304   0.84624   0.00000  Uiso   1.00
C881   C     0.59012   0.05425   0.81278   0.00000  Uiso   1.00
H882   H     0.60414   0.03433   0.84045   0.00000  Uiso   1.00
H883   H     0.60225   0.09050   0.81671   0.00000  Uiso   1.00
H884   H     0.59936   0.03986   0.78060   0.00000  Uiso   1.00
N885   N     0.44619   0.28087   0.69232   0.00000  Uiso   1.00
H886   H     0.41699   0.28557   0.70223   0.00000  Uiso   1.00
C887   C     0.44883   0.27536   0.64478   0.00000  Uiso   1.00
H888   H     0.42334   0.29272   0.62691   0.00000  Uiso   1.00
H889   H     0.44470   0.23821   0.63537   0.00000  Uiso   1.00
H890   H     0.47855   0.28894   0.63377   0.00000  Uiso   1.00
N891   N     0.37012   0.09589   0.70459   0.00000  Uiso   1.00
H892   H     0.36026   0.09708   0.67106   0.00000  Uiso   1.00
H893   H     0.36026   0.06426   0.71724   0.00000  Uiso   1.00
N894   N     0.63054   0.23619   0.80253   0.00000  Uiso   1.00
H895   H     0.60864   0.22113   0.82222   0.00000  Uiso   1.00
H896   H     0.61686   0.25888   0.78016   0.00000  Uiso   1.00
N897   N     0.61727   0.10257   0.69738   0.00000  Uiso   1.00
H898   H     0.62299   0.06860   0.70637   0.00000  Uiso   1.00
H899   H     0.62466   0.10724   0.66451   0.00000  Uiso   1.00
N900   N     0.38075   0.23223   0.80666   0.00000  Uiso   1.00
H901   H     0.40235   0.21481   0.82631   0.00000  Uiso   1.00
H902   H     0.39554   0.25646   0.78731   0.00000  Uiso   1.00
C903   C     0.75417   0.16608   0.75095   0.00000  Uiso   1.00
C904   C     0.91246   0.16741   0.75053   0.00000  Uiso   1.00
C905   C     0.83480   0.16640   0.66504   0.00000  Uiso   1.00
C906   C     0.83373   0.16706   0.83489   0.00000  Uiso   1.00
C907   C     0.81385   0.02280   0.71588   0.00000  Uiso   1.00
C908   C     0.85496   0.31031   0.78276   0.00000  Uiso   1.00
C909   C     0.85540   0.02666   0.78225   0.00000  Uiso   1.00
C910   C     0.81085   0.30659   0.71806   0.00000  Uiso   1.00
C911   C     0.68492   0.13199   0.72801   0.00000  Uiso   1.00
C912   C     0.98149   0.20079   0.77694   0.00000  Uiso   1.00
C913   C     0.97554   0.13413   0.72589   0.00000  Uiso   1.00
C914   C     0.69069   0.19940   0.77813   0.00000  Uiso   1.00
C915   C     0.85115   0.20821   0.54966   0.00000  Uiso   1.00
C916   C     0.86432   0.13933   0.95269   0.00000  Uiso   1.00
C917   C     0.81379   0.19872   0.95267   0.00000  Uiso   1.00
C918   C     0.83104   0.12673   0.54501   0.00000  Uiso   1.00
C919   C     0.85068   0.20707   0.59572   0.00000  Uiso   1.00
C920   C     0.86243   0.13907   0.90657   0.00000  Uiso   1.00
C921   C     0.81131   0.19776   0.90642   0.00000  Uiso   1.00
C922   C     0.82971   0.12593   0.59093   0.00000  Uiso   1.00
C923   C     0.83841   0.16631   0.61668   0.00000  Uiso   1.00
C924   C     0.83561   0.16786   0.88325   0.00000  Uiso   1.00
C925   C     0.84093   0.16808   0.52420   0.00000  Uiso   1.00
C926   C     0.84003   0.16915   0.97585   0.00000  Uiso   1.00
C927   C     0.95709   0.16829   0.75062   0.00000  Uiso   1.00
C928   C     0.70943   0.16539   0.75280   0.00000  Uiso   1.00
Cu929  Cu    0.83333   0.21355   0.75000   0.00000  Uiso   1.00
Cu930  Cu    0.83333   0.11978   0.75000   0.00000  Uiso   1.00
H931   H     0.85974   0.24016   0.53388   0.00000  Uiso   1.00
H932   H     0.88497   0.11666   0.97037   0.00000  Uiso   1.00
H933   H     0.79467   0.22167   0.97036   0.00000  Uiso   1.00
H934   H     0.82339   0.09537   0.52559   0.00000  Uiso   1.00
H935   H     0.85994   0.23805   0.61490   0.00000  Uiso   1.00
H936   H     0.88252   0.11717   0.88921   0.00000  Uiso   1.00
H937   H     0.79036   0.22007   0.88879   0.00000  Uiso   1.00
H938   H     0.82128   0.09390   0.60585   0.00000  Uiso   1.00
N939   N     0.83333   0.28402   0.75000   0.00000  Uiso   1.00
N940   N     0.83333   0.04931   0.75000   0.00000  Uiso   1.00
O941   O     0.77321   0.20625   0.75000   0.00000  Uiso   1.00
O942   O     0.89345   0.12709   0.75000   0.00000  Uiso   1.00
O943   O     0.89345   0.20625   0.75000   0.00000  Uiso   1.00
O944   O     0.77321   0.12709   0.75000   0.00000  Uiso   1.00
O945   O     0.83333   0.20626   0.68573   0.00000  Uiso   1.00
O946   O     0.83334   0.12707   0.81427   0.00000  Uiso   1.00
O947   O     0.83334   0.20626   0.81427   0.00000  Uiso   1.00
O948   O     0.83333   0.12707   0.68573   0.00000  Uiso   1.00
N949   N     0.80767   0.04309   0.67384   0.00000  Uiso   1.00
H950   H     0.82757   0.03198   0.65100   0.00000  Uiso   1.00
C951   C     0.76647   0.04929   0.65589   0.00000  Uiso   1.00
H952   H     0.76303   0.03672   0.62084   0.00000  Uiso   1.00
H953   H     0.76115   0.08683   0.65526   0.00000  Uiso   1.00
H954   H     0.74363   0.03047   0.67516   0.00000  Uiso   1.00
N955   N     0.87704   0.28772   0.81752   0.00000  Uiso   1.00
H956   H     0.90772   0.29667   0.81989   0.00000  Uiso   1.00
C957   C     0.85986   0.28952   0.86067   0.00000  Uiso   1.00
H958   H     0.87078   0.32106   0.87977   0.00000  Uiso   1.00
H959   H     0.87080   0.25990   0.88022   0.00000  Uiso   1.00
H960   H     0.82582   0.28786   0.85748   0.00000  Uiso   1.00
N961   N     0.87930   0.05338   0.81491   0.00000  Uiso   1.00
H962   H     0.86866   0.05304   0.84624   0.00000  Uiso   1.00
C963   C     0.92345   0.05425   0.81278   0.00000  Uiso   1.00
H964   H     0.93748   0.03433   0.84045   0.00000  Uiso   1.00
H965   H     0.93558   0.09050   0.81671   0.00000  Uiso   1.00
H966   H     0.93269   0.03986   0.78060   0.00000  Uiso   1.00
N967   N     0.77953   0.28087   0.69232   0.00000  Uiso   1.00
H968   H     0.75032   0.28557   0.70223   0.00000  Uiso   1.00
C969   C     0.78216   0.27536   0.64478   0.00000  Uiso   1.00
H970   H     0.75668   0.29272   0.62691   0.00000  Uiso   1.00
H971   H     0.77804   0.23821   0.63537   0.00000  Uiso   1.00
H972   H     0.81189   0.28894   0.63377   0.00000  Uiso   1.00
N973   N     0.70345   0.09589   0.70459   0.00000  Uiso   1.00
H974   H     0.69359   0.09708   0.67106   0.00000  Uiso   1.00
H975   H     0.69359   0.06426   0.71724   0.00000  Uiso   1.00
N976   N     0.96387   0.23619   0.80253   0.00000  Uiso   1.00
H977   H     0.94198   0.22113   0.82222   0.00000  Uiso   1.00
H978   H     0.95020   0.25888   0.78016   0.00000  Uiso   1.00
N979   N     0.95060   0.10257   0.69738   0.00000  Uiso   1.00
H980   H     0.95632   0.06860   0.70637   0.00000  Uiso   1.00
H981   H     0.95800   0.10724   0.66451   0.00000  Uiso   1.00
N982   N     0.71408   0.23223   0.80666   0.00000  Uiso   1.00
H983   H     0.73568   0.21481   0.82631   0.00000  Uiso   1.00
H984   H     0.72887   0.25646   0.78731   0.00000  Uiso   1.00
C985   C     0.08750   0.49941   0.75095   0.00000  Uiso   1.00
C986   C     0.24579   0.50074   0.75053   0.00000  Uiso   1.00
C987   C     0.16813   0.49974   0.66504   0.00000  Uiso   1.00
C988   C     0.16706   0.50039   0.83489   0.00000  Uiso   1.00
C989   C     0.14718   0.35613   0.71588   0.00000  Uiso   1.00
C990   C     0.18830   0.64364   0.78276   0.00000  Uiso   1.00
C991   C     0.18873   0.36000   0.78225   0.00000  Uiso   1.00
C992   C     0.14418   0.63992   0.71806   0.00000  Uiso   1.00
C993   C     0.01826   0.46532   0.72801   0.00000  Uiso   1.00
C994   C     0.31482   0.53412   0.77694   0.00000  Uiso   1.00
C995   C     0.30887   0.46747   0.72589   0.00000  Uiso   1.00
C996   C     0.02402   0.53273   0.77813   0.00000  Uiso   1.00
C997   C     0.18449   0.54154   0.54966   0.00000  Uiso   1.00
C998   C     0.19766   0.47266   0.95269   0.00000  Uiso   1.00
C999   C     0.14713   0.53206   0.95267   0.00000  Uiso   1.00
C1000  C     0.16438   0.46006   0.54501   0.00000  Uiso   1.00
C1001  C     0.18401   0.54040   0.59572   0.00000  Uiso   1.00
C1002  C     0.19576   0.47240   0.90657   0.00000  Uiso   1.00
C1003  C     0.14464   0.53109   0.90642   0.00000  Uiso   1.00
C1004  C     0.16304   0.45927   0.59093   0.00000  Uiso   1.00
C1005  C     0.17175   0.49965   0.61668   0.00000  Uiso   1.00
C1006  C     0.16894   0.50119   0.88325   0.00000  Uiso   1.00
C1007  C     0.17426   0.50141   0.52420   0.00000  Uiso   1.00
C1008  C     0.17337   0.50249   0.97585   0.00000  Uiso   1.00
C1009  C     0.29042   0.50162   0.75062   0.00000  Uiso   1.00
C1010  C     0.04276   0.49872   0.75280   0.00000  Uiso   1.00
Cu1011 Cu    0.16667   0.54689   0.75000   0.00000  Uiso   1.00
Cu1012 Cu    0.16667   0.45311   0.75000   0.00000  Uiso   1.00
H1013  H     0.19308   0.57349   0.53388   0.00000  Uiso   1.00
H1014  H     0.21830   0.45000   0.97037   0.00000  Uiso   1.00
H1015  H     0.12800   0.55500   0.97036   0.00000  Uiso   1.00
H1016  H     0.15672   0.42870   0.52559   0.00000  Uiso   1.00
H1017  H     0.19327   0.57138   0.61490   0.00000  Uiso   1.00
H1018  H     0.21585   0.45050   0.88921   0.00000  Uiso   1.00
H1019  H     0.12369   0.55340   0.88879   0.00000  Uiso   1.00
H1020  H     0.15461   0.42724   0.60585   0.00000  Uiso   1.00
N1021  N     0.16667   0.61736   0.75000   0.00000  Uiso   1.00
N1022  N     0.16667   0.38264   0.75000   0.00000  Uiso   1.00
O1023  O     0.10655   0.53958   0.75000   0.00000  Uiso   1.00
O1024  O     0.22679   0.46042   0.75000   0.00000  Uiso   1.00
O1025  O     0.22679   0.53958   0.75000   0.00000  Uiso   1.00
O1026  O     0.10655   0.46042   0.75000   0.00000  Uiso   1.00
O1027  O     0.16666   0.53959   0.68573   0.00000  Uiso   1.00
O1028  O     0.16667   0.46041   0.81427   0.00000  Uiso   1.00
O1029  O     0.16667   0.53959   0.81427   0.00000  Uiso   1.00
O1030  O     0.16666   0.46041   0.68573   0.00000  Uiso   1.00
N1031  N     0.14100   0.37642   0.67384   0.00000  Uiso   1.00
H1032  H     0.16090   0.36531   0.65100   0.00000  Uiso   1.00
C1033  C     0.09981   0.38263   0.65589   0.00000  Uiso   1.00
H1034  H     0.09636   0.37005   0.62084   0.00000  Uiso   1.00
H1035  H     0.09448   0.42016   0.65526   0.00000  Uiso   1.00
H1036  H     0.07696   0.36380   0.67516   0.00000  Uiso   1.00
N1037  N     0.21038   0.62105   0.81752   0.00000  Uiso   1.00
H1038  H     0.24105   0.63001   0.81989   0.00000  Uiso   1.00
C1039  C     0.19319   0.62285   0.86067   0.00000  Uiso   1.00
H1040  H     0.20412   0.65440   0.87977   0.00000  Uiso   1.00
H1041  H     0.20413   0.59323   0.88022   0.00000  Uiso   1.00
H1042  H     0.15915   0.62120   0.85748   0.00000  Uiso   1.00
N1043  N     0.21263   0.38671   0.81491   0.00000  Uiso   1.00
H1044  H     0.20199   0.38638   0.84624   0.00000  Uiso   1.00
C1045  C     0.25678   0.38759   0.81278   0.00000  Uiso   1.00
H1046  H     0.27081   0.36766   0.84045   0.00000  Uiso   1.00
H1047  H     0.26892   0.42384   0.81671   0.00000  Uiso   1.00
H1048  H     0.26602   0.37319   0.78060   0.00000  Uiso   1.00
N1049  N     0.11286   0.61421   0.69232   0.00000  Uiso   1.00
H1050  H     0.08365   0.61890   0.70223   0.00000  Uiso   1.00
C1051  C     0.11549   0.60869   0.64478   0.00000  Uiso   1.00
H1052  H     0.09001   0.62606   0.62691   0.00000  Uiso   1.00
H1053  H     0.11137   0.57155   0.63537   0.00000  Uiso   1.00
H1054  H     0.14522   0.62227   0.63377   0.00000  Uiso   1.00
N1055  N     0.03679   0.42922   0.70459   0.00000  Uiso   1.00
H1056  H     0.02693   0.43041   0.67106   0.00000  Uiso   1.00
H1057  H     0.02692   0.39759   0.71724   0.00000  Uiso   1.00
N1058  N     0.29720   0.56952   0.80253   0.00000  Uiso   1.00
H1059  H     0.27531   0.55446   0.82222   0.00000  Uiso   1.00
H1060  H     0.28353   0.59221   0.78016   0.00000  Uiso   1.00
N1061  N     0.28393   0.43590   0.69738   0.00000  Uiso   1.00
H1062  H     0.28965   0.40194   0.70637   0.00000  Uiso   1.00
H1063  H     0.29133   0.44057   0.66451   0.00000  Uiso   1.00
N1064  N     0.04741   0.56556   0.80666   0.00000  Uiso   1.00
H1065  H     0.06901   0.54814   0.82631   0.00000  Uiso   1.00
H1066  H     0.06220   0.58980   0.78731   0.00000  Uiso   1.00
C1067  C     0.42084   0.49941   0.75095   0.00000  Uiso   1.00
C1068  C     0.57912   0.50074   0.75053   0.00000  Uiso   1.00
C1069  C     0.50146   0.49974   0.66504   0.00000  Uiso   1.00
C1070  C     0.50040   0.50039   0.83489   0.00000  Uiso   1.00
C1071  C     0.48052   0.35613   0.71588   0.00000  Uiso   1.00
C1072  C     0.52163   0.64364   0.78276   0.00000  Uiso   1.00
C1073  C     0.52207   0.36000   0.78225   0.00000  Uiso   1.00
C1074  C     0.47752   0.63992   0.71806   0.00000  Uiso   1.00
C1075  C     0.35159   0.46532   0.72801   0.00000  Uiso   1.00
C1076  C     0.64815   0.53412   0.77694   0.00000  Uiso   1.00
C1077  C     0.64221   0.46747   0.72589   0.00000  Uiso   1.00
C1078  C     0.35736   0.53273   0.77813   0.00000  Uiso   1.00
C1079  C     0.51782   0.54154   0.54966   0.00000  Uiso   1.00
C1080  C     0.53099   0.47266   0.95269   0.00000  Uiso   1.00
C1081  C     0.48046   0.53206   0.95267   0.00000  Uiso   1.00
C1082  C     0.49771   0.46006   0.54501   0.00000  Uiso   1.00
C1083  C     0.51735   0.54040   0.59572   0.00000  Uiso   1.00
C1084  C     0.52909   0.47240   0.90657   0.00000  Uiso   1.00
C1085  C     0.47797   0.53109   0.90642   0.00000  Uiso   1.00
C1086  C     0.49637   0.45927   0.59093   0.00000  Uiso   1.00
C1087  C     0.50508   0.49965   0.61668   0.00000  Uiso   1.00
C1088  C     0.50228   0.50119   0.88325   0.00000  Uiso   1.00
C1089  C     0.50760   0.50141   0.52420   0.00000  Uiso   1.00
C1090  C     0.50670   0.50249   0.97585   0.00000  Uiso   1.00
C1091  C     0.62376   0.50162   0.75062   0.00000  Uiso   1.00
C1092  C     0.37610   0.49872   0.75280   0.00000  Uiso   1.00
Cu1093 Cu    0.50000   0.54689   0.75000   0.00000  Uiso   1.00
Cu1094 Cu    0.50000   0.45311   0.75000   0.00000  Uiso   1.00
H1095  H     0.52641   0.57349   0.53388   0.00000  Uiso   1.00
H1096  H     0.55164   0.45000   0.97037   0.00000  Uiso   1.00
H1097  H     0.46134   0.55500   0.97036   0.00000  Uiso   1.00
H1098  H     0.49005   0.42870   0.52559   0.00000  Uiso   1.00
H1099  H     0.52660   0.57138   0.61490   0.00000  Uiso   1.00
H1100  H     0.54919   0.45050   0.88921   0.00000  Uiso   1.00
H1101  H     0.45702   0.55340   0.88879   0.00000  Uiso   1.00
H1102  H     0.48794   0.42724   0.60585   0.00000  Uiso   1.00
N1103  N     0.50000   0.61736   0.75000   0.00000  Uiso   1.00
N1104  N     0.50000   0.38264   0.75000   0.00000  Uiso   1.00
O1105  O     0.43988   0.53958   0.75000   0.00000  Uiso   1.00
O1106  O     0.56012   0.46042   0.75000   0.00000  Uiso   1.00
O1107  O     0.56012   0.53958   0.75000   0.00000  Uiso   1.00
O1108  O     0.43988   0.46042   0.75000   0.00000  Uiso   1.00
O1109  O     0.50000   0.53959   0.68573   0.00000  Uiso   1.00
O1110  O     0.50000   0.46041   0.81427   0.00000  Uiso   1.00
O1111  O     0.50000   0.53959   0.81427   0.00000  Uiso   1.00
O1112  O     0.50000   0.46041   0.68573   0.00000  Uiso   1.00
N1113  N     0.47434   0.37642   0.67384   0.00000  Uiso   1.00
H1114  H     0.49424   0.36531   0.65100   0.00000  Uiso   1.00
C1115  C     0.43314   0.38263   0.65589   0.00000  Uiso   1.00
H1116  H     0.42969   0.37005   0.62084   0.00000  Uiso   1.00
H1117  H     0.42781   0.42016   0.65526   0.00000  Uiso   1.00
H1118  H     0.41030   0.36380   0.67516   0.00000  Uiso   1.00
N1119  N     0.54371   0.62105   0.81752   0.00000  Uiso   1.00
H1120  H     0.57439   0.63001   0.81989   0.00000  Uiso   1.00
C1121  C     0.52653   0.62285   0.86067   0.00000  Uiso   1.00
H1122  H     0.53745   0.65440   0.87977   0.00000  Uiso   1.00
H1123  H     0.53746   0.59323   0.88022   0.00000  Uiso   1.00
H1124  H     0.49248   0.62120   0.85748   0.00000  Uiso   1.00
N1125  N     0.54597   0.38671   0.81491   0.00000  Uiso   1.00
H1126  H     0.53533   0.38638   0.84624   0.00000  Uiso   1.00
C1127  C     0.59012   0.38759   0.81278   0.00000  Uiso   1.00
H1128  H     0.60414   0.36766   0.84045   0.00000  Uiso   1.00
H1129  H     0.60225   0.42384   0.81671   0.00000  Uiso   1.00
H1130  H     0.59936   0.37319   0.78060   0.00000  Uiso   1.00
N1131  N     0.44619   0.61421   0.69232   0.00000  Uiso   1.00
H1132  H     0.41699   0.61890   0.70223   0.00000  Uiso   1.00
C1133  C     0.44883   0.60869   0.64478   0.00000  Uiso   1.00
H1134  H     0.42334   0.62606   0.62691   0.00000  Uiso   1.00
H1135  H     0.44470   0.57155   0.63537   0.00000  Uiso   1.00
H1136  H     0.47855   0.62227   0.63377   0.00000  Uiso   1.00
N1137  N     0.37012   0.42922   0.70459   0.00000  Uiso   1.00
H1138  H     0.36026   0.43041   0.67106   0.00000  Uiso   1.00
H1139  H     0.36026   0.39759   0.71724   0.00000  Uiso   1.00
N1140  N     0.63054   0.56952   0.80253   0.00000  Uiso   1.00
H1141  H     0.60864   0.55446   0.82222   0.00000  Uiso   1.00
H1142  H     0.61686   0.59221   0.78016   0.00000  Uiso   1.00
N1143  N     0.61727   0.43590   0.69738   0.00000  Uiso   1.00
H1144  H     0.62299   0.40194   0.70637   0.00000  Uiso   1.00
H1145  H     0.62466   0.44057   0.66451   0.00000  Uiso   1.00
N1146  N     0.38075   0.56556   0.80666   0.00000  Uiso   1.00
H1147  H     0.40235   0.54814   0.82631   0.00000  Uiso   1.00
H1148  H     0.39554   0.58980   0.78731   0.00000  Uiso   1.00
C1149  C     0.75417   0.49941   0.75095   0.00000  Uiso   1.00
C1150  C     0.91246   0.50074   0.75053   0.00000  Uiso   1.00
C1151  C     0.83480   0.49974   0.66504   0.00000  Uiso   1.00
C1152  C     0.83373   0.50039   0.83489   0.00000  Uiso   1.00
C1153  C     0.81385   0.35613   0.71588   0.00000  Uiso   1.00
C1154  C     0.85496   0.64364   0.78276   0.00000  Uiso   1.00
C1155  C     0.85540   0.36000   0.78225   0.00000  Uiso   1.00
C1156  C     0.81085   0.63992   0.71806   0.00000  Uiso   1.00
C1157  C     0.68492   0.46532   0.72801   0.00000  Uiso   1.00
C1158  C     0.98149   0.53412   0.77694   0.00000  Uiso   1.00
C1159  C     0.97554   0.46747   0.72589   0.00000  Uiso   1.00
C1160  C     0.69069   0.53273   0.77813   0.00000  Uiso   1.00
C1161  C     0.85115   0.54154   0.54966   0.00000  Uiso   1.00
C1162  C     0.86432   0.47266   0.95269   0.00000  Uiso   1.00
C1163  C     0.81379   0.53206   0.95267   0.00000  Uiso   1.00
C1164  C     0.83104   0.46006   0.54501   0.00000  Uiso   1.00
C1165  C     0.85068   0.54040   0.59572   0.00000  Uiso   1.00
C1166  C     0.86243   0.47240   0.90657   0.00000  Uiso   1.00
C1167  C     0.81131   0.53109   0.90642   0.00000  Uiso   1.00
C1168  C     0.82971   0.45927   0.59093   0.00000  Uiso   1.00
C1169  C     0.83841   0.49965   0.61668   0.00000  Uiso   1.00
C1170  C     0.83561   0.50119   0.88325   0.00000  Uiso   1.00
C1171  C     0.84093   0.50141   0.52420   0.00000  Uiso   1.00
C1172  C     0.84003   0.50249   0.97585   0.00000  Uiso   1.00
C1173  C     0.95709   0.50162   0.75062   0.00000  Uiso   1.00
C1174  C     0.70943   0.49872   0.75280   0.00000  Uiso   1.00
Cu1175 Cu    0.83333   0.54689   0.75000   0.00000  Uiso   1.00
Cu1176 Cu    0.83333   0.45311   0.75000   0.00000  Uiso   1.00
H1177  H     0.85974   0.57349   0.53388   0.00000  Uiso   1.00
H1178  H     0.88497   0.45000   0.97037   0.00000  Uiso   1.00
H1179  H     0.79467   0.55500   0.97036   0.00000  Uiso   1.00
H1180  H     0.82339   0.42870   0.52559   0.00000  Uiso   1.00
H1181  H     0.85994   0.57138   0.61490   0.00000  Uiso   1.00
H1182  H     0.88252   0.45050   0.88921   0.00000  Uiso   1.00
H1183  H     0.79036   0.55340   0.88879   0.00000  Uiso   1.00
H1184  H     0.82128   0.42724   0.60585   0.00000  Uiso   1.00
N1185  N     0.83333   0.61736   0.75000   0.00000  Uiso   1.00
N1186  N     0.83333   0.38264   0.75000   0.00000  Uiso   1.00
O1187  O     0.77321   0.53958   0.75000   0.00000  Uiso   1.00
O1188  O     0.89345   0.46042   0.75000   0.00000  Uiso   1.00
O1189  O     0.89345   0.53958   0.75000   0.00000  Uiso   1.00
O1190  O     0.77321   0.46042   0.75000   0.00000  Uiso   1.00
O1191  O     0.83333   0.53959   0.68573   0.00000  Uiso   1.00
O1192  O     0.83334   0.46041   0.81427   0.00000  Uiso   1.00
O1193  O     0.83334   0.53959   0.81427   0.00000  Uiso   1.00
O1194  O     0.83333   0.46041   0.68573   0.00000  Uiso   1.00
N1195  N     0.80767   0.37642   0.67384   0.00000  Uiso   1.00
H1196  H     0.82757   0.36531   0.65100   0.00000  Uiso   1.00
C1197  C     0.76647   0.38263   0.65589   0.00000  Uiso   1.00
H1198  H     0.76303   0.37005   0.62084   0.00000  Uiso   1.00
H1199  H     0.76115   0.42016   0.65526   0.00000  Uiso   1.00
H1200  H     0.74363   0.36380   0.67516   0.00000  Uiso   1.00
N1201  N     0.87704   0.62105   0.81752   0.00000  Uiso   1.00
H1202  H     0.90772   0.63001   0.81989   0.00000  Uiso   1.00
C1203  C     0.85986   0.62285   0.86067   0.00000  Uiso   1.00
H1204  H     0.87078   0.65440   0.87977   0.00000  Uiso   1.00
H1205  H     0.87080   0.59323   0.88022   0.00000  Uiso   1.00
H1206  H     0.82582   0.62120   0.85748   0.00000  Uiso   1.00
N1207  N     0.87930   0.38671   0.81491   0.00000  Uiso   1.00
H1208  H     0.86866   0.38638   0.84624   0.00000  Uiso   1.00
C1209  C     0.92345   0.38759   0.81278   0.00000  Uiso   1.00
H1210  H     0.93748   0.36766   0.84045   0.00000  Uiso   1.00
H1211  H     0.93558   0.42384   0.81671   0.00000  Uiso   1.00
H1212  H     0.93269   0.37319   0.78060   0.00000  Uiso   1.00
N1213  N     0.77953   0.61421   0.69232   0.00000  Uiso   1.00
H1214  H     0.75032   0.61890   0.70223   0.00000  Uiso   1.00
C1215  C     0.78216   0.60869   0.64478   0.00000  Uiso   1.00
H1216  H     0.75668   0.62606   0.62691   0.00000  Uiso   1.00
H1217  H     0.77804   0.57155   0.63537   0.00000  Uiso   1.00
H1218  H     0.81189   0.62227   0.63377   0.00000  Uiso   1.00
N1219  N     0.70345   0.42922   0.70459   0.00000  Uiso   1.00
H1220  H     0.69359   0.43041   0.67106   0.00000  Uiso   1.00
H1221  H     0.69359   0.39759   0.71724   0.00000  Uiso   1.00
N1222  N     0.96387   0.56952   0.80253   0.00000  Uiso   1.00
H1223  H     0.94198   0.55446   0.82222   0.00000  Uiso   1.00
H1224  H     0.95020   0.59221   0.78016   0.00000  Uiso   1.00
N1225  N     0.95060   0.43590   0.69738   0.00000  Uiso   1.00
H1226  H     0.95632   0.40194   0.70637   0.00000  Uiso   1.00
H1227  H     0.95800   0.44057   0.66451   0.00000  Uiso   1.00
N1228  N     0.71408   0.56556   0.80666   0.00000  Uiso   1.00
H1229  H     0.73568   0.54814   0.82631   0.00000  Uiso   1.00
H1230  H     0.72887   0.58980   0.78731   0.00000  Uiso   1.00
C1231  C     0.08750   0.83274   0.75095   0.00000  Uiso   1.00
C1232  C     0.24579   0.83407   0.75053   0.00000  Uiso   1.00
C1233  C     0.16813   0.83307   0.66504   0.00000  Uiso   1.00
C1234  C     0.16706   0.83372   0.83489   0.00000  Uiso   1.00
C1235  C     0.14718   0.68947   0.71588   0.00000  Uiso   1.00
C1236  C     0.18830   0.97697   0.78276   0.00000  Uiso   1.00
C1237  C     0.18873   0.69333   0.78225   0.00000  Uiso   1.00
C1238  C     0.14418   0.97325   0.71806   0.00000  Uiso   1.00
C1239  C     0.01826   0.79866   0.72801   0.00000  Uiso   1.00
C1240  C     0.31482   0.86746   0.77694   0.00000  Uiso   1.00
C1241  C     0.30887   0.80080   0.72589   0.00000  Uiso   1.00
C1242  C     0.02402   0.86607   0.77813   0.00000  Uiso   1.00
C1243  C     0.18449   0.87488   0.54966   0.00000  Uiso   1.00
C1244  C     0.19766   0.80599   0.95269   0.00000  Uiso   1.00
C1245  C     0.14713   0.86539   0.95267   0.00000  Uiso   1.00
C1246  C     0.16438   0.79339   0.54501   0.00000  Uiso   1.00
C1247  C     0.18401   0.87374   0.59572   0.00000  Uiso   1.00
C1248  C     0.19576   0.80573   0.90657   0.00000  Uiso   1.00
C1249  C     0.14464   0.86443   0.90642   0.00000  Uiso   1.00
C1250  C     0.16304   0.79260   0.59093   0.00000  Uiso   1.00
C1251  C     0.17175   0.83298   0.61668   0.00000  Uiso   1.00
C1252  C     0.16894   0.83453   0.88325   0.00000  Uiso   1.00
C1253  C     0.17426   0.83475   0.52420   0.00000  Uiso   1.00
C1254  C     0.17337   0.83582   0.97585   0.00000  Uiso   1.00
C1255  C     0.29042   0.83496   0.75062   0.00000  Uiso   1.00
C1256  C     0.04276   0.83206   0.75280   0.00000  Uiso   1.00
Cu1257 Cu    0.16667   0.88022   0.75000   0.00000  Uiso   1.00
Cu1258 Cu    0.16667   0.78645   0.75000   0.00000  Uiso   1.00
H1259  H     0.19308   0.90683   0.53388   0.00000  Uiso   1.00
H1260  H     0.21830   0.78333   0.97037   0.00000  Uiso   1.00
H1261  H     0.12800   0.88833   0.97036   0.00000  Uiso   1.00
H1262  H     0.15672   0.76203   0.52559   0.00000  Uiso   1.00
H1263  H     0.19327   0.90471   0.61490   0.00000  Uiso   1.00
H1264  H     0.21585   0.78384   0.88921   0.00000  Uiso   1.00
H1265  H     0.12369   0.88673   0.88879   0.00000  Uiso   1.00
H1266  H     0.15461   0.76057   0.60585   0.00000  Uiso   1.00
N1267  N     0.16667   0.95069   0.75000   0.00000  Uiso   1.00
N1268  N     0.16667   0.71598   0.75000   0.00000  Uiso   1.00
O1269  O     0.10655   0.87291   0.75000   0.00000  Uiso   1.00
O1270  O     0.22679   0.79375   0.75000   0.00000  Uiso   1.00
O1271  O     0.22679   0.87291   0.75000   0.00000  Uiso   1.00
O1272  O     0.10655   0.79375   0.75000   0.00000  Uiso   1.00
O1273  O     0.16666   0.87293   0.68573   0.00000  Uiso   1.00
O1274  O     0.16667   0.79374   0.81427   0.00000  Uiso   1.00
O1275  O     0.16667   0.87293   0.81427   0.00000  Uiso   1.00
O1276  O     0.16666   0.79374   0.68573   0.00000  Uiso   1.00
N1277  N     0.14100   0.70975   0.67384   0.00000  Uiso   1.00
H1278  H     0.16090   0.69865   0.65100   0.00000  Uiso   1.00
C1279  C     0.09981   0.71596   0.65589   0.00000  Uiso   1.00
H1280  H     0.09636   0.70339   0.62084   0.00000  Uiso   1.00
H1281  H     0.09448   0.75349   0.65526   0.00000  Uiso   1.00
H1282  H     0.07696   0.69713   0.67516   0.00000  Uiso   1.00
N1283  N     0.21038   0.95439   0.81752   0.00000  Uiso   1.00
H1284  H     0.24105   0.96334   0.81989   0.00000  Uiso   1.00
C1285  C     0.19319   0.95619   0.86067   0.00000  Uiso   1.00
H1286  H     0.20412   0.98773   0.87977   0.00000  Uiso   1.00
H1287  H     0.20413   0.92656   0.88022   0.00000  Uiso   1.00
H1288  H     0.15915   0.95453   0.85748   0.00000  Uiso   1.00
N1289  N     0.21263   0.72004   0.81491   0.00000  Uiso   1.00
H1290  H     0.20199   0.71971   0.84624   0.00000  Uiso   1.00
C1291  C     0.25678   0.72092   0.81278   0.00000  Uiso   1.00
H1292  H     0.27081   0.70099   0.84045   0.00000  Uiso   1.00
H1293  H     0.26892   0.75717   0.81671   0.00000  Uiso   1.00
H1294  H     0.26602   0.70653   0.78060   0.00000  Uiso   1.00
N1295  N     0.11286   0.94754   0.69232   0.00000  Uiso   1.00
H1296  H     0.08365   0.95224   0.70223   0.00000  Uiso   1.00
C1297  C     0.11549   0.94203   0.64478   0.00000  Uiso   1.00
H1298  H     0.09001   0.95939   0.62691   0.00000  Uiso   1.00
H1299  H     0.11137   0.90488   0.63537   0.00000  Uiso   1.00
H1300  H     0.14522   0.95561   0.63377   0.00000  Uiso   1.00
N1301  N     0.03679   0.76256   0.70459   0.00000  Uiso   1.00
H1302  H     0.02693   0.76375   0.67106   0.00000  Uiso   1.00
H1303  H     0.02692   0.73093   0.71724   0.00000  Uiso   1.00
N1304  N     0.29720   0.90285   0.80253   0.00000  Uiso   1.00
H1305  H     0.27531   0.88779   0.82222   0.00000  Uiso   1.00
H1306  H     0.28353   0.92554   0.78016   0.00000  Uiso   1.00
N1307  N     0.28393   0.76923   0.69738   0.00000  Uiso   1.00
H1308  H     0.28965   0.73527   0.70637   0.00000  Uiso   1.00
H1309  H     0.29133   0.77391   0.66451   0.00000  Uiso   1.00
N1310  N     0.04741   0.89889   0.80666   0.00000  Uiso   1.00
H1311  H     0.06901   0.88147   0.82631   0.00000  Uiso   1.00
H1312  H     0.06220   0.92313   0.78731   0.00000  Uiso   1.00
C1313  C     0.42084   0.83274   0.75095   0.00000  Uiso   1.00
C1314  C     0.57912   0.83407   0.75053   0.00000  Uiso   1.00
C1315  C     0.50146   0.83307   0.66504   0.00000  Uiso   1.00
C1316  C     0.50040   0.83372   0.83489   0.00000  Uiso   1.00
C1317  C     0.48052   0.68947   0.71588   0.00000  Uiso   1.00
C1318  C     0.52163   0.97697   0.78276   0.00000  Uiso   1.00
C1319  C     0.52207   0.69333   0.78225   0.00000  Uiso   1.00
C1320  C     0.47752   0.97325   0.71806   0.00000  Uiso   1.00
C1321  C     0.35159   0.79866   0.72801   0.00000  Uiso   1.00
C1322  C     0.64815   0.86746   0.77694   0.00000  Uiso   1.00
C1323  C     0.64221   0.80080   0.72589   0.00000  Uiso   1.00
C1324  C     0.35736   0.86607   0.77813   0.00000  Uiso   1.00
C1325  C     0.51782   0.87488   0.54966   0.00000  Uiso   1.00
C1326  C     0.53099   0.80599   0.95269   0.00000  Uiso   1.00
C1327  C     0.48046   0.86539   0.95267   0.00000  Uiso   1.00
C1328  C     0.49771   0.79339   0.54501   0.00000  Uiso   1.00
C1329  C     0.51735   0.87374   0.59572   0.00000  Uiso   1.00
C1330  C     0.52909   0.80573   0.90657   0.00000  Uiso   1.00
C1331  C     0.47797   0.86443   0.90642   0.00000  Uiso   1.00
C1332  C     0.49637   0.79260   0.59093   0.00000  Uiso   1.00
C1333  C     0.50508   0.83298   0.61668   0.00000  Uiso   1.00
C1334  C     0.50228   0.83453   0.88325   0.00000  Uiso   1.00
C1335  C     0.50760   0.83475   0.52420   0.00000  Uiso   1.00
C1336  C     0.50670   0.83582   0.97585   0.00000  Uiso   1.00
C1337  C     0.62376   0.83496   0.75062   0.00000  Uiso   1.00
C1338  C     0.37610   0.83206   0.75280   0.00000  Uiso   1.00
Cu1339 Cu    0.50000   0.88022   0.75000   0.00000  Uiso   1.00
Cu1340 Cu    0.50000   0.78645   0.75000   0.00000  Uiso   1.00
H1341  H     0.52641   0.90683   0.53388   0.00000  Uiso   1.00
H1342  H     0.55164   0.78333   0.97037   0.00000  Uiso   1.00
H1343  H     0.46134   0.88833   0.97036   0.00000  Uiso   1.00
H1344  H     0.49005   0.76203   0.52559   0.00000  Uiso   1.00
H1345  H     0.52660   0.90471   0.61490   0.00000  Uiso   1.00
H1346  H     0.54919   0.78384   0.88921   0.00000  Uiso   1.00
H1347  H     0.45702   0.88673   0.88879   0.00000  Uiso   1.00
H1348  H     0.48794   0.76057   0.60585   0.00000  Uiso   1.00
N1349  N     0.50000   0.95069   0.75000   0.00000  Uiso   1.00
N1350  N     0.50000   0.71598   0.75000   0.00000  Uiso   1.00
O1351  O     0.43988   0.87291   0.75000   0.00000  Uiso   1.00
O1352  O     0.56012   0.79375   0.75000   0.00000  Uiso   1.00
O1353  O     0.56012   0.87291   0.75000   0.00000  Uiso   1.00
O1354  O     0.43988   0.79375   0.75000   0.00000  Uiso   1.00
O1355  O     0.50000   0.87293   0.68573   0.00000  Uiso   1.00
O1356  O     0.50000   0.79374   0.81427   0.00000  Uiso   1.00
O1357  O     0.50000   0.87293   0.81427   0.00000  Uiso   1.00
O1358  O     0.50000   0.79374   0.68573   0.00000  Uiso   1.00
N1359  N     0.47434   0.70975   0.67384   0.00000  Uiso   1.00
H1360  H     0.49424   0.69865   0.65100   0.00000  Uiso   1.00
C1361  C     0.43314   0.71596   0.65589   0.00000  Uiso   1.00
H1362  H     0.42969   0.70339   0.62084   0.00000  Uiso   1.00
H1363  H     0.42781   0.75349   0.65526   0.00000  Uiso   1.00
H1364  H     0.41030   0.69713   0.67516   0.00000  Uiso   1.00
N1365  N     0.54371   0.95439   0.81752   0.00000  Uiso   1.00
H1366  H     0.57439   0.96334   0.81989   0.00000  Uiso   1.00
C1367  C     0.52653   0.95619   0.86067   0.00000  Uiso   1.00
H1368  H     0.53745   0.98773   0.87977   0.00000  Uiso   1.00
H1369  H     0.53746   0.92656   0.88022   0.00000  Uiso   1.00
H1370  H     0.49248   0.95453   0.85748   0.00000  Uiso   1.00
N1371  N     0.54597   0.72004   0.81491   0.00000  Uiso   1.00
H1372  H     0.53533   0.71971   0.84624   0.00000  Uiso   1.00
C1373  C     0.59012   0.72092   0.81278   0.00000  Uiso   1.00
H1374  H     0.60414   0.70099   0.84045   0.00000  Uiso   1.00
H1375  H     0.60225   0.75717   0.81671   0.00000  Uiso   1.00
H1376  H     0.59936   0.70653   0.78060   0.00000  Uiso   1.00
N1377  N     0.44619   0.94754   0.69232   0.00000  Uiso   1.00
H1378  H     0.41699   0.95224   0.70223   0.00000  Uiso   1.00
C1379  C     0.44883   0.94203   0.64478   0.00000  Uiso   1.00
H1380  H     0.42334   0.95939   0.62691   0.00000  Uiso   1.00
H1381  H     0.44470   0.90488   0.63537   0.00000  Uiso   1.00
H1382  H     0.47855   0.95561   0.63377   0.00000  Uiso   1.00
N1383  N     0.37012   0.76256   0.70459   0.00000  Uiso   1.00
H1384  H     0.36026   0.76375   0.67106   0.00000  Uiso   1.00
H1385  H     0.36026   0.73093   0.71724   0.00000  Uiso   1.00
N1386  N     0.63054   0.90285   0.80253   0.00000  Uiso   1.00
H1387  H     0.60864   0.88779   0.82222   0.00000  Uiso   1.00
H1388  H     0.61686   0.92554   0.78016   0.00000  Uiso   1.00
N1389  N     0.61727   0.76923   0.69738   0.00000  Uiso   1.00
H1390  H     0.62299   0.73527   0.70637   0.00000  Uiso   1.00
H1391  H     0.62466   0.77391   0.66451   0.00000  Uiso   1.00
N1392  N     0.38075   0.89889   0.80666   0.00000  Uiso   1.00
H1393  H     0.40235   0.88147   0.82631   0.00000  Uiso   1.00
H1394  H     0.39554   0.92313   0.78731   0.00000  Uiso   1.00
C1395  C     0.75417   0.83274   0.75095   0.00000  Uiso   1.00
C1396  C     0.91246   0.83407   0.75053   0.00000  Uiso   1.00
C1397  C     0.83480   0.83307   0.66504   0.00000  Uiso   1.00
C1398  C     0.83373   0.83372   0.83489   0.00000  Uiso   1.00
C1399  C     0.81385   0.68947   0.71588   0.00000  Uiso   1.00
C1400  C     0.85496   0.97697   0.78276   0.00000  Uiso   1.00
C1401  C     0.85540   0.69333   0.78225   0.00000  Uiso   1.00
C1402  C     0.81085   0.97325   0.71806   0.00000  Uiso   1.00
C1403  C     0.68492   0.79866   0.72801   0.00000  Uiso   1.00
C1404  C     0.98149   0.86746   0.77694   0.00000  Uiso   1.00
C1405  C     0.97554   0.80080   0.72589   0.00000  Uiso   1.00
C1406  C     0.69069   0.86607   0.77813   0.00000  Uiso   1.00
C1407  C     0.85115   0.87488   0.54966   0.00000  Uiso   1.00
C1408  C     0.86432   0.80599   0.95269   0.00000  Uiso   1.00
C1409  C     0.81379   0.86539   0.95267   0.00000  Uiso   1.00
C1410  C     0.83104   0.79339   0.54501   0.00000  Uiso   1.00
C1411  C     0.85068   0.87374   0.59572   0.00000  Uiso   1.00
C1412  C     0.86243   0.80573   0.90657   0.00000  Uiso   1.00
C1413  C     0.81131   0.86443   0.90642   0.00000  Uiso   1.00
C1414  C     0.82971   0.79260   0.59093   0.00000  Uiso   1.00
C1415  C     0.83841   0.83298   0.61668   0.00000  Uiso   1.00
C1416  C     0.83561   0.83453   0.88325   0.00000  Uiso   1.00
C1417  C     0.84093   0.83475   0.52420   0.00000  Uiso   1.00
C1418  C     0.84003   0.83582   0.97585   0.00000  Uiso   1.00
C1419  C     0.95709   0.83496   0.75062   0.00000  Uiso   1.00
C1420  C     0.70943   0.83206   0.75280   0.00000  Uiso   1.00
Cu1421 Cu    0.83333   0.88022   0.75000   0.00000  Uiso   1.00
Cu1422 Cu    0.83333   0.78645   0.75000   0.00000  Uiso   1.00
H1423  H     0.85974   0.90683   0.53388   0.00000  Uiso   1.00
H1424  H     0.88497   0.78333   0.97037   0.00000  Uiso   1.00
H1425  H     0.79467   0.88833   0.97036   0.00000  Uiso   1.00
H1426  H     0.82339   0.76203   0.52559   0.00000  Uiso   1.00
H1427  H     0.85994   0.90471   0.61490   0.00000  Uiso   1.00
H1428  H     0.88252   0.78384   0.88921   0.00000  Uiso   1.00
H1429  H     0.79036   0.88673   0.88879   0.00000  Uiso   1.00
H1430  H     0.82128   0.76057   0.60585   0.00000  Uiso   1.00
N1431  N     0.83333   0.95069   0.75000   0.00000  Uiso   1.00
N1432  N     0.83333   0.71598   0.75000   0.00000  Uiso   1.00
O1433  O     0.77321   0.87291   0.75000   0.00000  Uiso   1.00
O1434  O     0.89345   0.79375   0.75000   0.00000  Uiso   1.00
O1435  O     0.89345   0.87291   0.75000   0.00000  Uiso   1.00
O1436  O     0.77321   0.79375   0.75000   0.00000  Uiso   1.00
O1437  O     0.83333   0.87293   0.68573   0.00000  Uiso   1.00
O1438  O     0.83334   0.79374   0.81427   0.00000  Uiso   1.00
O1439  O     0.83334   0.87293   0.81427   0.00000  Uiso   1.00
O1440  O     0.83333   0.79374   0.68573   0.00000  Uiso   1.00
N1441  N     0.80767   0.70975   0.67384   0.00000  Uiso   1.00
H1442  H     0.82757   0.69865   0.65100   0.00000  Uiso   1.00
C1443  C     0.76647   0.71596   0.65589   0.00000  Uiso   1.00
H1444  H     0.76303   0.70339   0.62084   0.00000  Uiso   1.00
H1445  H     0.76115   0.75349   0.65526   0.00000  Uiso   1.00
H1446  H     0.74363   0.69713   0.67516   0.00000  Uiso   1.00
N1447  N     0.87704   0.95439   0.81752   0.00000  Uiso   1.00
H1448  H     0.90772   0.96334   0.81989   0.00000  Uiso   1.00
C1449  C     0.85986   0.95619   0.86067   0.00000  Uiso   1.00
H1450  H     0.87078   0.98773   0.87977   0.00000  Uiso   1.00
H1451  H     0.87080   0.92656   0.88022   0.00000  Uiso   1.00
H1452  H     0.82582   0.95453   0.85748   0.00000  Uiso   1.00
N1453  N     0.87930   0.72004   0.81491   0.00000  Uiso   1.00
H1454  H     0.86866   0.71971   0.84624   0.00000  Uiso   1.00
C1455  C     0.92345   0.72092   0.81278   0.00000  Uiso   1.00
H1456  H     0.93748   0.70099   0.84045   0.00000  Uiso   1.00
H1457  H     0.93558   0.75717   0.81671   0.00000  Uiso   1.00
H1458  H     0.93269   0.70653   0.78060   0.00000  Uiso   1.00
N1459  N     0.77953   0.94754   0.69232   0.00000  Uiso   1.00
H1460  H     0.75032   0.95224   0.70223   0.00000  Uiso   1.00
C1461  C     0.78216   0.94203   0.64478   0.00000  Uiso   1.00
H1462  H     0.75668   0.95939   0.62691   0.00000  Uiso   1.00
H1463  H     0.77804   0.90488   0.63537   0.00000  Uiso   1.00
H1464  H     0.81189   0.95561   0.63377   0.00000  Uiso   1.00
N1465  N     0.70345   0.76256   0.70459   0.00000  Uiso   1.00
H1466  H     0.69359   0.76375   0.67106   0.00000  Uiso   1.00
H1467  H     0.69359   0.73093   0.71724   0.00000  Uiso   1.00
N1468  N     0.96387   0.90285   0.80253   0.00000  Uiso   1.00
H1469  H     0.94198   0.88779   0.82222   0.00000  Uiso   1.00
H1470  H     0.95020   0.92554   0.78016   0.00000  Uiso   1.00
N1471  N     0.95060   0.76923   0.69738   0.00000  Uiso   1.00
H1472  H     0.95632   0.73527   0.70637   0.00000  Uiso   1.00
H1473  H     0.95800   0.77391   0.66451   0.00000  Uiso   1.00
N1474  N     0.71408   0.89889   0.80666   0.00000  Uiso   1.00
H1475  H     0.73568   0.88147   0.82631   0.00000  Uiso   1.00
H1476  H     0.72887   0.92313   0.78731   0.00000  Uiso   1.00
loop_
_geom_bond_atom_site_label_1
_geom_bond_atom_site_label_2
_geom_bond_distance
_geom_bond_site_symmetry_2
_ccdc_geom_bond_type
C1     C26     1.468   .     S
C1     O39     1.300   .     A
C1     O42     1.309   .     A
C2     O41     1.304   .     A
C2     C25     1.459   .     S
C2     O40     1.301   .     A
C3     O43     1.304   .     A
C3     C21     1.471   .     S
C3     O46     1.309   .     A
C4     O45     1.304   .     A
C4     O44     1.302   .     A
C4     C22     1.456   .     S
C5     N47     1.415   .     S
C5     N38     1.382   .     A
C5     C500    1.436   1_545 S
C6     N37     1.380   .     A
C6     N53     1.421   .     S
C6     C253    1.437   .     S
C7     N59     1.419   .     S
C7     N38     1.369   .     A
C7     C498    1.437   1_545 S
C8     N65     1.426   .     S
C8     N37     1.368   .     A
C8     C251    1.436   .     S
C9     C26     1.407   .     A
C9     N71     1.424   .     S
C9     C175    1.399   1_455 S
C10    C25     1.411   .     A
C10    N74     1.429   .     S
C10    C94     1.392   .     S
C11    N77     1.439   .     S
C11    C25     1.402   .     A
C11    C91     1.399   .     S
C12    C26     1.414   .     A
C12    N80     1.437   .     S
C12    C174    1.392   1_455 S
C13    H29     1.083   .     S
C13    C23     1.398   .     A
C13    C17     1.392   .     A
C14    C18     1.389   .     A
C14    C24     1.399   .     A
C14    H30     1.083   .     S
C15    C19     1.392   .     A
C15    C24     1.401   .     A
C15    H31     1.083   .     S
C16    C20     1.389   .     A
C16    C23     1.398   .     A
C16    H32     1.084   .     S
C17    H33     1.081   .     S
C17    C21     1.405   .     A
C18    H34     1.080   .     S
C18    C22     1.401   .     A
C19    C22     1.401   .     A
C19    H35     1.082   .     S
C20    H36     1.072   .     S
C20    C21     1.401   .     A
C23    C762    1.459   1_554 S
C24    C761    1.459   .     S
Cu27   O39     1.971   .     S
Cu27   O45     1.955   .     S
Cu27   O43     1.947   .     S
Cu27   O41     1.986   .     S
Cu27   N37     2.038   .     S
Cu27   Cu28    2.713   .     S
Cu28   O46     1.955   .     S
Cu28   O40     1.971   .     S
Cu28   O44     1.947   .     S
Cu28   N38     2.038   .     S
Cu28   O42     1.986   .     S
N47    C49     1.441   .     S
N47    H48     1.031   .     S
C49    H51     1.106   .     S
C49    H52     1.108   .     S
C49    H50     1.110   .     S
N53    H54     1.025   .     S
N53    C55     1.449   .     S
C55    H56     1.106   .     S
C55    H57     1.108   .     S
C55    H58     1.111   .     S
N59    C61     1.449   .     S
N59    H60     1.027   .     S
C61    H63     1.109   .     S
C61    H64     1.112   .     S
C61    H62     1.110   .     S
N65    C67     1.448   .     S
N65    H66     1.031   .     S
C67    H68     1.107   .     S
C67    H69     1.107   .     S
C67    H70     1.107   .     S
N71    H73     1.046   .     S
N71    H72     1.045   .     S
N74    H76     1.044   .     S
N74    H75     1.046   .     S
N77    H79     1.045   .     S
N77    H78     1.045   .     S
N80    H82     1.044   .     S
N80    H81     1.045   .     S
C83    C108    1.468   .     S
C83    O121    1.300   .     A
C83    O124    1.309   .     A
C84    O123    1.304   .     A
C84    C107    1.459   .     S
C84    O122    1.301   .     A
C85    O125    1.304   .     A
C85    C103    1.471   .     S
C85    O128    1.309   .     A
C86    O127    1.304   .     A
C86    O126    1.302   .     A
C86    C104    1.456   .     S
C87    N129    1.415   .     S
C87    N120    1.382   .     A
C87    C582    1.436   1_545 S
C88    N119    1.380   .     A
C88    N135    1.421   .     S
C88    C335    1.437   .     S
C89    N141    1.419   .     S
C89    N120    1.369   .     A
C89    C580    1.437   1_545 S
C90    N147    1.426   .     S
C90    N119    1.368   .     A
C90    C333    1.436   .     S
C91    C108    1.407   .     A
C91    N153    1.424   .     S
C92    C107    1.411   .     A
C92    N156    1.429   .     S
C92    C176    1.392   .     S
C93    N159    1.439   .     S
C93    C107    1.402   .     A
C93    C173    1.399   .     S
C94    C108    1.414   .     A
C94    N162    1.437   .     S
C95    H111    1.083   .     S
C95    C105    1.398   .     A
C95    C99     1.392   .     A
C96    C100    1.389   .     A
C96    C106    1.399   .     A
C96    H112    1.083   .     S
C97    C101    1.392   .     A
C97    C106    1.401   .     A
C97    H113    1.083   .     S
C98    C102    1.389   .     A
C98    C105    1.398   .     A
C98    H114    1.084   .     S
C99    H115    1.081   .     S
C99    C103    1.405   .     A
C100   H116    1.080   .     S
C100   C104    1.401   .     A
C101   C104    1.401   .     A
C101   H117    1.082   .     S
C102   H118    1.072   .     S
C102   C103    1.401   .     A
C105   C844    1.459   1_554 S
C106   C843    1.459   .     S
Cu109  O121    1.971   .     S
Cu109  O127    1.955   .     S
Cu109  O125    1.947   .     S
Cu109  O123    1.986   .     S
Cu109  N119    2.038   .     S
Cu109  Cu110   2.713   .     S
Cu110  O128    1.955   .     S
Cu110  O122    1.971   .     S
Cu110  O126    1.947   .     S
Cu110  N120    2.038   .     S
Cu110  O124    1.986   .     S
N129   C131    1.441   .     S
N129   H130    1.031   .     S
C131   H133    1.106   .     S
C131   H134    1.108   .     S
C131   H132    1.110   .     S
N135   H136    1.025   .     S
N135   C137    1.449   .     S
C137   H138    1.106   .     S
C137   H139    1.108   .     S
C137   H140    1.111   .     S
N141   C143    1.449   .     S
N141   H142    1.027   .     S
C143   H145    1.109   .     S
C143   H146    1.112   .     S
C143   H144    1.110   .     S
N147   C149    1.448   .     S
N147   H148    1.031   .     S
C149   H150    1.107   .     S
C149   H151    1.107   .     S
C149   H152    1.107   .     S
N153   H155    1.046   .     S
N153   H154    1.045   .     S
N156   H158    1.044   .     S
N156   H157    1.046   .     S
N159   H161    1.045   .     S
N159   H160    1.045   .     S
N162   H164    1.044   .     S
N162   H163    1.045   .     S
C165   C190    1.468   .     S
C165   O203    1.300   .     A
C165   O206    1.309   .     A
C166   O205    1.304   .     A
C166   C189    1.459   .     S
C166   O204    1.301   .     A
C167   O207    1.304   .     A
C167   C185    1.471   .     S
C167   O210    1.309   .     A
C168   O209    1.304   .     A
C168   O208    1.302   .     A
C168   C186    1.456   .     S
C169   N211    1.415   .     S
C169   N202    1.382   .     A
C169   C664    1.436   1_545 S
C170   N201    1.380   .     A
C170   N217    1.421   .     S
C170   C417    1.437   .     S
C171   N223    1.419   .     S
C171   N202    1.369   .     A
C171   C662    1.437   1_545 S
C172   N229    1.426   .     S
C172   N201    1.368   .     A
C172   C415    1.436   .     S
C173   C190    1.407   .     A
C173   N235    1.424   .     S
C174   C189    1.411   .     A
C174   N238    1.429   .     S
C174   C12     1.392   1_655 S
C175   N241    1.439   .     S
C175   C189    1.402   .     A
C175   C9      1.399   1_655 S
C176   C190    1.414   .     A
C176   N244    1.437   .     S
C177   H193    1.083   .     S
C177   C187    1.398   .     A
C177   C181    1.392   .     A
C178   C182    1.389   .     A
C178   C188    1.399   .     A
C178   H194    1.083   .     S
C179   C183    1.392   .     A
C179   C188    1.401   .     A
C179   H195    1.083   .     S
C180   C184    1.389   .     A
C180   C187    1.398   .     A
C180   H196    1.084   .     S
C181   H197    1.081   .     S
C181   C185    1.405   .     A
C182   H198    1.080   .     S
C182   C186    1.401   .     A
C183   C186    1.401   .     A
C183   H199    1.082   .     S
C184   H200    1.072   .     S
C184   C185    1.401   .     A
C187   C926    1.459   1_554 S
C188   C925    1.459   .     S
Cu191  O203    1.971   .     S
Cu191  O209    1.955   .     S
Cu191  O207    1.947   .     S
Cu191  O205    1.986   .     S
Cu191  N201    2.038   .     S
Cu191  Cu192   2.713   .     S
Cu192  O210    1.955   .     S
Cu192  O204    1.971   .     S
Cu192  O208    1.947   .     S
Cu192  N202    2.038   .     S
Cu192  O206    1.986   .     S
N211   C213    1.441   .     S
N211   H212    1.031   .     S
C213   H215    1.106   .     S
C213   H216    1.108   .     S
C213   H214    1.110   .     S
N217   H218    1.025   .     S
N217   C219    1.449   .     S
C219   H220    1.106   .     S
C219   H221    1.108   .     S
C219   H222    1.111   .     S
N223   C225    1.449   .     S
N223   H224    1.027   .     S
C225   H227    1.109   .     S
C225   H228    1.112   .     S
C225   H226    1.110   .     S
N229   C231    1.448   .     S
N229   H230    1.031   .     S
C231   H232    1.107   .     S
C231   H233    1.107   .     S
C231   H234    1.107   .     S
N235   H237    1.046   .     S
N235   H236    1.045   .     S
N238   H240    1.044   .     S
N238   H239    1.046   .     S
N241   H243    1.045   .     S
N241   H242    1.045   .     S
N244   H246    1.044   .     S
N244   H245    1.045   .     S
C247   C272    1.468   .     S
C247   O285    1.300   .     A
C247   O288    1.309   .     A
C248   O287    1.304   .     A
C248   C271    1.459   .     S
C248   O286    1.301   .     A
C249   O289    1.304   .     A
C249   C267    1.471   .     S
C249   O292    1.309   .     A
C250   O291    1.304   .     A
C250   O290    1.302   .     A
C250   C268    1.456   .     S
C251   N293    1.415   .     S
C251   N284    1.382   .     A
C252   N283    1.380   .     A
C252   N299    1.421   .     S
C252   C499    1.437   .     S
C253   N305    1.419   .     S
C253   N284    1.369   .     A
C254   N311    1.426   .     S
C254   N283    1.368   .     A
C254   C497    1.436   .     S
C255   C272    1.407   .     A
C255   N317    1.424   .     S
C255   C421    1.399   1_455 S
C256   C271    1.411   .     A
C256   N320    1.429   .     S
C256   C340    1.392   .     S
C257   N323    1.439   .     S
C257   C271    1.402   .     A
C257   C337    1.399   .     S
C258   C272    1.414   .     A
C258   N326    1.437   .     S
C258   C420    1.392   1_455 S
C259   H275    1.083   .     S
C259   C269    1.398   .     A
C259   C263    1.392   .     A
C260   C264    1.389   .     A
C260   C270    1.399   .     A
C260   H276    1.083   .     S
C261   C265    1.392   .     A
C261   C270    1.401   .     A
C261   H277    1.083   .     S
C262   C266    1.389   .     A
C262   C269    1.398   .     A
C262   H278    1.084   .     S
C263   H279    1.081   .     S
C263   C267    1.405   .     A
C264   H280    1.080   .     S
C264   C268    1.401   .     A
C265   C268    1.401   .     A
C265   H281    1.082   .     S
C266   H282    1.072   .     S
C266   C267    1.401   .     A
C269   C1008   1.459   1_554 S
C270   C1007   1.459   .     S
Cu273  O285    1.971   .     S
Cu273  O291    1.955   .     S
Cu273  O289    1.947   .     S
Cu273  O287    1.986   .     S
Cu273  N283    2.038   .     S
Cu273  Cu274   2.713   .     S
Cu274  O292    1.955   .     S
Cu274  O286    1.971   .     S
Cu274  O290    1.947   .     S
Cu274  N284    2.038   .     S
Cu274  O288    1.986   .     S
N293   C295    1.441   .     S
N293   H294    1.031   .     S
C295   H297    1.106   .     S
C295   H298    1.108   .     S
C295   H296    1.110   .     S
N299   H300    1.025   .     S
N299   C301    1.449   .     S
C301   H302    1.106   .     S
C301   H303    1.108   .     S
C301   H304    1.111   .     S
N305   C307    1.449   .     S
N305   H306    1.027   .     S
C307   H309    1.109   .     S
C307   H310    1.112   .     S
C307   H308    1.110   .     S
N311   C313    1.448   .     S
N311   H312    1.031   .     S
C313   H314    1.107   .     S
C313   H315    1.107   .     S
C313   H316    1.107   .     S
N317   H319    1.046   .     S
N317   H318    1.045   .     S
N320   H322    1.044   .     S
N320   H321    1.046   .     S
N323   H325    1.045   .     S
N323   H324    1.045   .     S
N326   H328    1.044   .     S
N326   H327    1.045   .     S
C329   C354    1.468   .     S
C329   O367    1.300   .     A
C329   O370    1.309   .     A
C330   O369    1.304   .     A
C330   C353    1.459   .     S
C330   O368    1.301   .     A
C331   O371    1.304   .     A
C331   C349    1.471   .     S
C331   O374    1.309   .     A
C332   O373    1.304   .     A
C332   O372    1.302   .     A
C332   C350    1.456   .     S
C333   N375    1.415   .     S
C333   N366    1.382   .     A
C334   N365    1.380   .     A
C334   N381    1.421   .     S
C334   C581    1.437   .     S
C335   N387    1.419   .     S
C335   N366    1.369   .     A
C336   N393    1.426   .     S
C336   N365    1.368   .     A
C336   C579    1.436   .     S
C337   C354    1.407   .     A
C337   N399    1.424   .     S
C338   C353    1.411   .     A
C338   N402    1.429   .     S
C338   C422    1.392   .     S
C339   N405    1.439   .     S
C339   C353    1.402   .     A
C339   C419    1.399   .     S
C340   C354    1.414   .     A
C340   N408    1.437   .     S
C341   H357    1.083   .     S
C341   C351    1.398   .     A
C341   C345    1.392   .     A
C342   C346    1.389   .     A
C342   C352    1.399   .     A
C342   H358    1.083   .     S
C343   C347    1.392   .     A
C343   C352    1.401   .     A
C343   H359    1.083   .     S
C344   C348    1.389   .     A
C344   C351    1.398   .     A
C344   H360    1.084   .     S
C345   H361    1.081   .     S
C345   C349    1.405   .     A
C346   H362    1.080   .     S
C346   C350    1.401   .     A
C347   C350    1.401   .     A
C347   H363    1.082   .     S
C348   H364    1.072   .     S
C348   C349    1.401   .     A
C351   C1090   1.459   1_554 S
C352   C1089   1.459   .     S
Cu355  O367    1.971   .     S
Cu355  O373    1.955   .     S
Cu355  O371    1.947   .     S
Cu355  O369    1.986   .     S
Cu355  N365    2.038   .     S
Cu355  Cu356   2.713   .     S
Cu356  O374    1.955   .     S
Cu356  O368    1.971   .     S
Cu356  O372    1.947   .     S
Cu356  N366    2.038   .     S
Cu356  O370    1.986   .     S
N375   C377    1.441   .     S
N375   H376    1.031   .     S
C377   H379    1.106   .     S
C377   H380    1.108   .     S
C377   H378    1.110   .     S
N381   H382    1.025   .     S
N381   C383    1.449   .     S
C383   H384    1.106   .     S
C383   H385    1.108   .     S
C383   H386    1.111   .     S
N387   C389    1.449   .     S
N387   H388    1.027   .     S
C389   H391    1.109   .     S
C389   H392    1.112   .     S
C389   H390    1.110   .     S
N393   C395    1.448   .     S
N393   H394    1.031   .     S
C395   H396    1.107   .     S
C395   H397    1.107   .     S
C395   H398    1.107   .     S
N399   H401    1.046   .     S
N399   H400    1.045   .     S
N402   H404    1.044   .     S
N402   H403    1.046   .     S
N405   H407    1.045   .     S
N405   H406    1.045   .     S
N408   H410    1.044   .     S
N408   H409    1.045   .     S
C411   C436    1.468   .     S
C411   O449    1.300   .     A
C411   O452    1.309   .     A
C412   O451    1.304   .     A
C412   C435    1.459   .     S
C412   O450    1.301   .     A
C413   O453    1.304   .     A
C413   C431    1.471   .     S
C413   O456    1.309   .     A
C414   O455    1.304   .     A
C414   O454    1.302   .     A
C414   C432    1.456   .     S
C415   N457    1.415   .     S
C415   N448    1.382   .     A
C416   N447    1.380   .     A
C416   N463    1.421   .     S
C416   C663    1.437   .     S
C417   N469    1.419   .     S
C417   N448    1.369   .     A
C418   N475    1.426   .     S
C418   N447    1.368   .     A
C418   C661    1.436   .     S
C419   C436    1.407   .     A
C419   N481    1.424   .     S
C420   C435    1.411   .     A
C420   N484    1.429   .     S
C420   C258    1.392   1_655 S
C421   N487    1.439   .     S
C421   C435    1.402   .     A
C421   C255    1.399   1_655 S
C422   C436    1.414   .     A
C422   N490    1.437   .     S
C423   H439    1.083   .     S
C423   C433    1.398   .     A
C423   C427    1.392   .     A
C424   C428    1.389   .     A
C424   C434    1.399   .     A
C424   H440    1.083   .     S
C425   C429    1.392   .     A
C425   C434    1.401   .     A
C425   H441    1.083   .     S
C426   C430    1.389   .     A
C426   C433    1.398   .     A
C426   H442    1.084   .     S
C427   H443    1.081   .     S
C427   C431    1.405   .     A
C428   H444    1.080   .     S
C428   C432    1.401   .     A
C429   C432    1.401   .     A
C429   H445    1.082   .     S
C430   H446    1.072   .     S
C430   C431    1.401   .     A
C433   C1172   1.459   1_554 S
C434   C1171   1.459   .     S
Cu437  O449    1.971   .     S
Cu437  O455    1.955   .     S
Cu437  O453    1.947   .     S
Cu437  O451    1.986   .     S
Cu437  N447    2.038   .     S
Cu437  Cu438   2.713   .     S
Cu438  O456    1.955   .     S
Cu438  O450    1.971   .     S
Cu438  O454    1.947   .     S
Cu438  N448    2.038   .     S
Cu438  O452    1.986   .     S
N457   C459    1.441   .     S
N457   H458    1.031   .     S
C459   H461    1.106   .     S
C459   H462    1.108   .     S
C459   H460    1.110   .     S
N463   H464    1.025   .     S
N463   C465    1.449   .     S
C465   H466    1.106   .     S
C465   H467    1.108   .     S
C465   H468    1.111   .     S
N469   C471    1.449   .     S
N469   H470    1.027   .     S
C471   H473    1.109   .     S
C471   H474    1.112   .     S
C471   H472    1.110   .     S
N475   C477    1.448   .     S
N475   H476    1.031   .     S
C477   H478    1.107   .     S
C477   H479    1.107   .     S
C477   H480    1.107   .     S
N481   H483    1.046   .     S
N481   H482    1.045   .     S
N484   H486    1.044   .     S
N484   H485    1.046   .     S
N487   H489    1.045   .     S
N487   H488    1.045   .     S
N490   H492    1.044   .     S
N490   H491    1.045   .     S
C493   C518    1.468   .     S
C493   O531    1.300   .     A
C493   O534    1.309   .     A
C494   O533    1.304   .     A
C494   C517    1.459   .     S
C494   O532    1.301   .     A
C495   O535    1.304   .     A
C495   C513    1.471   .     S
C495   O538    1.309   .     A
C496   O537    1.304   .     A
C496   O536    1.302   .     A
C496   C514    1.456   .     S
C497   N539    1.415   .     S
C497   N530    1.382   .     A
C498   N529    1.380   .     A
C498   N545    1.421   .     S
C498   C7      1.437   1_565 S
C499   N551    1.419   .     S
C499   N530    1.369   .     A
C500   N557    1.426   .     S
C500   N529    1.368   .     A
C500   C5      1.436   1_565 S
C501   C518    1.407   .     A
C501   N563    1.424   .     S
C501   C667    1.399   1_455 S
C502   C517    1.411   .     A
C502   N566    1.429   .     S
C502   C586    1.392   .     S
C503   N569    1.439   .     S
C503   C517    1.402   .     A
C503   C583    1.399   .     S
C504   C518    1.414   .     A
C504   N572    1.437   .     S
C504   C666    1.392   1_455 S
C505   H521    1.083   .     S
C505   C515    1.398   .     A
C505   C509    1.392   .     A
C506   C510    1.389   .     A
C506   C516    1.399   .     A
C506   H522    1.083   .     S
C507   C511    1.392   .     A
C507   C516    1.401   .     A
C507   H523    1.083   .     S
C508   C512    1.389   .     A
C508   C515    1.398   .     A
C508   H524    1.084   .     S
C509   H525    1.081   .     S
C509   C513    1.405   .     A
C510   H526    1.080   .     S
C510   C514    1.401   .     A
C511   C514    1.401   .     A
C511   H527    1.082   .     S
C512   H528    1.072   .     S
C512   C513    1.401   .     A
C515   C1254   1.459   1_554 S
C516   C1253   1.459   .     S
Cu519  O531    1.971   .     S
Cu519  O537    1.955   .     S
Cu519  O535    1.947   .     S
Cu519  O533    1.986   .     S
Cu519  N529    2.038   .     S
Cu519  Cu520   2.713   .     S
Cu520  O538    1.955   .     S
Cu520  O532    1.971   .     S
Cu520  O536    1.947   .     S
Cu520  N530    2.038   .     S
Cu520  O534    1.986   .     S
N539   C541    1.441   .     S
N539   H540    1.031   .     S
C541   H543    1.106   .     S
C541   H544    1.108   .     S
C541   H542    1.110   .     S
N545   H546    1.025   .     S
N545   C547    1.449   .     S
C547   H548    1.106   .     S
C547   H549    1.108   .     S
C547   H550    1.111   .     S
N551   C553    1.449   .     S
N551   H552    1.027   .     S
C553   H555    1.109   .     S
C553   H556    1.112   .     S
C553   H554    1.110   .     S
N557   C559    1.448   .     S
N557   H558    1.031   .     S
C559   H560    1.107   .     S
C559   H561    1.107   .     S
C559   H562    1.107   .     S
N563   H565    1.046   .     S
N563   H564    1.045   .     S
N566   H568    1.044   .     S
N566   H567    1.046   .     S
N569   H571    1.045   .     S
N569   H570    1.045   .     S
N572   H574    1.044   .     S
N572   H573    1.045   .     S
C575   C600    1.468   .     S
C575   O613    1.300   .     A
C575   O616    1.309   .     A
C576   O615    1.304   .     A
C576   C599    1.459   .     S
C576   O614    1.301   .     A
C577   O617    1.304   .     A
C577   C595    1.471   .     S
C577   O620    1.309   .     A
C578   O619    1.304   .     A
C578   O618    1.302   .     A
C578   C596    1.456   .     S
C579   N621    1.415   .     S
C579   N612    1.382   .     A
C580   N611    1.380   .     A
C580   N627    1.421   .     S
C580   C89     1.437   1_565 S
C581   N633    1.419   .     S
C581   N612    1.369   .     A
C582   N639    1.426   .     S
C582   N611    1.368   .     A
C582   C87     1.436   1_565 S
C583   C600    1.407   .     A
C583   N645    1.424   .     S
C584   C599    1.411   .     A
C584   N648    1.429   .     S
C584   C668    1.392   .     S
C585   N651    1.439   .     S
C585   C599    1.402   .     A
C585   C665    1.399   .     S
C586   C600    1.414   .     A
C586   N654    1.437   .     S
C587   H603    1.083   .     S
C587   C597    1.398   .     A
C587   C591    1.392   .     A
C588   C592    1.389   .     A
C588   C598    1.399   .     A
C588   H604    1.083   .     S
C589   C593    1.392   .     A
C589   C598    1.401   .     A
C589   H605    1.083   .     S
C590   C594    1.389   .     A
C590   C597    1.398   .     A
C590   H606    1.084   .     S
C591   H607    1.081   .     S
C591   C595    1.405   .     A
C592   H608    1.080   .     S
C592   C596    1.401   .     A
C593   C596    1.401   .     A
C593   H609    1.082   .     S
C594   H610    1.072   .     S
C594   C595    1.401   .     A
C597   C1336   1.459   1_554 S
C598   C1335   1.459   .     S
Cu601  O613    1.971   .     S
Cu601  O619    1.955   .     S
Cu601  O617    1.947   .     S
Cu601  O615    1.986   .     S
Cu601  N611    2.038   .     S
Cu601  Cu602   2.713   .     S
Cu602  O620    1.955   .     S
Cu602  O614    1.971   .     S
Cu602  O618    1.947   .     S
Cu602  N612    2.038   .     S
Cu602  O616    1.986   .     S
N621   C623    1.441   .     S
N621   H622    1.031   .     S
C623   H625    1.106   .     S
C623   H626    1.108   .     S
C623   H624    1.110   .     S
N627   H628    1.025   .     S
N627   C629    1.449   .     S
C629   H630    1.106   .     S
C629   H631    1.108   .     S
C629   H632    1.111   .     S
N633   C635    1.449   .     S
N633   H634    1.027   .     S
C635   H637    1.109   .     S
C635   H638    1.112   .     S
C635   H636    1.110   .     S
N639   C641    1.448   .     S
N639   H640    1.031   .     S
C641   H642    1.107   .     S
C641   H643    1.107   .     S
C641   H644    1.107   .     S
N645   H647    1.046   .     S
N645   H646    1.045   .     S
N648   H650    1.044   .     S
N648   H649    1.046   .     S
N651   H653    1.045   .     S
N651   H652    1.045   .     S
N654   H656    1.044   .     S
N654   H655    1.045   .     S
C657   C682    1.468   .     S
C657   O695    1.300   .     A
C657   O698    1.309   .     A
C658   O697    1.304   .     A
C658   C681    1.459   .     S
C658   O696    1.301   .     A
C659   O699    1.304   .     A
C659   C677    1.471   .     S
C659   O702    1.309   .     A
C660   O701    1.304   .     A
C660   O700    1.302   .     A
C660   C678    1.456   .     S
C661   N703    1.415   .     S
C661   N694    1.382   .     A
C662   N693    1.380   .     A
C662   N709    1.421   .     S
C662   C171    1.437   1_565 S
C663   N715    1.419   .     S
C663   N694    1.369   .     A
C664   N721    1.426   .     S
C664   N693    1.368   .     A
C664   C169    1.436   1_565 S
C665   C682    1.407   .     A
C665   N727    1.424   .     S
C666   C681    1.411   .     A
C666   N730    1.429   .     S
C666   C504    1.392   1_655 S
C667   N733    1.439   .     S
C667   C681    1.402   .     A
C667   C501    1.399   1_655 S
C668   C682    1.414   .     A
C668   N736    1.437   .     S
C669   H685    1.083   .     S
C669   C679    1.398   .     A
C669   C673    1.392   .     A
C670   C674    1.389   .     A
C670   C680    1.399   .     A
C670   H686    1.083   .     S
C671   C675    1.392   .     A
C671   C680    1.401   .     A
C671   H687    1.083   .     S
C672   C676    1.389   .     A
C672   C679    1.398   .     A
C672   H688    1.084   .     S
C673   H689    1.081   .     S
C673   C677    1.405   .     A
C674   H690    1.080   .     S
C674   C678    1.401   .     A
C675   C678    1.401   .     A
C675   H691    1.082   .     S
C676   H692    1.072   .     S
C676   C677    1.401   .     A
C679   C1418   1.459   1_554 S
C680   C1417   1.459   .     S
Cu683  O695    1.971   .     S
Cu683  O701    1.955   .     S
Cu683  O699    1.947   .     S
Cu683  O697    1.986   .     S
Cu683  N693    2.038   .     S
Cu683  Cu684   2.713   .     S
Cu684  O702    1.955   .     S
Cu684  O696    1.971   .     S
Cu684  O700    1.947   .     S
Cu684  N694    2.038   .     S
Cu684  O698    1.986   .     S
N703   C705    1.441   .     S
N703   H704    1.031   .     S
C705   H707    1.106   .     S
C705   H708    1.108   .     S
C705   H706    1.110   .     S
N709   H710    1.025   .     S
N709   C711    1.449   .     S
C711   H712    1.106   .     S
C711   H713    1.108   .     S
C711   H714    1.111   .     S
N715   C717    1.449   .     S
N715   H716    1.027   .     S
C717   H719    1.109   .     S
C717   H720    1.112   .     S
C717   H718    1.110   .     S
N721   C723    1.448   .     S
N721   H722    1.031   .     S
C723   H724    1.107   .     S
C723   H725    1.107   .     S
C723   H726    1.107   .     S
N727   H729    1.046   .     S
N727   H728    1.045   .     S
N730   H732    1.044   .     S
N730   H731    1.046   .     S
N733   H735    1.045   .     S
N733   H734    1.045   .     S
N736   H738    1.044   .     S
N736   H737    1.045   .     S
C739   C764    1.468   .     S
C739   O777    1.300   .     A
C739   O780    1.309   .     A
C740   O779    1.304   .     A
C740   C763    1.459   .     S
C740   O778    1.301   .     A
C741   O781    1.304   .     A
C741   C759    1.471   .     S
C741   O784    1.309   .     A
C742   O783    1.304   .     A
C742   O782    1.302   .     A
C742   C760    1.456   .     S
C743   N785    1.415   .     S
C743   N776    1.382   .     A
C743   C1238   1.436   1_545 S
C744   N775    1.380   .     A
C744   N791    1.421   .     S
C744   C991    1.437   .     S
C745   N797    1.419   .     S
C745   N776    1.369   .     A
C745   C1236   1.437   1_545 S
C746   N803    1.426   .     S
C746   N775    1.368   .     A
C746   C989    1.436   .     S
C747   C764    1.407   .     A
C747   N809    1.424   .     S
C747   C913    1.399   1_455 S
C748   C763    1.411   .     A
C748   N812    1.429   .     S
C748   C832    1.392   .     S
C749   N815    1.439   .     S
C749   C763    1.402   .     A
C749   C829    1.399   .     S
C750   C764    1.414   .     A
C750   N818    1.437   .     S
C750   C912    1.392   1_455 S
C751   H767    1.083   .     S
C751   C761    1.398   .     A
C751   C755    1.392   .     A
C752   C756    1.389   .     A
C752   C762    1.399   .     A
C752   H768    1.083   .     S
C753   C757    1.392   .     A
C753   C762    1.401   .     A
C753   H769    1.083   .     S
C754   C758    1.389   .     A
C754   C761    1.398   .     A
C754   H770    1.084   .     S
C755   H771    1.081   .     S
C755   C759    1.405   .     A
C756   H772    1.080   .     S
C756   C760    1.401   .     A
C757   C760    1.401   .     A
C757   H773    1.082   .     S
C758   H774    1.072   .     S
C758   C759    1.401   .     A
C762   C23     1.459   1_556 S
Cu765  O777    1.971   .     S
Cu765  O783    1.955   .     S
Cu765  O781    1.947   .     S
Cu765  O779    1.986   .     S
Cu765  N775    2.038   .     S
Cu765  Cu766   2.713   .     S
Cu766  O784    1.955   .     S
Cu766  O778    1.971   .     S
Cu766  O782    1.947   .     S
Cu766  N776    2.038   .     S
Cu766  O780    1.986   .     S
N785   C787    1.441   .     S
N785   H786    1.031   .     S
C787   H789    1.106   .     S
C787   H790    1.108   .     S
C787   H788    1.110   .     S
N791   H792    1.025   .     S
N791   C793    1.449   .     S
C793   H794    1.106   .     S
C793   H795    1.108   .     S
C793   H796    1.111   .     S
N797   C799    1.449   .     S
N797   H798    1.027   .     S
C799   H801    1.109   .     S
C799   H802    1.112   .     S
C799   H800    1.110   .     S
N803   C805    1.448   .     S
N803   H804    1.031   .     S
C805   H806    1.107   .     S
C805   H807    1.107   .     S
C805   H808    1.107   .     S
N809   H811    1.046   .     S
N809   H810    1.045   .     S
N812   H814    1.044   .     S
N812   H813    1.046   .     S
N815   H817    1.045   .     S
N815   H816    1.045   .     S
N818   H820    1.044   .     S
N818   H819    1.045   .     S
C821   C846    1.468   .     S
C821   O859    1.300   .     A
C821   O862    1.309   .     A
C822   O861    1.304   .     A
C822   C845    1.459   .     S
C822   O860    1.301   .     A
C823   O863    1.304   .     A
C823   C841    1.471   .     S
C823   O866    1.309   .     A
C824   O865    1.304   .     A
C824   O864    1.302   .     A
C824   C842    1.456   .     S
C825   N867    1.415   .     S
C825   N858    1.382   .     A
C825   C1320   1.436   1_545 S
C826   N857    1.380   .     A
C826   N873    1.421   .     S
C826   C1073   1.437   .     S
C827   N879    1.419   .     S
C827   N858    1.369   .     A
C827   C1318   1.437   1_545 S
C828   N885    1.426   .     S
C828   N857    1.368   .     A
C828   C1071   1.436   .     S
C829   C846    1.407   .     A
C829   N891    1.424   .     S
C830   C845    1.411   .     A
C830   N894    1.429   .     S
C830   C914    1.392   .     S
C831   N897    1.439   .     S
C831   C845    1.402   .     A
C831   C911    1.399   .     S
C832   C846    1.414   .     A
C832   N900    1.437   .     S
C833   H849    1.083   .     S
C833   C843    1.398   .     A
C833   C837    1.392   .     A
C834   C838    1.389   .     A
C834   C844    1.399   .     A
C834   H850    1.083   .     S
C835   C839    1.392   .     A
C835   C844    1.401   .     A
C835   H851    1.083   .     S
C836   C840    1.389   .     A
C836   C843    1.398   .     A
C836   H852    1.084   .     S
C837   H853    1.081   .     S
C837   C841    1.405   .     A
C838   H854    1.080   .     S
C838   C842    1.401   .     A
C839   C842    1.401   .     A
C839   H855    1.082   .     S
C840   H856    1.072   .     S
C840   C841    1.401   .     A
C844   C105    1.459   1_556 S
Cu847  O859    1.971   .     S
Cu847  O865    1.955   .     S
Cu847  O863    1.947   .     S
Cu847  O861    1.986   .     S
Cu847  N857    2.038   .     S
Cu847  Cu848   2.713   .     S
Cu848  O866    1.955   .     S
Cu848  O860    1.971   .     S
Cu848  O864    1.947   .     S
Cu848  N858    2.038   .     S
Cu848  O862    1.986   .     S
N867   C869    1.441   .     S
N867   H868    1.031   .     S
C869   H871    1.106   .     S
C869   H872    1.108   .     S
C869   H870    1.110   .     S
N873   H874    1.025   .     S
N873   C875    1.449   .     S
C875   H876    1.106   .     S
C875   H877    1.108   .     S
C875   H878    1.111   .     S
N879   C881    1.449   .     S
N879   H880    1.027   .     S
C881   H883    1.109   .     S
C881   H884    1.112   .     S
C881   H882    1.110   .     S
N885   C887    1.448   .     S
N885   H886    1.031   .     S
C887   H888    1.107   .     S
C887   H889    1.107   .     S
C887   H890    1.107   .     S
N891   H893    1.046   .     S
N891   H892    1.045   .     S
N894   H896    1.044   .     S
N894   H895    1.046   .     S
N897   H899    1.045   .     S
N897   H898    1.045   .     S
N900   H902    1.044   .     S
N900   H901    1.045   .     S
C903   C928    1.468   .     S
C903   O941    1.300   .     A
C903   O944    1.309   .     A
C904   O943    1.304   .     A
C904   C927    1.459   .     S
C904   O942    1.301   .     A
C905   O945    1.304   .     A
C905   C923    1.471   .     S
C905   O948    1.309   .     A
C906   O947    1.304   .     A
C906   O946    1.302   .     A
C906   C924    1.456   .     S
C907   N949    1.415   .     S
C907   N940    1.382   .     A
C907   C1402   1.436   1_545 S
C908   N939    1.380   .     A
C908   N955    1.421   .     S
C908   C1155   1.437   .     S
C909   N961    1.419   .     S
C909   N940    1.369   .     A
C909   C1400   1.437   1_545 S
C910   N967    1.426   .     S
C910   N939    1.368   .     A
C910   C1153   1.436   .     S
C911   C928    1.407   .     A
C911   N973    1.424   .     S
C912   C927    1.411   .     A
C912   N976    1.429   .     S
C912   C750    1.392   1_655 S
C913   N979    1.439   .     S
C913   C927    1.402   .     A
C913   C747    1.399   1_655 S
C914   C928    1.414   .     A
C914   N982    1.437   .     S
C915   H931    1.083   .     S
C915   C925    1.398   .     A
C915   C919    1.392   .     A
C916   C920    1.389   .     A
C916   C926    1.399   .     A
C916   H932    1.083   .     S
C917   C921    1.392   .     A
C917   C926    1.401   .     A
C917   H933    1.083   .     S
C918   C922    1.389   .     A
C918   C925    1.398   .     A
C918   H934    1.084   .     S
C919   H935    1.081   .     S
C919   C923    1.405   .     A
C920   H936    1.080   .     S
C920   C924    1.401   .     A
C921   C924    1.401   .     A
C921   H937    1.082   .     S
C922   H938    1.072   .     S
C922   C923    1.401   .     A
C926   C187    1.459   1_556 S
Cu929  O941    1.971   .     S
Cu929  O947    1.955   .     S
Cu929  O945    1.947   .     S
Cu929  O943    1.986   .     S
Cu929  N939    2.038   .     S
Cu929  Cu930   2.713   .     S
Cu930  O948    1.955   .     S
Cu930  O942    1.971   .     S
Cu930  O946    1.947   .     S
Cu930  N940    2.038   .     S
Cu930  O944    1.986   .     S
N949   C951    1.441   .     S
N949   H950    1.031   .     S
C951   H953    1.106   .     S
C951   H954    1.108   .     S
C951   H952    1.110   .     S
N955   H956    1.025   .     S
N955   C957    1.449   .     S
C957   H958    1.106   .     S
C957   H959    1.108   .     S
C957   H960    1.111   .     S
N961   C963    1.449   .     S
N961   H962    1.027   .     S
C963   H965    1.109   .     S
C963   H966    1.112   .     S
C963   H964    1.110   .     S
N967   C969    1.448   .     S
N967   H968    1.031   .     S
C969   H970    1.107   .     S
C969   H971    1.107   .     S
C969   H972    1.107   .     S
N973   H975    1.046   .     S
N973   H974    1.045   .     S
N976   H978    1.044   .     S
N976   H977    1.046   .     S
N979   H981    1.045   .     S
N979   H980    1.045   .     S
N982   H984    1.044   .     S
N982   H983    1.045   .     S
C985   C1010   1.468   .     S
C985   O1023   1.300   .     A
C985   O1026   1.309   .     A
C986   O1025   1.304   .     A
C986   C1009   1.459   .     S
C986   O1024   1.301   .     A
C987   O1027   1.304   .     A
C987   C1005   1.471   .     S
C987   O1030   1.309   .     A
C988   O1029   1.304   .     A
C988   O1028   1.302   .     A
C988   C1006   1.456   .     S
C989   N1031   1.415   .     S
C989   N1022   1.382   .     A
C990   N1021   1.380   .     A
C990   N1037   1.421   .     S
C990   C1237   1.437   .     S
C991   N1043   1.419   .     S
C991   N1022   1.369   .     A
C992   N1049   1.426   .     S
C992   N1021   1.368   .     A
C992   C1235   1.436   .     S
C993   C1010   1.407   .     A
C993   N1055   1.424   .     S
C993   C1159   1.399   1_455 S
C994   C1009   1.411   .     A
C994   N1058   1.429   .     S
C994   C1078   1.392   .     S
C995   N1061   1.439   .     S
C995   C1009   1.402   .     A
C995   C1075   1.399   .     S
C996   C1010   1.414   .     A
C996   N1064   1.437   .     S
C996   C1158   1.392   1_455 S
C997   H1013   1.083   .     S
C997   C1007   1.398   .     A
C997   C1001   1.392   .     A
C998   C1002   1.389   .     A
C998   C1008   1.399   .     A
C998   H1014   1.083   .     S
C999   C1003   1.392   .     A
C999   C1008   1.401   .     A
C999   H1015   1.083   .     S
C1000  C1004   1.389   .     A
C1000  C1007   1.398   .     A
C1000  H1016   1.084   .     S
C1001  H1017   1.081   .     S
C1001  C1005   1.405   .     A
C1002  H1018   1.080   .     S
C1002  C1006   1.401   .     A
C1003  C1006   1.401   .     A
C1003  H1019   1.082   .     S
C1004  H1020   1.072   .     S
C1004  C1005   1.401   .     A
C1008  C269    1.459   1_556 S
Cu1011 O1023   1.971   .     S
Cu1011 O1029   1.955   .     S
Cu1011 O1027   1.947   .     S
Cu1011 O1025   1.986   .     S
Cu1011 N1021   2.038   .     S
Cu1011 Cu1012  2.713   .     S
Cu1012 O1030   1.955   .     S
Cu1012 O1024   1.971   .     S
Cu1012 O1028   1.947   .     S
Cu1012 N1022   2.038   .     S
Cu1012 O1026   1.986   .     S
N1031  C1033   1.441   .     S
N1031  H1032   1.031   .     S
C1033  H1035   1.106   .     S
C1033  H1036   1.108   .     S
C1033  H1034   1.110   .     S
N1037  H1038   1.025   .     S
N1037  C1039   1.449   .     S
C1039  H1040   1.106   .     S
C1039  H1041   1.108   .     S
C1039  H1042   1.111   .     S
N1043  C1045   1.449   .     S
N1043  H1044   1.027   .     S
C1045  H1047   1.109   .     S
C1045  H1048   1.112   .     S
C1045  H1046   1.110   .     S
N1049  C1051   1.448   .     S
N1049  H1050   1.031   .     S
C1051  H1052   1.107   .     S
C1051  H1053   1.107   .     S
C1051  H1054   1.107   .     S
N1055  H1057   1.046   .     S
N1055  H1056   1.045   .     S
N1058  H1060   1.044   .     S
N1058  H1059   1.046   .     S
N1061  H1063   1.045   .     S
N1061  H1062   1.045   .     S
N1064  H1066   1.044   .     S
N1064  H1065   1.045   .     S
C1067  C1092   1.468   .     S
C1067  O1105   1.300   .     A
C1067  O1108   1.309   .     A
C1068  O1107   1.304   .     A
C1068  C1091   1.459   .     S
C1068  O1106   1.301   .     A
C1069  O1109   1.304   .     A
C1069  C1087   1.471   .     S
C1069  O1112   1.309   .     A
C1070  O1111   1.304   .     A
C1070  O1110   1.302   .     A
C1070  C1088   1.456   .     S
C1071  N1113   1.415   .     S
C1071  N1104   1.382   .     A
C1072  N1103   1.380   .     A
C1072  N1119   1.421   .     S
C1072  C1319   1.437   .     S
C1073  N1125   1.419   .     S
C1073  N1104   1.369   .     A
C1074  N1131   1.426   .     S
C1074  N1103   1.368   .     A
C1074  C1317   1.436   .     S
C1075  C1092   1.407   .     A
C1075  N1137   1.424   .     S
C1076  C1091   1.411   .     A
C1076  N1140   1.429   .     S
C1076  C1160   1.392   .     S
C1077  N1143   1.439   .     S
C1077  C1091   1.402   .     A
C1077  C1157   1.399   .     S
C1078  C1092   1.414   .     A
C1078  N1146   1.437   .     S
C1079  H1095   1.083   .     S
C1079  C1089   1.398   .     A
C1079  C1083   1.392   .     A
C1080  C1084   1.389   .     A
C1080  C1090   1.399   .     A
C1080  H1096   1.083   .     S
C1081  C1085   1.392   .     A
C1081  C1090   1.401   .     A
C1081  H1097   1.083   .     S
C1082  C1086   1.389   .     A
C1082  C1089   1.398   .     A
C1082  H1098   1.084   .     S
C1083  H1099   1.081   .     S
C1083  C1087   1.405   .     A
C1084  H1100   1.080   .     S
C1084  C1088   1.401   .     A
C1085  C1088   1.401   .     A
C1085  H1101   1.082   .     S
C1086  H1102   1.072   .     S
C1086  C1087   1.401   .     A
C1090  C351    1.459   1_556 S
Cu1093 O1105   1.971   .     S
Cu1093 O1111   1.955   .     S
Cu1093 O1109   1.947   .     S
Cu1093 O1107   1.986   .     S
Cu1093 N1103   2.038   .     S
Cu1093 Cu1094  2.713   .     S
Cu1094 O1112   1.955   .     S
Cu1094 O1106   1.971   .     S
Cu1094 O1110   1.947   .     S
Cu1094 N1104   2.038   .     S
Cu1094 O1108   1.986   .     S
N1113  C1115   1.441   .     S
N1113  H1114   1.031   .     S
C1115  H1117   1.106   .     S
C1115  H1118   1.108   .     S
C1115  H1116   1.110   .     S
N1119  H1120   1.025   .     S
N1119  C1121   1.449   .     S
C1121  H1122   1.106   .     S
C1121  H1123   1.108   .     S
C1121  H1124   1.111   .     S
N1125  C1127   1.449   .     S
N1125  H1126   1.027   .     S
C1127  H1129   1.109   .     S
C1127  H1130   1.112   .     S
C1127  H1128   1.110   .     S
N1131  C1133   1.448   .     S
N1131  H1132   1.031   .     S
C1133  H1134   1.107   .     S
C1133  H1135   1.107   .     S
C1133  H1136   1.107   .     S
N1137  H1139   1.046   .     S
N1137  H1138   1.045   .     S
N1140  H1142   1.044   .     S
N1140  H1141   1.046   .     S
N1143  H1145   1.045   .     S
N1143  H1144   1.045   .     S
N1146  H1148   1.044   .     S
N1146  H1147   1.045   .     S
C1149  C1174   1.468   .     S
C1149  O1187   1.300   .     A
C1149  O1190   1.309   .     A
C1150  O1189   1.304   .     A
C1150  C1173   1.459   .     S
C1150  O1188   1.301   .     A
C1151  O1191   1.304   .     A
C1151  C1169   1.471   .     S
C1151  O1194   1.309   .     A
C1152  O1193   1.304   .     A
C1152  O1192   1.302   .     A
C1152  C1170   1.456   .     S
C1153  N1195   1.415   .     S
C1153  N1186   1.382   .     A
C1154  N1185   1.380   .     A
C1154  N1201   1.421   .     S
C1154  C1401   1.437   .     S
C1155  N1207   1.419   .     S
C1155  N1186   1.369   .     A
C1156  N1213   1.426   .     S
C1156  N1185   1.368   .     A
C1156  C1399   1.436   .     S
C1157  C1174   1.407   .     A
C1157  N1219   1.424   .     S
C1158  C1173   1.411   .     A
C1158  N1222   1.429   .     S
C1158  C996    1.392   1_655 S
C1159  N1225   1.439   .     S
C1159  C1173   1.402   .     A
C1159  C993    1.399   1_655 S
C1160  C1174   1.414   .     A
C1160  N1228   1.437   .     S
C1161  H1177   1.083   .     S
C1161  C1171   1.398   .     A
C1161  C1165   1.392   .     A
C1162  C1166   1.389   .     A
C1162  C1172   1.399   .     A
C1162  H1178   1.083   .     S
C1163  C1167   1.392   .     A
C1163  C1172   1.401   .     A
C1163  H1179   1.083   .     S
C1164  C1168   1.389   .     A
C1164  C1171   1.398   .     A
C1164  H1180   1.084   .     S
C1165  H1181   1.081   .     S
C1165  C1169   1.405   .     A
C1166  H1182   1.080   .     S
C1166  C1170   1.401   .     A
C1167  C1170   1.401   .     A
C1167  H1183   1.082   .     S
C1168  H1184   1.072   .     S
C1168  C1169   1.401   .     A
C1172  C433    1.459   1_556 S
Cu1175 O1187   1.971   .     S
Cu1175 O1193   1.955   .     S
Cu1175 O1191   1.947   .     S
Cu1175 O1189   1.986   .     S
Cu1175 N1185   2.038   .     S
Cu1175 Cu1176  2.713   .     S
Cu1176 O1194   1.955   .     S
Cu1176 O1188   1.971   .     S
Cu1176 O1192   1.947   .     S
Cu1176 N1186   2.038   .     S
Cu1176 O1190   1.986   .     S
N1195  C1197   1.441   .     S
N1195  H1196   1.031   .     S
C1197  H1199   1.106   .     S
C1197  H1200   1.108   .     S
C1197  H1198   1.110   .     S
N1201  H1202   1.025   .     S
N1201  C1203   1.449   .     S
C1203  H1204   1.106   .     S
C1203  H1205   1.108   .     S
C1203  H1206   1.111   .     S
N1207  C1209   1.449   .     S
N1207  H1208   1.027   .     S
C1209  H1211   1.109   .     S
C1209  H1212   1.112   .     S
C1209  H1210   1.110   .     S
N1213  C1215   1.448   .     S
N1213  H1214   1.031   .     S
C1215  H1216   1.107   .     S
C1215  H1217   1.107   .     S
C1215  H1218   1.107   .     S
N1219  H1221   1.046   .     S
N1219  H1220   1.045   .     S
N1222  H1224   1.044   .     S
N1222  H1223   1.046   .     S
N1225  H1227   1.045   .     S
N1225  H1226   1.045   .     S
N1228  H1230   1.044   .     S
N1228  H1229   1.045   .     S
C1231  C1256   1.468   .     S
C1231  O1269   1.300   .     A
C1231  O1272   1.309   .     A
C1232  O1271   1.304   .     A
C1232  C1255   1.459   .     S
C1232  O1270   1.301   .     A
C1233  O1273   1.304   .     A
C1233  C1251   1.471   .     S
C1233  O1276   1.309   .     A
C1234  O1275   1.304   .     A
C1234  O1274   1.302   .     A
C1234  C1252   1.456   .     S
C1235  N1277   1.415   .     S
C1235  N1268   1.382   .     A
C1236  N1267   1.380   .     A
C1236  N1283   1.421   .     S
C1236  C745    1.437   1_565 S
C1237  N1289   1.419   .     S
C1237  N1268   1.369   .     A
C1238  N1295   1.426   .     S
C1238  N1267   1.368   .     A
C1238  C743    1.436   1_565 S
C1239  C1256   1.407   .     A
C1239  N1301   1.424   .     S
C1239  C1405   1.399   1_455 S
C1240  C1255   1.411   .     A
C1240  N1304   1.429   .     S
C1240  C1324   1.392   .     S
C1241  N1307   1.439   .     S
C1241  C1255   1.402   .     A
C1241  C1321   1.399   .     S
C1242  C1256   1.414   .     A
C1242  N1310   1.437   .     S
C1242  C1404   1.392   1_455 S
C1243  H1259   1.083   .     S
C1243  C1253   1.398   .     A
C1243  C1247   1.392   .     A
C1244  C1248   1.389   .     A
C1244  C1254   1.399   .     A
C1244  H1260   1.083   .     S
C1245  C1249   1.392   .     A
C1245  C1254   1.401   .     A
C1245  H1261   1.083   .     S
C1246  C1250   1.389   .     A
C1246  C1253   1.398   .     A
C1246  H1262   1.084   .     S
C1247  H1263   1.081   .     S
C1247  C1251   1.405   .     A
C1248  H1264   1.080   .     S
C1248  C1252   1.401   .     A
C1249  C1252   1.401   .     A
C1249  H1265   1.082   .     S
C1250  H1266   1.072   .     S
C1250  C1251   1.401   .     A
C1254  C515    1.459   1_556 S
Cu1257 O1269   1.971   .     S
Cu1257 O1275   1.955   .     S
Cu1257 O1273   1.947   .     S
Cu1257 O1271   1.986   .     S
Cu1257 N1267   2.038   .     S
Cu1257 Cu1258  2.713   .     S
Cu1258 O1276   1.955   .     S
Cu1258 O1270   1.971   .     S
Cu1258 O1274   1.947   .     S
Cu1258 N1268   2.038   .     S
Cu1258 O1272   1.986   .     S
N1277  C1279   1.441   .     S
N1277  H1278   1.031   .     S
C1279  H1281   1.106   .     S
C1279  H1282   1.108   .     S
C1279  H1280   1.110   .     S
N1283  H1284   1.025   .     S
N1283  C1285   1.449   .     S
C1285  H1286   1.106   .     S
C1285  H1287   1.108   .     S
C1285  H1288   1.111   .     S
N1289  C1291   1.449   .     S
N1289  H1290   1.027   .     S
C1291  H1293   1.109   .     S
C1291  H1294   1.112   .     S
C1291  H1292   1.110   .     S
N1295  C1297   1.448   .     S
N1295  H1296   1.031   .     S
C1297  H1298   1.107   .     S
C1297  H1299   1.107   .     S
C1297  H1300   1.107   .     S
N1301  H1303   1.046   .     S
N1301  H1302   1.045   .     S
N1304  H1306   1.044   .     S
N1304  H1305   1.046   .     S
N1307  H1309   1.045   .     S
N1307  H1308   1.045   .     S
N1310  H1312   1.044   .     S
N1310  H1311   1.045   .     S
C1313  C1338   1.468   .     S
C1313  O1351   1.300   .     A
C1313  O1354   1.309   .     A
C1314  O1353   1.304   .     A
C1314  C1337   1.459   .     S
C1314  O1352   1.301   .     A
C1315  O1355   1.304   .     A
C1315  C1333   1.471   .     S
C1315  O1358   1.309   .     A
C1316  O1357   1.304   .     A
C1316  O1356   1.302   .     A
C1316  C1334   1.456   .     S
C1317  N1359   1.415   .     S
C1317  N1350   1.382   .     A
C1318  N1349   1.380   .     A
C1318  N1365   1.421   .     S
C1318  C827    1.437   1_565 S
C1319  N1371   1.419   .     S
C1319  N1350   1.369   .     A
C1320  N1377   1.426   .     S
C1320  N1349   1.368   .     A
C1320  C825    1.436   1_565 S
C1321  C1338   1.407   .     A
C1321  N1383   1.424   .     S
C1322  C1337   1.411   .     A
C1322  N1386   1.429   .     S
C1322  C1406   1.392   .     S
C1323  N1389   1.439   .     S
C1323  C1337   1.402   .     A
C1323  C1403   1.399   .     S
C1324  C1338   1.414   .     A
C1324  N1392   1.437   .     S
C1325  H1341   1.083   .     S
C1325  C1335   1.398   .     A
C1325  C1329   1.392   .     A
C1326  C1330   1.389   .     A
C1326  C1336   1.399   .     A
C1326  H1342   1.083   .     S
C1327  C1331   1.392   .     A
C1327  C1336   1.401   .     A
C1327  H1343   1.083   .     S
C1328  C1332   1.389   .     A
C1328  C1335   1.398   .     A
C1328  H1344   1.084   .     S
C1329  H1345   1.081   .     S
C1329  C1333   1.405   .     A
C1330  H1346   1.080   .     S
C1330  C1334   1.401   .     A
C1331  C1334   1.401   .     A
C1331  H1347   1.082   .     S
C1332  H1348   1.072   .     S
C1332  C1333   1.401   .     A
C1336  C597    1.459   1_556 S
Cu1339 O1351   1.971   .     S
Cu1339 O1357   1.955   .     S
Cu1339 O1355   1.947   .     S
Cu1339 O1353   1.986   .     S
Cu1339 N1349   2.038   .     S
Cu1339 Cu1340  2.713   .     S
Cu1340 O1358   1.955   .     S
Cu1340 O1352   1.971   .     S
Cu1340 O1356   1.947   .     S
Cu1340 N1350   2.038   .     S
Cu1340 O1354   1.986   .     S
N1359  C1361   1.441   .     S
N1359  H1360   1.031   .     S
C1361  H1363   1.106   .     S
C1361  H1364   1.108   .     S
C1361  H1362   1.110   .     S
N1365  H1366   1.025   .     S
N1365  C1367   1.449   .     S
C1367  H1368   1.106   .     S
C1367  H1369   1.108   .     S
C1367  H1370   1.111   .     S
N1371  C1373   1.449   .     S
N1371  H1372   1.027   .     S
C1373  H1375   1.109   .     S
C1373  H1376   1.112   .     S
C1373  H1374   1.110   .     S
N1377  C1379   1.448   .     S
N1377  H1378   1.031   .     S
C1379  H1380   1.107   .     S
C1379  H1381   1.107   .     S
C1379  H1382   1.107   .     S
N1383  H1385   1.046   .     S
N1383  H1384   1.045   .     S
N1386  H1388   1.044   .     S
N1386  H1387   1.046   .     S
N1389  H1391   1.045   .     S
N1389  H1390   1.045   .     S
N1392  H1394   1.044   .     S
N1392  H1393   1.045   .     S
C1395  C1420   1.468   .     S
C1395  O1433   1.300   .     A
C1395  O1436   1.309   .     A
C1396  O1435   1.304   .     A
C1396  C1419   1.459   .     S
C1396  O1434   1.301   .     A
C1397  O1437   1.304   .     A
C1397  C1415   1.471   .     S
C1397  O1440   1.309   .     A
C1398  O1439   1.304   .     A
C1398  O1438   1.302   .     A
C1398  C1416   1.456   .     S
C1399  N1441   1.415   .     S
C1399  N1432   1.382   .     A
C1400  N1431   1.380   .     A
C1400  N1447   1.421   .     S
C1400  C909    1.437   1_565 S
C1401  N1453   1.419   .     S
C1401  N1432   1.369   .     A
C1402  N1459   1.426   .     S
C1402  N1431   1.368   .     A
C1402  C907    1.436   1_565 S
C1403  C1420   1.407   .     A
C1403  N1465   1.424   .     S
C1404  C1419   1.411   .     A
C1404  N1468   1.429   .     S
C1404  C1242   1.392   1_655 S
C1405  N1471   1.439   .     S
C1405  C1419   1.402   .     A
C1405  C1239   1.399   1_655 S
C1406  C1420   1.414   .     A
C1406  N1474   1.437   .     S
C1407  H1423   1.083   .     S
C1407  C1417   1.398   .     A
C1407  C1411   1.392   .     A
C1408  C1412   1.389   .     A
C1408  C1418   1.399   .     A
C1408  H1424   1.083   .     S
C1409  C1413   1.392   .     A
C1409  C1418   1.401   .     A
C1409  H1425   1.083   .     S
C1410  C1414   1.389   .     A
C1410  C1417   1.398   .     A
C1410  H1426   1.084   .     S
C1411  H1427   1.081   .     S
C1411  C1415   1.405   .     A
C1412  H1428   1.080   .     S
C1412  C1416   1.401   .     A
C1413  C1416   1.401   .     A
C1413  H1429   1.082   .     S
C1414  H1430   1.072   .     S
C1414  C1415   1.401   .     A
C1418  C679    1.459   1_556 S
Cu1421 O1433   1.971   .     S
Cu1421 O1439   1.955   .     S
Cu1421 O1437   1.947   .     S
Cu1421 O1435   1.986   .     S
Cu1421 N1431   2.038   .     S
Cu1421 Cu1422  2.713   .     S
Cu1422 O1440   1.955   .     S
Cu1422 O1434   1.971   .     S
Cu1422 O1438   1.947   .     S
Cu1422 N1432   2.038   .     S
Cu1422 O1436   1.986   .     S
N1441  C1443   1.441   .     S
N1441  H1442   1.031   .     S
C1443  H1445   1.106   .     S
C1443  H1446   1.108   .     S
C1443  H1444   1.110   .     S
N1447  H1448   1.025   .     S
N1447  C1449   1.449   .     S
C1449  H1450   1.106   .     S
C1449  H1451   1.108   .     S
C1449  H1452   1.111   .     S
N1453  C1455   1.449   .     S
N1453  H1454   1.027   .     S
C1455  H1457   1.109   .     S
C1455  H1458   1.112   .     S
C1455  H1456   1.110   .     S
N1459  C1461   1.448   .     S
N1459  H1460   1.031   .     S
C1461  H1462   1.107   .     S
C1461  H1463   1.107   .     S
C1461  H1464   1.107   .     S
N1465  H1467   1.046   .     S
N1465  H1466   1.045   .     S
N1468  H1470   1.044   .     S
N1468  H1469   1.046   .     S
N1471  H1473   1.045   .     S
N1471  H1472   1.045   .     S
N1474  H1476   1.044   .     S
N1474  H1475   1.045   .     S
