data_str_m3_o10_o18_pcu_sym.97
_audit_creation_date              2020-01-03
_audit_creation_method            'Materials Studio'
_symmetry_space_group_name_H-M    'P1'
_symmetry_Int_Tables_number       1
_symmetry_cell_setting            triclinic
loop_
_symmetry_equiv_pos_as_xyz
  x,y,z
_cell_length_a                    23.4610
_cell_length_b                    25.8550
_cell_length_c                    27.3780
_cell_angle_alpha                 93.2262
_cell_angle_beta                  94.0200
_cell_angle_gamma                 93.7763
loop_
_atom_site_label
_atom_site_type_symbol
_atom_site_fract_x
_atom_site_fract_y
_atom_site_fract_z
_atom_site_U_iso_or_equiv
_atom_site_adp_type
_atom_site_occupancy
C1     C     0.01492   0.26480   0.24954   0.00000  Uiso   1.00
C2     C     0.31188   0.16354   0.15858   0.00000  Uiso   1.00
C3     C     0.03563   0.18733   0.39251   0.00000  Uiso   1.00
C4     C     0.30221   0.16360   0.10517   0.00000  Uiso   1.00
C5     C     0.04222   0.25927   0.45342   0.00000  Uiso   1.00
C6     C     0.32797   0.13438   0.02455   0.00000  Uiso   1.00
C7     C     0.01370   0.23238   0.41239   0.00000  Uiso   1.00
C8     C     0.00731   0.14049   0.07502   0.00000  Uiso   1.00
C9     C     0.08368   0.16735   0.41568   0.00000  Uiso   1.00
C10    C     0.25334   0.18489   0.08421   0.00000  Uiso   1.00
C11    C     0.11881   0.19994   0.44960   0.00000  Uiso   1.00
C12    C     0.31842   0.06854   0.25056   0.00000  Uiso   1.00
C13    C     0.24484   0.18508   0.03269   0.00000  Uiso   1.00
C14    C     0.09558   0.24410   0.47149   0.00000  Uiso   1.00
C15    C     0.27863   0.15428   0.00352   0.00000  Uiso   1.00
C16    C     0.17534   0.18862   0.46403   0.00000  Uiso   1.00
C17    C     0.19955   0.21017   0.00972   0.00000  Uiso   1.00
C18    C     0.17838   0.25615   0.03020   0.00000  Uiso   1.00
C19    C     0.20955   0.15873   0.43395   0.00000  Uiso   1.00
C20    C     0.12657   0.27302   0.01025   0.00000  Uiso   1.00
C21    C     0.26170   0.14272   0.45408   0.00000  Uiso   1.00
C22    C     0.02272   0.31950   0.25622   0.00000  Uiso   1.00
C23    C     0.31060   0.01384   0.24398   0.00000  Uiso   1.00
C24    C     0.02170   0.17161   0.34116   0.00000  Uiso   1.00
H25    H     0.10993   0.30802   0.02566   0.00000  Uiso   1.00
H26    H     0.06292   0.09692   0.38766   0.00000  Uiso   1.00
H27    H     0.19012   0.31643   0.07679   0.00000  Uiso   1.00
H28    H     0.22150   0.12708   0.36948   0.00000  Uiso   1.00
H29    H     0.09902   0.31542   0.28953   0.00000  Uiso   1.00
H30    H     0.23422   0.01790   0.21076   0.00000  Uiso   1.00
H31    H     0.28795   0.11967   0.43158   0.00000  Uiso   1.00
H32    H     0.04522   0.12405   0.09072   0.00000  Uiso   1.00
H33    H     0.30967   0.24806   0.39482   0.00000  Uiso   1.00
H34    H     0.02455   0.29368   0.46894   0.00000  Uiso   1.00
H35    H     0.02249   0.11290   0.00221   0.00000  Uiso   1.00
H36    H     0.16238   0.12488   0.21384   0.00000  Uiso   1.00
H37    H     0.17096   0.20843   0.28618   0.00000  Uiso   1.00
H38    H     0.17389   0.19022   0.09790   0.00000  Uiso   1.00
N39    N     0.14695   0.15216   0.23740   0.00000  Uiso   1.00
N40    N     0.18638   0.18117   0.26261   0.00000  Uiso   1.00
O41    O     0.29719   0.24631   0.25310   0.00000  Uiso   1.00
O42    O     0.09611   0.11627   0.40640   0.00000  Uiso   1.00
O43    O     0.21078   0.28564   0.06715   0.00000  Uiso   1.00
O44    O     0.19446   0.15019   0.38430   0.00000  Uiso   1.00
O45    O     0.07313   0.00921   0.28004   0.00000  Uiso   1.00
O46    O     0.26015   0.32413   0.22021   0.00000  Uiso   1.00
O47    O     0.03614   0.08702   0.24691   0.00000  Uiso   1.00
O48    O     0.05822   0.23702   0.24502   0.00000  Uiso   1.00
O49    O     0.27512   0.09632   0.25499   0.00000  Uiso   1.00
O50    O     0.30328   0.17397   0.32247   0.00000  Uiso   1.00
O51    O     0.03005   0.15937   0.17753   0.00000  Uiso   1.00
O52    O     0.06431   0.16467   0.31439   0.00000  Uiso   1.00
O53    O     0.26902   0.16866   0.18561   0.00000  Uiso   1.00
O54    O     0.21218   0.20067   0.11448   0.00000  Uiso   1.00
Zn55   Zn    0.27033   0.17287   0.25540   0.00000  Uiso   1.00
Zn56   Zn    0.06300   0.16046   0.24461   0.00000  Uiso   1.00
C57    C     0.34825   0.26480   0.24954   0.00000  Uiso   1.00
C58    C     0.64522   0.16354   0.15858   0.00000  Uiso   1.00
C59    C     0.36896   0.18733   0.39251   0.00000  Uiso   1.00
C60    C     0.63554   0.16360   0.10517   0.00000  Uiso   1.00
C61    C     0.37555   0.25927   0.45342   0.00000  Uiso   1.00
C62    C     0.66131   0.13438   0.02455   0.00000  Uiso   1.00
C63    C     0.34703   0.23238   0.41239   0.00000  Uiso   1.00
C64    C     0.34064   0.14049   0.07502   0.00000  Uiso   1.00
C65    C     0.41702   0.16735   0.41568   0.00000  Uiso   1.00
C66    C     0.58668   0.18489   0.08421   0.00000  Uiso   1.00
C67    C     0.45214   0.19994   0.44960   0.00000  Uiso   1.00
C68    C     0.65176   0.06854   0.25056   0.00000  Uiso   1.00
C69    C     0.57817   0.18508   0.03269   0.00000  Uiso   1.00
C70    C     0.42891   0.24410   0.47149   0.00000  Uiso   1.00
C71    C     0.61196   0.15428   0.00352   0.00000  Uiso   1.00
C72    C     0.50867   0.18862   0.46403   0.00000  Uiso   1.00
C73    C     0.53288   0.21017   0.00972   0.00000  Uiso   1.00
C74    C     0.51172   0.25615   0.03020   0.00000  Uiso   1.00
C75    C     0.54288   0.15873   0.43395   0.00000  Uiso   1.00
C76    C     0.45991   0.27302   0.01025   0.00000  Uiso   1.00
C77    C     0.59503   0.14272   0.45408   0.00000  Uiso   1.00
C78    C     0.35605   0.31950   0.25622   0.00000  Uiso   1.00
C79    C     0.64393   0.01384   0.24398   0.00000  Uiso   1.00
C80    C     0.35503   0.17161   0.34116   0.00000  Uiso   1.00
H81    H     0.44327   0.30802   0.02566   0.00000  Uiso   1.00
H82    H     0.39626   0.09692   0.38766   0.00000  Uiso   1.00
H83    H     0.52345   0.31643   0.07679   0.00000  Uiso   1.00
H84    H     0.55483   0.12708   0.36948   0.00000  Uiso   1.00
H85    H     0.43236   0.31542   0.28953   0.00000  Uiso   1.00
H86    H     0.56755   0.01790   0.21076   0.00000  Uiso   1.00
H87    H     0.62129   0.11967   0.43158   0.00000  Uiso   1.00
H88    H     0.37855   0.12405   0.09072   0.00000  Uiso   1.00
H89    H     0.64300   0.24806   0.39482   0.00000  Uiso   1.00
H90    H     0.35789   0.29368   0.46894   0.00000  Uiso   1.00
H91    H     0.35582   0.11290   0.00221   0.00000  Uiso   1.00
H92    H     0.49572   0.12488   0.21384   0.00000  Uiso   1.00
H93    H     0.50429   0.20843   0.28618   0.00000  Uiso   1.00
H94    H     0.50722   0.19022   0.09790   0.00000  Uiso   1.00
N95    N     0.48029   0.15216   0.23740   0.00000  Uiso   1.00
N96    N     0.51971   0.18117   0.26261   0.00000  Uiso   1.00
O97    O     0.63052   0.24631   0.25310   0.00000  Uiso   1.00
O98    O     0.42945   0.11627   0.40640   0.00000  Uiso   1.00
O99    O     0.54412   0.28564   0.06715   0.00000  Uiso   1.00
O100   O     0.52780   0.15019   0.38430   0.00000  Uiso   1.00
O101   O     0.40646   0.00921   0.28004   0.00000  Uiso   1.00
O102   O     0.59349   0.32413   0.22021   0.00000  Uiso   1.00
O103   O     0.36948   0.08702   0.24691   0.00000  Uiso   1.00
O104   O     0.39155   0.23702   0.24502   0.00000  Uiso   1.00
O105   O     0.60845   0.09632   0.25499   0.00000  Uiso   1.00
O106   O     0.63662   0.17397   0.32247   0.00000  Uiso   1.00
O107   O     0.36338   0.15937   0.17753   0.00000  Uiso   1.00
O108   O     0.39764   0.16467   0.31439   0.00000  Uiso   1.00
O109   O     0.60236   0.16866   0.18561   0.00000  Uiso   1.00
O110   O     0.54551   0.20067   0.11448   0.00000  Uiso   1.00
Zn111  Zn    0.60366   0.17287   0.25540   0.00000  Uiso   1.00
Zn112  Zn    0.39634   0.16046   0.24461   0.00000  Uiso   1.00
C113   C     0.68159   0.26480   0.24954   0.00000  Uiso   1.00
C114   C     0.97855   0.16354   0.15858   0.00000  Uiso   1.00
C115   C     0.70230   0.18733   0.39251   0.00000  Uiso   1.00
C116   C     0.96887   0.16360   0.10517   0.00000  Uiso   1.00
C117   C     0.70889   0.25927   0.45342   0.00000  Uiso   1.00
C118   C     0.99464   0.13438   0.02455   0.00000  Uiso   1.00
C119   C     0.68036   0.23238   0.41239   0.00000  Uiso   1.00
C120   C     0.67398   0.14049   0.07502   0.00000  Uiso   1.00
C121   C     0.75035   0.16735   0.41568   0.00000  Uiso   1.00
C122   C     0.92001   0.18489   0.08421   0.00000  Uiso   1.00
C123   C     0.78547   0.19994   0.44960   0.00000  Uiso   1.00
C124   C     0.98509   0.06854   0.25056   0.00000  Uiso   1.00
C125   C     0.91150   0.18508   0.03269   0.00000  Uiso   1.00
C126   C     0.76224   0.24410   0.47149   0.00000  Uiso   1.00
C127   C     0.94529   0.15428   0.00352   0.00000  Uiso   1.00
C128   C     0.84201   0.18862   0.46403   0.00000  Uiso   1.00
C129   C     0.86621   0.21017   0.00972   0.00000  Uiso   1.00
C130   C     0.84505   0.25615   0.03020   0.00000  Uiso   1.00
C131   C     0.87621   0.15873   0.43395   0.00000  Uiso   1.00
C132   C     0.79324   0.27302   0.01025   0.00000  Uiso   1.00
C133   C     0.92836   0.14272   0.45408   0.00000  Uiso   1.00
C134   C     0.68938   0.31950   0.25622   0.00000  Uiso   1.00
C135   C     0.97726   0.01384   0.24398   0.00000  Uiso   1.00
C136   C     0.68836   0.17161   0.34116   0.00000  Uiso   1.00
H137   H     0.77660   0.30802   0.02566   0.00000  Uiso   1.00
H138   H     0.72959   0.09692   0.38766   0.00000  Uiso   1.00
H139   H     0.85678   0.31643   0.07679   0.00000  Uiso   1.00
H140   H     0.88816   0.12708   0.36948   0.00000  Uiso   1.00
H141   H     0.76569   0.31542   0.28953   0.00000  Uiso   1.00
H142   H     0.90089   0.01790   0.21076   0.00000  Uiso   1.00
H143   H     0.95462   0.11967   0.43158   0.00000  Uiso   1.00
H144   H     0.71189   0.12405   0.09072   0.00000  Uiso   1.00
H145   H     0.97633   0.24806   0.39482   0.00000  Uiso   1.00
H146   H     0.69122   0.29368   0.46894   0.00000  Uiso   1.00
H147   H     0.68915   0.11290   0.00221   0.00000  Uiso   1.00
H148   H     0.82905   0.12488   0.21384   0.00000  Uiso   1.00
H149   H     0.83762   0.20843   0.28618   0.00000  Uiso   1.00
H150   H     0.84056   0.19022   0.09790   0.00000  Uiso   1.00
N151   N     0.81362   0.15216   0.23740   0.00000  Uiso   1.00
N152   N     0.85305   0.18117   0.26261   0.00000  Uiso   1.00
O153   O     0.96386   0.24631   0.25310   0.00000  Uiso   1.00
O154   O     0.76278   0.11627   0.40640   0.00000  Uiso   1.00
O155   O     0.87745   0.28564   0.06715   0.00000  Uiso   1.00
O156   O     0.86113   0.15019   0.38430   0.00000  Uiso   1.00
O157   O     0.73979   0.00921   0.28004   0.00000  Uiso   1.00
O158   O     0.92682   0.32413   0.22021   0.00000  Uiso   1.00
O159   O     0.70281   0.08702   0.24691   0.00000  Uiso   1.00
O160   O     0.72488   0.23702   0.24502   0.00000  Uiso   1.00
O161   O     0.94178   0.09632   0.25499   0.00000  Uiso   1.00
O162   O     0.96995   0.17397   0.32247   0.00000  Uiso   1.00
O163   O     0.69672   0.15937   0.17753   0.00000  Uiso   1.00
O164   O     0.73098   0.16467   0.31439   0.00000  Uiso   1.00
O165   O     0.93569   0.16866   0.18561   0.00000  Uiso   1.00
O166   O     0.87885   0.20067   0.11448   0.00000  Uiso   1.00
Zn167  Zn    0.93700   0.17287   0.25540   0.00000  Uiso   1.00
Zn168  Zn    0.72967   0.16046   0.24461   0.00000  Uiso   1.00
C169   C     0.01492   0.59813   0.24954   0.00000  Uiso   1.00
C170   C     0.31188   0.49687   0.15858   0.00000  Uiso   1.00
C171   C     0.03563   0.52067   0.39251   0.00000  Uiso   1.00
C172   C     0.30221   0.49694   0.10517   0.00000  Uiso   1.00
C173   C     0.04222   0.59260   0.45342   0.00000  Uiso   1.00
C174   C     0.32797   0.46771   0.02455   0.00000  Uiso   1.00
C175   C     0.01370   0.56571   0.41239   0.00000  Uiso   1.00
C176   C     0.00731   0.47383   0.07502   0.00000  Uiso   1.00
C177   C     0.08368   0.50069   0.41568   0.00000  Uiso   1.00
C178   C     0.25334   0.51822   0.08421   0.00000  Uiso   1.00
C179   C     0.11881   0.53327   0.44960   0.00000  Uiso   1.00
C180   C     0.31842   0.40187   0.25056   0.00000  Uiso   1.00
C181   C     0.24484   0.51841   0.03269   0.00000  Uiso   1.00
C182   C     0.09558   0.57743   0.47149   0.00000  Uiso   1.00
C183   C     0.27863   0.48762   0.00352   0.00000  Uiso   1.00
C184   C     0.17534   0.52195   0.46403   0.00000  Uiso   1.00
C185   C     0.19955   0.54350   0.00972   0.00000  Uiso   1.00
C186   C     0.17838   0.58948   0.03020   0.00000  Uiso   1.00
C187   C     0.20955   0.49206   0.43395   0.00000  Uiso   1.00
C188   C     0.12657   0.60636   0.01025   0.00000  Uiso   1.00
C189   C     0.26170   0.47605   0.45408   0.00000  Uiso   1.00
C190   C     0.02272   0.65283   0.25622   0.00000  Uiso   1.00
C191   C     0.31060   0.34717   0.24398   0.00000  Uiso   1.00
C192   C     0.02170   0.50494   0.34116   0.00000  Uiso   1.00
H193   H     0.10993   0.64135   0.02566   0.00000  Uiso   1.00
H194   H     0.06292   0.43026   0.38766   0.00000  Uiso   1.00
H195   H     0.19012   0.64977   0.07679   0.00000  Uiso   1.00
H196   H     0.22150   0.46041   0.36948   0.00000  Uiso   1.00
H197   H     0.09902   0.64875   0.28953   0.00000  Uiso   1.00
H198   H     0.23422   0.35123   0.21076   0.00000  Uiso   1.00
H199   H     0.28795   0.45300   0.43158   0.00000  Uiso   1.00
H200   H     0.04522   0.45738   0.09072   0.00000  Uiso   1.00
H201   H     0.30967   0.58139   0.39482   0.00000  Uiso   1.00
H202   H     0.02455   0.62701   0.46894   0.00000  Uiso   1.00
H203   H     0.02249   0.44623   0.00221   0.00000  Uiso   1.00
H204   H     0.16238   0.45821   0.21384   0.00000  Uiso   1.00
H205   H     0.17096   0.54176   0.28618   0.00000  Uiso   1.00
H206   H     0.17389   0.52355   0.09790   0.00000  Uiso   1.00
N207   N     0.14695   0.48550   0.23740   0.00000  Uiso   1.00
N208   N     0.18638   0.51450   0.26261   0.00000  Uiso   1.00
O209   O     0.29719   0.57964   0.25310   0.00000  Uiso   1.00
O210   O     0.09611   0.44960   0.40640   0.00000  Uiso   1.00
O211   O     0.21078   0.61898   0.06715   0.00000  Uiso   1.00
O212   O     0.19446   0.48353   0.38430   0.00000  Uiso   1.00
O213   O     0.07313   0.34254   0.28004   0.00000  Uiso   1.00
O214   O     0.26015   0.65746   0.22021   0.00000  Uiso   1.00
O215   O     0.03614   0.42036   0.24691   0.00000  Uiso   1.00
O216   O     0.05822   0.57035   0.24502   0.00000  Uiso   1.00
O217   O     0.27512   0.42965   0.25499   0.00000  Uiso   1.00
O218   O     0.30328   0.50730   0.32247   0.00000  Uiso   1.00
O219   O     0.03005   0.49270   0.17753   0.00000  Uiso   1.00
O220   O     0.06431   0.49801   0.31439   0.00000  Uiso   1.00
O221   O     0.26902   0.50199   0.18561   0.00000  Uiso   1.00
O222   O     0.21218   0.53400   0.11448   0.00000  Uiso   1.00
Zn223  Zn    0.27033   0.50621   0.25540   0.00000  Uiso   1.00
Zn224  Zn    0.06300   0.49379   0.24461   0.00000  Uiso   1.00
C225   C     0.34825   0.59813   0.24954   0.00000  Uiso   1.00
C226   C     0.64522   0.49687   0.15858   0.00000  Uiso   1.00
C227   C     0.36896   0.52067   0.39251   0.00000  Uiso   1.00
C228   C     0.63554   0.49694   0.10517   0.00000  Uiso   1.00
C229   C     0.37555   0.59260   0.45342   0.00000  Uiso   1.00
C230   C     0.66131   0.46771   0.02455   0.00000  Uiso   1.00
C231   C     0.34703   0.56571   0.41239   0.00000  Uiso   1.00
C232   C     0.34064   0.47383   0.07502   0.00000  Uiso   1.00
C233   C     0.41702   0.50069   0.41568   0.00000  Uiso   1.00
C234   C     0.58668   0.51822   0.08421   0.00000  Uiso   1.00
C235   C     0.45214   0.53327   0.44960   0.00000  Uiso   1.00
C236   C     0.65176   0.40187   0.25056   0.00000  Uiso   1.00
C237   C     0.57817   0.51841   0.03269   0.00000  Uiso   1.00
C238   C     0.42891   0.57743   0.47149   0.00000  Uiso   1.00
C239   C     0.61196   0.48762   0.00352   0.00000  Uiso   1.00
C240   C     0.50867   0.52195   0.46403   0.00000  Uiso   1.00
C241   C     0.53288   0.54350   0.00972   0.00000  Uiso   1.00
C242   C     0.51172   0.58948   0.03020   0.00000  Uiso   1.00
C243   C     0.54288   0.49206   0.43395   0.00000  Uiso   1.00
C244   C     0.45991   0.60636   0.01025   0.00000  Uiso   1.00
C245   C     0.59503   0.47605   0.45408   0.00000  Uiso   1.00
C246   C     0.35605   0.65283   0.25622   0.00000  Uiso   1.00
C247   C     0.64393   0.34717   0.24398   0.00000  Uiso   1.00
C248   C     0.35503   0.50494   0.34116   0.00000  Uiso   1.00
H249   H     0.44327   0.64135   0.02566   0.00000  Uiso   1.00
H250   H     0.39626   0.43026   0.38766   0.00000  Uiso   1.00
H251   H     0.52345   0.64977   0.07679   0.00000  Uiso   1.00
H252   H     0.55483   0.46041   0.36948   0.00000  Uiso   1.00
H253   H     0.43236   0.64875   0.28953   0.00000  Uiso   1.00
H254   H     0.56755   0.35123   0.21076   0.00000  Uiso   1.00
H255   H     0.62129   0.45300   0.43158   0.00000  Uiso   1.00
H256   H     0.37855   0.45738   0.09072   0.00000  Uiso   1.00
H257   H     0.64300   0.58139   0.39482   0.00000  Uiso   1.00
H258   H     0.35789   0.62701   0.46894   0.00000  Uiso   1.00
H259   H     0.35582   0.44623   0.00221   0.00000  Uiso   1.00
H260   H     0.49572   0.45821   0.21384   0.00000  Uiso   1.00
H261   H     0.50429   0.54176   0.28618   0.00000  Uiso   1.00
H262   H     0.50722   0.52355   0.09790   0.00000  Uiso   1.00
N263   N     0.48029   0.48550   0.23740   0.00000  Uiso   1.00
N264   N     0.51971   0.51450   0.26261   0.00000  Uiso   1.00
O265   O     0.63052   0.57964   0.25310   0.00000  Uiso   1.00
O266   O     0.42945   0.44960   0.40640   0.00000  Uiso   1.00
O267   O     0.54412   0.61898   0.06715   0.00000  Uiso   1.00
O268   O     0.52780   0.48353   0.38430   0.00000  Uiso   1.00
O269   O     0.40646   0.34254   0.28004   0.00000  Uiso   1.00
O270   O     0.59349   0.65746   0.22021   0.00000  Uiso   1.00
O271   O     0.36948   0.42036   0.24691   0.00000  Uiso   1.00
O272   O     0.39155   0.57035   0.24502   0.00000  Uiso   1.00
O273   O     0.60845   0.42965   0.25499   0.00000  Uiso   1.00
O274   O     0.63662   0.50730   0.32247   0.00000  Uiso   1.00
O275   O     0.36338   0.49270   0.17753   0.00000  Uiso   1.00
O276   O     0.39764   0.49801   0.31439   0.00000  Uiso   1.00
O277   O     0.60236   0.50199   0.18561   0.00000  Uiso   1.00
O278   O     0.54551   0.53400   0.11448   0.00000  Uiso   1.00
Zn279  Zn    0.60366   0.50621   0.25540   0.00000  Uiso   1.00
Zn280  Zn    0.39634   0.49379   0.24461   0.00000  Uiso   1.00
C281   C     0.68159   0.59813   0.24954   0.00000  Uiso   1.00
C282   C     0.97855   0.49687   0.15858   0.00000  Uiso   1.00
C283   C     0.70230   0.52067   0.39251   0.00000  Uiso   1.00
C284   C     0.96887   0.49694   0.10517   0.00000  Uiso   1.00
C285   C     0.70889   0.59260   0.45342   0.00000  Uiso   1.00
C286   C     0.99464   0.46771   0.02455   0.00000  Uiso   1.00
C287   C     0.68036   0.56571   0.41239   0.00000  Uiso   1.00
C288   C     0.67398   0.47383   0.07502   0.00000  Uiso   1.00
C289   C     0.75035   0.50069   0.41568   0.00000  Uiso   1.00
C290   C     0.92001   0.51822   0.08421   0.00000  Uiso   1.00
C291   C     0.78547   0.53327   0.44960   0.00000  Uiso   1.00
C292   C     0.98509   0.40187   0.25056   0.00000  Uiso   1.00
C293   C     0.91150   0.51841   0.03269   0.00000  Uiso   1.00
C294   C     0.76224   0.57743   0.47149   0.00000  Uiso   1.00
C295   C     0.94529   0.48762   0.00352   0.00000  Uiso   1.00
C296   C     0.84201   0.52195   0.46403   0.00000  Uiso   1.00
C297   C     0.86621   0.54350   0.00972   0.00000  Uiso   1.00
C298   C     0.84505   0.58948   0.03020   0.00000  Uiso   1.00
C299   C     0.87621   0.49206   0.43395   0.00000  Uiso   1.00
C300   C     0.79324   0.60636   0.01025   0.00000  Uiso   1.00
C301   C     0.92836   0.47605   0.45408   0.00000  Uiso   1.00
C302   C     0.68938   0.65283   0.25622   0.00000  Uiso   1.00
C303   C     0.97726   0.34717   0.24398   0.00000  Uiso   1.00
C304   C     0.68836   0.50494   0.34116   0.00000  Uiso   1.00
H305   H     0.77660   0.64135   0.02566   0.00000  Uiso   1.00
H306   H     0.72959   0.43026   0.38766   0.00000  Uiso   1.00
H307   H     0.85678   0.64977   0.07679   0.00000  Uiso   1.00
H308   H     0.88816   0.46041   0.36948   0.00000  Uiso   1.00
H309   H     0.76569   0.64875   0.28953   0.00000  Uiso   1.00
H310   H     0.90089   0.35123   0.21076   0.00000  Uiso   1.00
H311   H     0.95462   0.45300   0.43158   0.00000  Uiso   1.00
H312   H     0.71189   0.45738   0.09072   0.00000  Uiso   1.00
H313   H     0.97633   0.58139   0.39482   0.00000  Uiso   1.00
H314   H     0.69122   0.62701   0.46894   0.00000  Uiso   1.00
H315   H     0.68915   0.44623   0.00221   0.00000  Uiso   1.00
H316   H     0.82905   0.45821   0.21384   0.00000  Uiso   1.00
H317   H     0.83762   0.54176   0.28618   0.00000  Uiso   1.00
H318   H     0.84056   0.52355   0.09790   0.00000  Uiso   1.00
N319   N     0.81362   0.48550   0.23740   0.00000  Uiso   1.00
N320   N     0.85305   0.51450   0.26261   0.00000  Uiso   1.00
O321   O     0.96386   0.57964   0.25310   0.00000  Uiso   1.00
O322   O     0.76278   0.44960   0.40640   0.00000  Uiso   1.00
O323   O     0.87745   0.61898   0.06715   0.00000  Uiso   1.00
O324   O     0.86113   0.48353   0.38430   0.00000  Uiso   1.00
O325   O     0.73979   0.34254   0.28004   0.00000  Uiso   1.00
O326   O     0.92682   0.65746   0.22021   0.00000  Uiso   1.00
O327   O     0.70281   0.42036   0.24691   0.00000  Uiso   1.00
O328   O     0.72488   0.57035   0.24502   0.00000  Uiso   1.00
O329   O     0.94178   0.42965   0.25499   0.00000  Uiso   1.00
O330   O     0.96995   0.50730   0.32247   0.00000  Uiso   1.00
O331   O     0.69672   0.49270   0.17753   0.00000  Uiso   1.00
O332   O     0.73098   0.49801   0.31439   0.00000  Uiso   1.00
O333   O     0.93569   0.50199   0.18561   0.00000  Uiso   1.00
O334   O     0.87885   0.53400   0.11448   0.00000  Uiso   1.00
Zn335  Zn    0.93700   0.50621   0.25540   0.00000  Uiso   1.00
Zn336  Zn    0.72967   0.49379   0.24461   0.00000  Uiso   1.00
C337   C     0.01492   0.93147   0.24954   0.00000  Uiso   1.00
C338   C     0.31188   0.83020   0.15858   0.00000  Uiso   1.00
C339   C     0.03563   0.85400   0.39251   0.00000  Uiso   1.00
C340   C     0.30221   0.83027   0.10517   0.00000  Uiso   1.00
C341   C     0.04222   0.92593   0.45342   0.00000  Uiso   1.00
C342   C     0.32797   0.80105   0.02455   0.00000  Uiso   1.00
C343   C     0.01370   0.89904   0.41239   0.00000  Uiso   1.00
C344   C     0.00731   0.80716   0.07502   0.00000  Uiso   1.00
C345   C     0.08368   0.83402   0.41568   0.00000  Uiso   1.00
C346   C     0.25334   0.85156   0.08421   0.00000  Uiso   1.00
C347   C     0.11881   0.86660   0.44960   0.00000  Uiso   1.00
C348   C     0.31842   0.73520   0.25056   0.00000  Uiso   1.00
C349   C     0.24484   0.85174   0.03269   0.00000  Uiso   1.00
C350   C     0.09558   0.91076   0.47149   0.00000  Uiso   1.00
C351   C     0.27863   0.82095   0.00352   0.00000  Uiso   1.00
C352   C     0.17534   0.85529   0.46403   0.00000  Uiso   1.00
C353   C     0.19955   0.87684   0.00972   0.00000  Uiso   1.00
C354   C     0.17838   0.92281   0.03020   0.00000  Uiso   1.00
C355   C     0.20955   0.82540   0.43395   0.00000  Uiso   1.00
C356   C     0.12657   0.93969   0.01025   0.00000  Uiso   1.00
C357   C     0.26170   0.80938   0.45408   0.00000  Uiso   1.00
C358   C     0.02272   0.98616   0.25622   0.00000  Uiso   1.00
C359   C     0.31060   0.68051   0.24398   0.00000  Uiso   1.00
C360   C     0.02170   0.83828   0.34116   0.00000  Uiso   1.00
H361   H     0.10993   0.97469   0.02566   0.00000  Uiso   1.00
H362   H     0.06292   0.76359   0.38766   0.00000  Uiso   1.00
H363   H     0.19012   0.98310   0.07679   0.00000  Uiso   1.00
H364   H     0.22150   0.79374   0.36948   0.00000  Uiso   1.00
H365   H     0.09902   0.98208   0.28953   0.00000  Uiso   1.00
H366   H     0.23422   0.68457   0.21076   0.00000  Uiso   1.00
H367   H     0.28795   0.78633   0.43158   0.00000  Uiso   1.00
H368   H     0.04522   0.79071   0.09072   0.00000  Uiso   1.00
H369   H     0.30967   0.91473   0.39482   0.00000  Uiso   1.00
H370   H     0.02455   0.96034   0.46894   0.00000  Uiso   1.00
H371   H     0.02249   0.77957   0.00221   0.00000  Uiso   1.00
H372   H     0.16238   0.79155   0.21384   0.00000  Uiso   1.00
H373   H     0.17096   0.87510   0.28618   0.00000  Uiso   1.00
H374   H     0.17389   0.85689   0.09790   0.00000  Uiso   1.00
N375   N     0.14695   0.81883   0.23740   0.00000  Uiso   1.00
N376   N     0.18638   0.84784   0.26261   0.00000  Uiso   1.00
O377   O     0.29719   0.91298   0.25310   0.00000  Uiso   1.00
O378   O     0.09611   0.78293   0.40640   0.00000  Uiso   1.00
O379   O     0.21078   0.95231   0.06715   0.00000  Uiso   1.00
O380   O     0.19446   0.81686   0.38430   0.00000  Uiso   1.00
O381   O     0.07313   0.67587   0.28004   0.00000  Uiso   1.00
O382   O     0.26015   0.99080   0.22021   0.00000  Uiso   1.00
O383   O     0.03614   0.75369   0.24691   0.00000  Uiso   1.00
O384   O     0.05822   0.90368   0.24502   0.00000  Uiso   1.00
O385   O     0.27512   0.76298   0.25499   0.00000  Uiso   1.00
O386   O     0.30328   0.84063   0.32247   0.00000  Uiso   1.00
O387   O     0.03005   0.82603   0.17753   0.00000  Uiso   1.00
O388   O     0.06431   0.83134   0.31439   0.00000  Uiso   1.00
O389   O     0.26902   0.83533   0.18561   0.00000  Uiso   1.00
O390   O     0.21218   0.86733   0.11448   0.00000  Uiso   1.00
Zn391  Zn    0.27033   0.83954   0.25540   0.00000  Uiso   1.00
Zn392  Zn    0.06300   0.82713   0.24461   0.00000  Uiso   1.00
C393   C     0.34825   0.93147   0.24954   0.00000  Uiso   1.00
C394   C     0.64522   0.83020   0.15858   0.00000  Uiso   1.00
C395   C     0.36896   0.85400   0.39251   0.00000  Uiso   1.00
C396   C     0.63554   0.83027   0.10517   0.00000  Uiso   1.00
C397   C     0.37555   0.92593   0.45342   0.00000  Uiso   1.00
C398   C     0.66131   0.80105   0.02455   0.00000  Uiso   1.00
C399   C     0.34703   0.89904   0.41239   0.00000  Uiso   1.00
C400   C     0.34064   0.80716   0.07502   0.00000  Uiso   1.00
C401   C     0.41702   0.83402   0.41568   0.00000  Uiso   1.00
C402   C     0.58668   0.85156   0.08421   0.00000  Uiso   1.00
C403   C     0.45214   0.86660   0.44960   0.00000  Uiso   1.00
C404   C     0.65176   0.73520   0.25056   0.00000  Uiso   1.00
C405   C     0.57817   0.85174   0.03269   0.00000  Uiso   1.00
C406   C     0.42891   0.91076   0.47149   0.00000  Uiso   1.00
C407   C     0.61196   0.82095   0.00352   0.00000  Uiso   1.00
C408   C     0.50867   0.85529   0.46403   0.00000  Uiso   1.00
C409   C     0.53288   0.87684   0.00972   0.00000  Uiso   1.00
C410   C     0.51172   0.92281   0.03020   0.00000  Uiso   1.00
C411   C     0.54288   0.82540   0.43395   0.00000  Uiso   1.00
C412   C     0.45991   0.93969   0.01025   0.00000  Uiso   1.00
C413   C     0.59503   0.80938   0.45408   0.00000  Uiso   1.00
C414   C     0.35605   0.98616   0.25622   0.00000  Uiso   1.00
C415   C     0.64393   0.68051   0.24398   0.00000  Uiso   1.00
C416   C     0.35503   0.83828   0.34116   0.00000  Uiso   1.00
H417   H     0.44327   0.97469   0.02566   0.00000  Uiso   1.00
H418   H     0.39626   0.76359   0.38766   0.00000  Uiso   1.00
H419   H     0.52345   0.98310   0.07679   0.00000  Uiso   1.00
H420   H     0.55483   0.79374   0.36948   0.00000  Uiso   1.00
H421   H     0.43236   0.98208   0.28953   0.00000  Uiso   1.00
H422   H     0.56755   0.68457   0.21076   0.00000  Uiso   1.00
H423   H     0.62129   0.78633   0.43158   0.00000  Uiso   1.00
H424   H     0.37855   0.79071   0.09072   0.00000  Uiso   1.00
H425   H     0.64300   0.91473   0.39482   0.00000  Uiso   1.00
H426   H     0.35789   0.96034   0.46894   0.00000  Uiso   1.00
H427   H     0.35582   0.77957   0.00221   0.00000  Uiso   1.00
H428   H     0.49572   0.79155   0.21384   0.00000  Uiso   1.00
H429   H     0.50429   0.87510   0.28618   0.00000  Uiso   1.00
H430   H     0.50722   0.85689   0.09790   0.00000  Uiso   1.00
N431   N     0.48029   0.81883   0.23740   0.00000  Uiso   1.00
N432   N     0.51971   0.84784   0.26261   0.00000  Uiso   1.00
O433   O     0.63052   0.91298   0.25310   0.00000  Uiso   1.00
O434   O     0.42945   0.78293   0.40640   0.00000  Uiso   1.00
O435   O     0.54412   0.95231   0.06715   0.00000  Uiso   1.00
O436   O     0.52780   0.81686   0.38430   0.00000  Uiso   1.00
O437   O     0.40646   0.67587   0.28004   0.00000  Uiso   1.00
O438   O     0.59349   0.99080   0.22021   0.00000  Uiso   1.00
O439   O     0.36948   0.75369   0.24691   0.00000  Uiso   1.00
O440   O     0.39155   0.90368   0.24502   0.00000  Uiso   1.00
O441   O     0.60845   0.76298   0.25499   0.00000  Uiso   1.00
O442   O     0.63662   0.84063   0.32247   0.00000  Uiso   1.00
O443   O     0.36338   0.82603   0.17753   0.00000  Uiso   1.00
O444   O     0.39764   0.83134   0.31439   0.00000  Uiso   1.00
O445   O     0.60236   0.83533   0.18561   0.00000  Uiso   1.00
O446   O     0.54551   0.86733   0.11448   0.00000  Uiso   1.00
Zn447  Zn    0.60366   0.83954   0.25540   0.00000  Uiso   1.00
Zn448  Zn    0.39634   0.82713   0.24461   0.00000  Uiso   1.00
C449   C     0.68159   0.93147   0.24954   0.00000  Uiso   1.00
C450   C     0.97855   0.83020   0.15858   0.00000  Uiso   1.00
C451   C     0.70230   0.85400   0.39251   0.00000  Uiso   1.00
C452   C     0.96887   0.83027   0.10517   0.00000  Uiso   1.00
C453   C     0.70889   0.92593   0.45342   0.00000  Uiso   1.00
C454   C     0.99464   0.80105   0.02455   0.00000  Uiso   1.00
C455   C     0.68036   0.89904   0.41239   0.00000  Uiso   1.00
C456   C     0.67398   0.80716   0.07502   0.00000  Uiso   1.00
C457   C     0.75035   0.83402   0.41568   0.00000  Uiso   1.00
C458   C     0.92001   0.85156   0.08421   0.00000  Uiso   1.00
C459   C     0.78547   0.86660   0.44960   0.00000  Uiso   1.00
C460   C     0.98509   0.73520   0.25056   0.00000  Uiso   1.00
C461   C     0.91150   0.85174   0.03269   0.00000  Uiso   1.00
C462   C     0.76224   0.91076   0.47149   0.00000  Uiso   1.00
C463   C     0.94529   0.82095   0.00352   0.00000  Uiso   1.00
C464   C     0.84201   0.85529   0.46403   0.00000  Uiso   1.00
C465   C     0.86621   0.87684   0.00972   0.00000  Uiso   1.00
C466   C     0.84505   0.92281   0.03020   0.00000  Uiso   1.00
C467   C     0.87621   0.82540   0.43395   0.00000  Uiso   1.00
C468   C     0.79324   0.93969   0.01025   0.00000  Uiso   1.00
C469   C     0.92836   0.80938   0.45408   0.00000  Uiso   1.00
C470   C     0.68938   0.98616   0.25622   0.00000  Uiso   1.00
C471   C     0.97726   0.68051   0.24398   0.00000  Uiso   1.00
C472   C     0.68836   0.83828   0.34116   0.00000  Uiso   1.00
H473   H     0.77660   0.97469   0.02566   0.00000  Uiso   1.00
H474   H     0.72959   0.76359   0.38766   0.00000  Uiso   1.00
H475   H     0.85678   0.98310   0.07679   0.00000  Uiso   1.00
H476   H     0.88816   0.79374   0.36948   0.00000  Uiso   1.00
H477   H     0.76569   0.98208   0.28953   0.00000  Uiso   1.00
H478   H     0.90089   0.68457   0.21076   0.00000  Uiso   1.00
H479   H     0.95462   0.78633   0.43158   0.00000  Uiso   1.00
H480   H     0.71189   0.79071   0.09072   0.00000  Uiso   1.00
H481   H     0.97633   0.91473   0.39482   0.00000  Uiso   1.00
H482   H     0.69122   0.96034   0.46894   0.00000  Uiso   1.00
H483   H     0.68915   0.77957   0.00221   0.00000  Uiso   1.00
H484   H     0.82905   0.79155   0.21384   0.00000  Uiso   1.00
H485   H     0.83762   0.87510   0.28618   0.00000  Uiso   1.00
H486   H     0.84056   0.85689   0.09790   0.00000  Uiso   1.00
N487   N     0.81362   0.81883   0.23740   0.00000  Uiso   1.00
N488   N     0.85305   0.84784   0.26261   0.00000  Uiso   1.00
O489   O     0.96386   0.91298   0.25310   0.00000  Uiso   1.00
O490   O     0.76278   0.78293   0.40640   0.00000  Uiso   1.00
O491   O     0.87745   0.95231   0.06715   0.00000  Uiso   1.00
O492   O     0.86113   0.81686   0.38430   0.00000  Uiso   1.00
O493   O     0.73979   0.67587   0.28004   0.00000  Uiso   1.00
O494   O     0.92682   0.99080   0.22021   0.00000  Uiso   1.00
O495   O     0.70281   0.75369   0.24691   0.00000  Uiso   1.00
O496   O     0.72488   0.90368   0.24502   0.00000  Uiso   1.00
O497   O     0.94178   0.76298   0.25499   0.00000  Uiso   1.00
O498   O     0.96995   0.84063   0.32247   0.00000  Uiso   1.00
O499   O     0.69672   0.82603   0.17753   0.00000  Uiso   1.00
O500   O     0.73098   0.83134   0.31439   0.00000  Uiso   1.00
O501   O     0.93569   0.83533   0.18561   0.00000  Uiso   1.00
O502   O     0.87885   0.86733   0.11448   0.00000  Uiso   1.00
Zn503  Zn    0.93700   0.83954   0.25540   0.00000  Uiso   1.00
Zn504  Zn    0.72967   0.82713   0.24461   0.00000  Uiso   1.00
C505   C     0.01492   0.26480   0.74954   0.00000  Uiso   1.00
C506   C     0.31188   0.16354   0.65858   0.00000  Uiso   1.00
C507   C     0.03563   0.18733   0.89251   0.00000  Uiso   1.00
C508   C     0.30221   0.16360   0.60517   0.00000  Uiso   1.00
C509   C     0.04222   0.25927   0.95342   0.00000  Uiso   1.00
C510   C     0.32797   0.13438   0.52455   0.00000  Uiso   1.00
C511   C     0.01370   0.23238   0.91239   0.00000  Uiso   1.00
C512   C     0.00731   0.14049   0.57502   0.00000  Uiso   1.00
C513   C     0.08368   0.16735   0.91568   0.00000  Uiso   1.00
C514   C     0.25334   0.18489   0.58421   0.00000  Uiso   1.00
C515   C     0.11881   0.19994   0.94960   0.00000  Uiso   1.00
C516   C     0.31842   0.06854   0.75056   0.00000  Uiso   1.00
C517   C     0.24484   0.18508   0.53269   0.00000  Uiso   1.00
C518   C     0.09558   0.24410   0.97149   0.00000  Uiso   1.00
C519   C     0.27863   0.15428   0.50352   0.00000  Uiso   1.00
C520   C     0.17534   0.18862   0.96403   0.00000  Uiso   1.00
C521   C     0.19955   0.21017   0.50972   0.00000  Uiso   1.00
C522   C     0.17838   0.25615   0.53020   0.00000  Uiso   1.00
C523   C     0.20955   0.15873   0.93395   0.00000  Uiso   1.00
C524   C     0.12657   0.27302   0.51025   0.00000  Uiso   1.00
C525   C     0.26170   0.14272   0.95408   0.00000  Uiso   1.00
C526   C     0.02272   0.31950   0.75622   0.00000  Uiso   1.00
C527   C     0.31060   0.01384   0.74398   0.00000  Uiso   1.00
C528   C     0.02170   0.17161   0.84116   0.00000  Uiso   1.00
H529   H     0.10993   0.30802   0.52566   0.00000  Uiso   1.00
H530   H     0.06292   0.09692   0.88766   0.00000  Uiso   1.00
H531   H     0.19012   0.31643   0.57679   0.00000  Uiso   1.00
H532   H     0.22150   0.12708   0.86948   0.00000  Uiso   1.00
H533   H     0.09902   0.31542   0.78953   0.00000  Uiso   1.00
H534   H     0.23422   0.01790   0.71076   0.00000  Uiso   1.00
H535   H     0.28795   0.11967   0.93158   0.00000  Uiso   1.00
H536   H     0.04522   0.12405   0.59072   0.00000  Uiso   1.00
H537   H     0.30967   0.24806   0.89482   0.00000  Uiso   1.00
H538   H     0.02455   0.29368   0.96894   0.00000  Uiso   1.00
H539   H     0.02249   0.11290   0.50221   0.00000  Uiso   1.00
H540   H     0.16238   0.12488   0.71384   0.00000  Uiso   1.00
H541   H     0.17096   0.20843   0.78618   0.00000  Uiso   1.00
H542   H     0.17389   0.19022   0.59790   0.00000  Uiso   1.00
N543   N     0.14695   0.15216   0.73740   0.00000  Uiso   1.00
N544   N     0.18638   0.18117   0.76261   0.00000  Uiso   1.00
O545   O     0.29719   0.24631   0.75310   0.00000  Uiso   1.00
O546   O     0.09611   0.11627   0.90640   0.00000  Uiso   1.00
O547   O     0.21078   0.28564   0.56715   0.00000  Uiso   1.00
O548   O     0.19446   0.15019   0.88430   0.00000  Uiso   1.00
O549   O     0.07313   0.00921   0.78004   0.00000  Uiso   1.00
O550   O     0.26015   0.32413   0.72021   0.00000  Uiso   1.00
O551   O     0.03614   0.08702   0.74691   0.00000  Uiso   1.00
O552   O     0.05822   0.23702   0.74502   0.00000  Uiso   1.00
O553   O     0.27512   0.09632   0.75499   0.00000  Uiso   1.00
O554   O     0.30328   0.17397   0.82247   0.00000  Uiso   1.00
O555   O     0.03005   0.15937   0.67753   0.00000  Uiso   1.00
O556   O     0.06431   0.16467   0.81439   0.00000  Uiso   1.00
O557   O     0.26902   0.16866   0.68561   0.00000  Uiso   1.00
O558   O     0.21218   0.20067   0.61448   0.00000  Uiso   1.00
Zn559  Zn    0.27033   0.17287   0.75540   0.00000  Uiso   1.00
Zn560  Zn    0.06300   0.16046   0.74461   0.00000  Uiso   1.00
C561   C     0.34825   0.26480   0.74954   0.00000  Uiso   1.00
C562   C     0.64522   0.16354   0.65858   0.00000  Uiso   1.00
C563   C     0.36896   0.18733   0.89251   0.00000  Uiso   1.00
C564   C     0.63554   0.16360   0.60517   0.00000  Uiso   1.00
C565   C     0.37555   0.25927   0.95342   0.00000  Uiso   1.00
C566   C     0.66131   0.13438   0.52455   0.00000  Uiso   1.00
C567   C     0.34703   0.23238   0.91239   0.00000  Uiso   1.00
C568   C     0.34064   0.14049   0.57502   0.00000  Uiso   1.00
C569   C     0.41702   0.16735   0.91568   0.00000  Uiso   1.00
C570   C     0.58668   0.18489   0.58421   0.00000  Uiso   1.00
C571   C     0.45214   0.19994   0.94960   0.00000  Uiso   1.00
C572   C     0.65176   0.06854   0.75056   0.00000  Uiso   1.00
C573   C     0.57817   0.18508   0.53269   0.00000  Uiso   1.00
C574   C     0.42891   0.24410   0.97149   0.00000  Uiso   1.00
C575   C     0.61196   0.15428   0.50352   0.00000  Uiso   1.00
C576   C     0.50867   0.18862   0.96403   0.00000  Uiso   1.00
C577   C     0.53288   0.21017   0.50972   0.00000  Uiso   1.00
C578   C     0.51172   0.25615   0.53020   0.00000  Uiso   1.00
C579   C     0.54288   0.15873   0.93395   0.00000  Uiso   1.00
C580   C     0.45991   0.27302   0.51025   0.00000  Uiso   1.00
C581   C     0.59503   0.14272   0.95408   0.00000  Uiso   1.00
C582   C     0.35605   0.31950   0.75622   0.00000  Uiso   1.00
C583   C     0.64393   0.01384   0.74398   0.00000  Uiso   1.00
C584   C     0.35503   0.17161   0.84116   0.00000  Uiso   1.00
H585   H     0.44327   0.30802   0.52566   0.00000  Uiso   1.00
H586   H     0.39626   0.09692   0.88766   0.00000  Uiso   1.00
H587   H     0.52345   0.31643   0.57679   0.00000  Uiso   1.00
H588   H     0.55483   0.12708   0.86948   0.00000  Uiso   1.00
H589   H     0.43236   0.31542   0.78953   0.00000  Uiso   1.00
H590   H     0.56755   0.01790   0.71076   0.00000  Uiso   1.00
H591   H     0.62129   0.11967   0.93158   0.00000  Uiso   1.00
H592   H     0.37855   0.12405   0.59072   0.00000  Uiso   1.00
H593   H     0.64300   0.24806   0.89482   0.00000  Uiso   1.00
H594   H     0.35789   0.29368   0.96894   0.00000  Uiso   1.00
H595   H     0.35582   0.11290   0.50221   0.00000  Uiso   1.00
H596   H     0.49572   0.12488   0.71384   0.00000  Uiso   1.00
H597   H     0.50429   0.20843   0.78618   0.00000  Uiso   1.00
H598   H     0.50722   0.19022   0.59790   0.00000  Uiso   1.00
N599   N     0.48029   0.15216   0.73740   0.00000  Uiso   1.00
N600   N     0.51971   0.18117   0.76261   0.00000  Uiso   1.00
O601   O     0.63052   0.24631   0.75310   0.00000  Uiso   1.00
O602   O     0.42945   0.11627   0.90640   0.00000  Uiso   1.00
O603   O     0.54412   0.28564   0.56715   0.00000  Uiso   1.00
O604   O     0.52780   0.15019   0.88430   0.00000  Uiso   1.00
O605   O     0.40646   0.00921   0.78004   0.00000  Uiso   1.00
O606   O     0.59349   0.32413   0.72021   0.00000  Uiso   1.00
O607   O     0.36948   0.08702   0.74691   0.00000  Uiso   1.00
O608   O     0.39155   0.23702   0.74502   0.00000  Uiso   1.00
O609   O     0.60845   0.09632   0.75499   0.00000  Uiso   1.00
O610   O     0.63662   0.17397   0.82247   0.00000  Uiso   1.00
O611   O     0.36338   0.15937   0.67753   0.00000  Uiso   1.00
O612   O     0.39764   0.16467   0.81439   0.00000  Uiso   1.00
O613   O     0.60236   0.16866   0.68561   0.00000  Uiso   1.00
O614   O     0.54551   0.20067   0.61448   0.00000  Uiso   1.00
Zn615  Zn    0.60366   0.17287   0.75540   0.00000  Uiso   1.00
Zn616  Zn    0.39634   0.16046   0.74461   0.00000  Uiso   1.00
C617   C     0.68159   0.26480   0.74954   0.00000  Uiso   1.00
C618   C     0.97855   0.16354   0.65858   0.00000  Uiso   1.00
C619   C     0.70230   0.18733   0.89251   0.00000  Uiso   1.00
C620   C     0.96887   0.16360   0.60517   0.00000  Uiso   1.00
C621   C     0.70889   0.25927   0.95342   0.00000  Uiso   1.00
C622   C     0.99464   0.13438   0.52455   0.00000  Uiso   1.00
C623   C     0.68036   0.23238   0.91239   0.00000  Uiso   1.00
C624   C     0.67398   0.14049   0.57502   0.00000  Uiso   1.00
C625   C     0.75035   0.16735   0.91568   0.00000  Uiso   1.00
C626   C     0.92001   0.18489   0.58421   0.00000  Uiso   1.00
C627   C     0.78547   0.19994   0.94960   0.00000  Uiso   1.00
C628   C     0.98509   0.06854   0.75056   0.00000  Uiso   1.00
C629   C     0.91150   0.18508   0.53269   0.00000  Uiso   1.00
C630   C     0.76224   0.24410   0.97149   0.00000  Uiso   1.00
C631   C     0.94529   0.15428   0.50352   0.00000  Uiso   1.00
C632   C     0.84201   0.18862   0.96403   0.00000  Uiso   1.00
C633   C     0.86621   0.21017   0.50972   0.00000  Uiso   1.00
C634   C     0.84505   0.25615   0.53020   0.00000  Uiso   1.00
C635   C     0.87621   0.15873   0.93395   0.00000  Uiso   1.00
C636   C     0.79324   0.27302   0.51025   0.00000  Uiso   1.00
C637   C     0.92836   0.14272   0.95408   0.00000  Uiso   1.00
C638   C     0.68938   0.31950   0.75622   0.00000  Uiso   1.00
C639   C     0.97726   0.01384   0.74398   0.00000  Uiso   1.00
C640   C     0.68836   0.17161   0.84116   0.00000  Uiso   1.00
H641   H     0.77660   0.30802   0.52566   0.00000  Uiso   1.00
H642   H     0.72959   0.09692   0.88766   0.00000  Uiso   1.00
H643   H     0.85678   0.31643   0.57679   0.00000  Uiso   1.00
H644   H     0.88816   0.12708   0.86948   0.00000  Uiso   1.00
H645   H     0.76569   0.31542   0.78953   0.00000  Uiso   1.00
H646   H     0.90089   0.01790   0.71076   0.00000  Uiso   1.00
H647   H     0.95462   0.11967   0.93158   0.00000  Uiso   1.00
H648   H     0.71189   0.12405   0.59072   0.00000  Uiso   1.00
H649   H     0.97633   0.24806   0.89482   0.00000  Uiso   1.00
H650   H     0.69122   0.29368   0.96894   0.00000  Uiso   1.00
H651   H     0.68915   0.11290   0.50221   0.00000  Uiso   1.00
H652   H     0.82905   0.12488   0.71384   0.00000  Uiso   1.00
H653   H     0.83762   0.20843   0.78618   0.00000  Uiso   1.00
H654   H     0.84056   0.19022   0.59790   0.00000  Uiso   1.00
N655   N     0.81362   0.15216   0.73740   0.00000  Uiso   1.00
N656   N     0.85305   0.18117   0.76261   0.00000  Uiso   1.00
O657   O     0.96386   0.24631   0.75310   0.00000  Uiso   1.00
O658   O     0.76278   0.11627   0.90640   0.00000  Uiso   1.00
O659   O     0.87745   0.28564   0.56715   0.00000  Uiso   1.00
O660   O     0.86113   0.15019   0.88430   0.00000  Uiso   1.00
O661   O     0.73979   0.00921   0.78004   0.00000  Uiso   1.00
O662   O     0.92682   0.32413   0.72021   0.00000  Uiso   1.00
O663   O     0.70281   0.08702   0.74691   0.00000  Uiso   1.00
O664   O     0.72488   0.23702   0.74502   0.00000  Uiso   1.00
O665   O     0.94178   0.09632   0.75499   0.00000  Uiso   1.00
O666   O     0.96995   0.17397   0.82247   0.00000  Uiso   1.00
O667   O     0.69672   0.15937   0.67753   0.00000  Uiso   1.00
O668   O     0.73098   0.16467   0.81439   0.00000  Uiso   1.00
O669   O     0.93569   0.16866   0.68561   0.00000  Uiso   1.00
O670   O     0.87885   0.20067   0.61448   0.00000  Uiso   1.00
Zn671  Zn    0.93700   0.17287   0.75540   0.00000  Uiso   1.00
Zn672  Zn    0.72967   0.16046   0.74461   0.00000  Uiso   1.00
C673   C     0.01492   0.59813   0.74954   0.00000  Uiso   1.00
C674   C     0.31188   0.49687   0.65858   0.00000  Uiso   1.00
C675   C     0.03563   0.52067   0.89251   0.00000  Uiso   1.00
C676   C     0.30221   0.49694   0.60517   0.00000  Uiso   1.00
C677   C     0.04222   0.59260   0.95342   0.00000  Uiso   1.00
C678   C     0.32797   0.46771   0.52455   0.00000  Uiso   1.00
C679   C     0.01370   0.56571   0.91239   0.00000  Uiso   1.00
C680   C     0.00731   0.47383   0.57502   0.00000  Uiso   1.00
C681   C     0.08368   0.50069   0.91568   0.00000  Uiso   1.00
C682   C     0.25334   0.51822   0.58421   0.00000  Uiso   1.00
C683   C     0.11881   0.53327   0.94960   0.00000  Uiso   1.00
C684   C     0.31842   0.40187   0.75056   0.00000  Uiso   1.00
C685   C     0.24484   0.51841   0.53269   0.00000  Uiso   1.00
C686   C     0.09558   0.57743   0.97149   0.00000  Uiso   1.00
C687   C     0.27863   0.48762   0.50352   0.00000  Uiso   1.00
C688   C     0.17534   0.52195   0.96403   0.00000  Uiso   1.00
C689   C     0.19955   0.54350   0.50972   0.00000  Uiso   1.00
C690   C     0.17838   0.58948   0.53020   0.00000  Uiso   1.00
C691   C     0.20955   0.49206   0.93395   0.00000  Uiso   1.00
C692   C     0.12657   0.60636   0.51025   0.00000  Uiso   1.00
C693   C     0.26170   0.47605   0.95408   0.00000  Uiso   1.00
C694   C     0.02272   0.65283   0.75622   0.00000  Uiso   1.00
C695   C     0.31060   0.34717   0.74398   0.00000  Uiso   1.00
C696   C     0.02170   0.50494   0.84116   0.00000  Uiso   1.00
H697   H     0.10993   0.64135   0.52566   0.00000  Uiso   1.00
H698   H     0.06292   0.43026   0.88766   0.00000  Uiso   1.00
H699   H     0.19012   0.64977   0.57679   0.00000  Uiso   1.00
H700   H     0.22150   0.46041   0.86948   0.00000  Uiso   1.00
H701   H     0.09902   0.64875   0.78953   0.00000  Uiso   1.00
H702   H     0.23422   0.35123   0.71076   0.00000  Uiso   1.00
H703   H     0.28795   0.45300   0.93158   0.00000  Uiso   1.00
H704   H     0.04522   0.45738   0.59072   0.00000  Uiso   1.00
H705   H     0.30967   0.58139   0.89482   0.00000  Uiso   1.00
H706   H     0.02455   0.62701   0.96894   0.00000  Uiso   1.00
H707   H     0.02249   0.44623   0.50221   0.00000  Uiso   1.00
H708   H     0.16238   0.45821   0.71384   0.00000  Uiso   1.00
H709   H     0.17096   0.54176   0.78618   0.00000  Uiso   1.00
H710   H     0.17389   0.52355   0.59790   0.00000  Uiso   1.00
N711   N     0.14695   0.48550   0.73740   0.00000  Uiso   1.00
N712   N     0.18638   0.51450   0.76261   0.00000  Uiso   1.00
O713   O     0.29719   0.57964   0.75310   0.00000  Uiso   1.00
O714   O     0.09611   0.44960   0.90640   0.00000  Uiso   1.00
O715   O     0.21078   0.61898   0.56715   0.00000  Uiso   1.00
O716   O     0.19446   0.48353   0.88430   0.00000  Uiso   1.00
O717   O     0.07313   0.34254   0.78004   0.00000  Uiso   1.00
O718   O     0.26015   0.65746   0.72021   0.00000  Uiso   1.00
O719   O     0.03614   0.42036   0.74691   0.00000  Uiso   1.00
O720   O     0.05822   0.57035   0.74502   0.00000  Uiso   1.00
O721   O     0.27512   0.42965   0.75499   0.00000  Uiso   1.00
O722   O     0.30328   0.50730   0.82247   0.00000  Uiso   1.00
O723   O     0.03005   0.49270   0.67753   0.00000  Uiso   1.00
O724   O     0.06431   0.49801   0.81439   0.00000  Uiso   1.00
O725   O     0.26902   0.50199   0.68561   0.00000  Uiso   1.00
O726   O     0.21218   0.53400   0.61448   0.00000  Uiso   1.00
Zn727  Zn    0.27033   0.50621   0.75540   0.00000  Uiso   1.00
Zn728  Zn    0.06300   0.49379   0.74461   0.00000  Uiso   1.00
C729   C     0.34825   0.59813   0.74954   0.00000  Uiso   1.00
C730   C     0.64522   0.49687   0.65858   0.00000  Uiso   1.00
C731   C     0.36896   0.52067   0.89251   0.00000  Uiso   1.00
C732   C     0.63554   0.49694   0.60517   0.00000  Uiso   1.00
C733   C     0.37555   0.59260   0.95342   0.00000  Uiso   1.00
C734   C     0.66131   0.46771   0.52455   0.00000  Uiso   1.00
C735   C     0.34703   0.56571   0.91239   0.00000  Uiso   1.00
C736   C     0.34064   0.47383   0.57502   0.00000  Uiso   1.00
C737   C     0.41702   0.50069   0.91568   0.00000  Uiso   1.00
C738   C     0.58668   0.51822   0.58421   0.00000  Uiso   1.00
C739   C     0.45214   0.53327   0.94960   0.00000  Uiso   1.00
C740   C     0.65176   0.40187   0.75056   0.00000  Uiso   1.00
C741   C     0.57817   0.51841   0.53269   0.00000  Uiso   1.00
C742   C     0.42891   0.57743   0.97149   0.00000  Uiso   1.00
C743   C     0.61196   0.48762   0.50352   0.00000  Uiso   1.00
C744   C     0.50867   0.52195   0.96403   0.00000  Uiso   1.00
C745   C     0.53288   0.54350   0.50972   0.00000  Uiso   1.00
C746   C     0.51172   0.58948   0.53020   0.00000  Uiso   1.00
C747   C     0.54288   0.49206   0.93395   0.00000  Uiso   1.00
C748   C     0.45991   0.60636   0.51025   0.00000  Uiso   1.00
C749   C     0.59503   0.47605   0.95408   0.00000  Uiso   1.00
C750   C     0.35605   0.65283   0.75622   0.00000  Uiso   1.00
C751   C     0.64393   0.34717   0.74398   0.00000  Uiso   1.00
C752   C     0.35503   0.50494   0.84116   0.00000  Uiso   1.00
H753   H     0.44327   0.64135   0.52566   0.00000  Uiso   1.00
H754   H     0.39626   0.43026   0.88766   0.00000  Uiso   1.00
H755   H     0.52345   0.64977   0.57679   0.00000  Uiso   1.00
H756   H     0.55483   0.46041   0.86948   0.00000  Uiso   1.00
H757   H     0.43236   0.64875   0.78953   0.00000  Uiso   1.00
H758   H     0.56755   0.35123   0.71076   0.00000  Uiso   1.00
H759   H     0.62129   0.45300   0.93158   0.00000  Uiso   1.00
H760   H     0.37855   0.45738   0.59072   0.00000  Uiso   1.00
H761   H     0.64300   0.58139   0.89482   0.00000  Uiso   1.00
H762   H     0.35789   0.62701   0.96894   0.00000  Uiso   1.00
H763   H     0.35582   0.44623   0.50221   0.00000  Uiso   1.00
H764   H     0.49572   0.45821   0.71384   0.00000  Uiso   1.00
H765   H     0.50429   0.54176   0.78618   0.00000  Uiso   1.00
H766   H     0.50722   0.52355   0.59790   0.00000  Uiso   1.00
N767   N     0.48029   0.48550   0.73740   0.00000  Uiso   1.00
N768   N     0.51971   0.51450   0.76261   0.00000  Uiso   1.00
O769   O     0.63052   0.57964   0.75310   0.00000  Uiso   1.00
O770   O     0.42945   0.44960   0.90640   0.00000  Uiso   1.00
O771   O     0.54412   0.61898   0.56715   0.00000  Uiso   1.00
O772   O     0.52780   0.48353   0.88430   0.00000  Uiso   1.00
O773   O     0.40646   0.34254   0.78004   0.00000  Uiso   1.00
O774   O     0.59349   0.65746   0.72021   0.00000  Uiso   1.00
O775   O     0.36948   0.42036   0.74691   0.00000  Uiso   1.00
O776   O     0.39155   0.57035   0.74502   0.00000  Uiso   1.00
O777   O     0.60845   0.42965   0.75499   0.00000  Uiso   1.00
O778   O     0.63662   0.50730   0.82247   0.00000  Uiso   1.00
O779   O     0.36338   0.49270   0.67753   0.00000  Uiso   1.00
O780   O     0.39764   0.49801   0.81439   0.00000  Uiso   1.00
O781   O     0.60236   0.50199   0.68561   0.00000  Uiso   1.00
O782   O     0.54551   0.53400   0.61448   0.00000  Uiso   1.00
Zn783  Zn    0.60366   0.50621   0.75540   0.00000  Uiso   1.00
Zn784  Zn    0.39634   0.49379   0.74461   0.00000  Uiso   1.00
C785   C     0.68159   0.59813   0.74954   0.00000  Uiso   1.00
C786   C     0.97855   0.49687   0.65858   0.00000  Uiso   1.00
C787   C     0.70230   0.52067   0.89251   0.00000  Uiso   1.00
C788   C     0.96887   0.49694   0.60517   0.00000  Uiso   1.00
C789   C     0.70889   0.59260   0.95342   0.00000  Uiso   1.00
C790   C     0.99464   0.46771   0.52455   0.00000  Uiso   1.00
C791   C     0.68036   0.56571   0.91239   0.00000  Uiso   1.00
C792   C     0.67398   0.47383   0.57502   0.00000  Uiso   1.00
C793   C     0.75035   0.50069   0.91568   0.00000  Uiso   1.00
C794   C     0.92001   0.51822   0.58421   0.00000  Uiso   1.00
C795   C     0.78547   0.53327   0.94960   0.00000  Uiso   1.00
C796   C     0.98509   0.40187   0.75056   0.00000  Uiso   1.00
C797   C     0.91150   0.51841   0.53269   0.00000  Uiso   1.00
C798   C     0.76224   0.57743   0.97149   0.00000  Uiso   1.00
C799   C     0.94529   0.48762   0.50352   0.00000  Uiso   1.00
C800   C     0.84201   0.52195   0.96403   0.00000  Uiso   1.00
C801   C     0.86621   0.54350   0.50972   0.00000  Uiso   1.00
C802   C     0.84505   0.58948   0.53020   0.00000  Uiso   1.00
C803   C     0.87621   0.49206   0.93395   0.00000  Uiso   1.00
C804   C     0.79324   0.60636   0.51025   0.00000  Uiso   1.00
C805   C     0.92836   0.47605   0.95408   0.00000  Uiso   1.00
C806   C     0.68938   0.65283   0.75622   0.00000  Uiso   1.00
C807   C     0.97726   0.34717   0.74398   0.00000  Uiso   1.00
C808   C     0.68836   0.50494   0.84116   0.00000  Uiso   1.00
H809   H     0.77660   0.64135   0.52566   0.00000  Uiso   1.00
H810   H     0.72959   0.43026   0.88766   0.00000  Uiso   1.00
H811   H     0.85678   0.64977   0.57679   0.00000  Uiso   1.00
H812   H     0.88816   0.46041   0.86948   0.00000  Uiso   1.00
H813   H     0.76569   0.64875   0.78953   0.00000  Uiso   1.00
H814   H     0.90089   0.35123   0.71076   0.00000  Uiso   1.00
H815   H     0.95462   0.45300   0.93158   0.00000  Uiso   1.00
H816   H     0.71189   0.45738   0.59072   0.00000  Uiso   1.00
H817   H     0.97633   0.58139   0.89482   0.00000  Uiso   1.00
H818   H     0.69122   0.62701   0.96894   0.00000  Uiso   1.00
H819   H     0.68915   0.44623   0.50221   0.00000  Uiso   1.00
H820   H     0.82905   0.45821   0.71384   0.00000  Uiso   1.00
H821   H     0.83762   0.54176   0.78618   0.00000  Uiso   1.00
H822   H     0.84056   0.52355   0.59790   0.00000  Uiso   1.00
N823   N     0.81362   0.48550   0.73740   0.00000  Uiso   1.00
N824   N     0.85305   0.51450   0.76261   0.00000  Uiso   1.00
O825   O     0.96386   0.57964   0.75310   0.00000  Uiso   1.00
O826   O     0.76278   0.44960   0.90640   0.00000  Uiso   1.00
O827   O     0.87745   0.61898   0.56715   0.00000  Uiso   1.00
O828   O     0.86113   0.48353   0.88430   0.00000  Uiso   1.00
O829   O     0.73979   0.34254   0.78004   0.00000  Uiso   1.00
O830   O     0.92682   0.65746   0.72021   0.00000  Uiso   1.00
O831   O     0.70281   0.42036   0.74691   0.00000  Uiso   1.00
O832   O     0.72488   0.57035   0.74502   0.00000  Uiso   1.00
O833   O     0.94178   0.42965   0.75499   0.00000  Uiso   1.00
O834   O     0.96995   0.50730   0.82247   0.00000  Uiso   1.00
O835   O     0.69672   0.49270   0.67753   0.00000  Uiso   1.00
O836   O     0.73098   0.49801   0.81439   0.00000  Uiso   1.00
O837   O     0.93569   0.50199   0.68561   0.00000  Uiso   1.00
O838   O     0.87885   0.53400   0.61448   0.00000  Uiso   1.00
Zn839  Zn    0.93700   0.50621   0.75540   0.00000  Uiso   1.00
Zn840  Zn    0.72967   0.49379   0.74461   0.00000  Uiso   1.00
C841   C     0.01492   0.93147   0.74954   0.00000  Uiso   1.00
C842   C     0.31188   0.83020   0.65858   0.00000  Uiso   1.00
C843   C     0.03563   0.85400   0.89251   0.00000  Uiso   1.00
C844   C     0.30221   0.83027   0.60517   0.00000  Uiso   1.00
C845   C     0.04222   0.92593   0.95342   0.00000  Uiso   1.00
C846   C     0.32797   0.80105   0.52455   0.00000  Uiso   1.00
C847   C     0.01370   0.89904   0.91239   0.00000  Uiso   1.00
C848   C     0.00731   0.80716   0.57502   0.00000  Uiso   1.00
C849   C     0.08368   0.83402   0.91568   0.00000  Uiso   1.00
C850   C     0.25334   0.85156   0.58421   0.00000  Uiso   1.00
C851   C     0.11881   0.86660   0.94960   0.00000  Uiso   1.00
C852   C     0.31842   0.73520   0.75056   0.00000  Uiso   1.00
C853   C     0.24484   0.85174   0.53269   0.00000  Uiso   1.00
C854   C     0.09558   0.91076   0.97149   0.00000  Uiso   1.00
C855   C     0.27863   0.82095   0.50352   0.00000  Uiso   1.00
C856   C     0.17534   0.85529   0.96403   0.00000  Uiso   1.00
C857   C     0.19955   0.87684   0.50972   0.00000  Uiso   1.00
C858   C     0.17838   0.92281   0.53020   0.00000  Uiso   1.00
C859   C     0.20955   0.82540   0.93395   0.00000  Uiso   1.00
C860   C     0.12657   0.93969   0.51025   0.00000  Uiso   1.00
C861   C     0.26170   0.80938   0.95408   0.00000  Uiso   1.00
C862   C     0.02272   0.98616   0.75622   0.00000  Uiso   1.00
C863   C     0.31060   0.68051   0.74398   0.00000  Uiso   1.00
C864   C     0.02170   0.83828   0.84116   0.00000  Uiso   1.00
H865   H     0.10993   0.97469   0.52566   0.00000  Uiso   1.00
H866   H     0.06292   0.76359   0.88766   0.00000  Uiso   1.00
H867   H     0.19012   0.98310   0.57679   0.00000  Uiso   1.00
H868   H     0.22150   0.79374   0.86948   0.00000  Uiso   1.00
H869   H     0.09902   0.98208   0.78953   0.00000  Uiso   1.00
H870   H     0.23422   0.68457   0.71076   0.00000  Uiso   1.00
H871   H     0.28795   0.78633   0.93158   0.00000  Uiso   1.00
H872   H     0.04522   0.79071   0.59072   0.00000  Uiso   1.00
H873   H     0.30967   0.91473   0.89482   0.00000  Uiso   1.00
H874   H     0.02455   0.96034   0.96894   0.00000  Uiso   1.00
H875   H     0.02249   0.77957   0.50221   0.00000  Uiso   1.00
H876   H     0.16238   0.79155   0.71384   0.00000  Uiso   1.00
H877   H     0.17096   0.87510   0.78618   0.00000  Uiso   1.00
H878   H     0.17389   0.85689   0.59790   0.00000  Uiso   1.00
N879   N     0.14695   0.81883   0.73740   0.00000  Uiso   1.00
N880   N     0.18638   0.84784   0.76261   0.00000  Uiso   1.00
O881   O     0.29719   0.91298   0.75310   0.00000  Uiso   1.00
O882   O     0.09611   0.78293   0.90640   0.00000  Uiso   1.00
O883   O     0.21078   0.95231   0.56715   0.00000  Uiso   1.00
O884   O     0.19446   0.81686   0.88430   0.00000  Uiso   1.00
O885   O     0.07313   0.67587   0.78004   0.00000  Uiso   1.00
O886   O     0.26015   0.99080   0.72021   0.00000  Uiso   1.00
O887   O     0.03614   0.75369   0.74691   0.00000  Uiso   1.00
O888   O     0.05822   0.90368   0.74502   0.00000  Uiso   1.00
O889   O     0.27512   0.76298   0.75499   0.00000  Uiso   1.00
O890   O     0.30328   0.84063   0.82247   0.00000  Uiso   1.00
O891   O     0.03005   0.82603   0.67753   0.00000  Uiso   1.00
O892   O     0.06431   0.83134   0.81439   0.00000  Uiso   1.00
O893   O     0.26902   0.83533   0.68561   0.00000  Uiso   1.00
O894   O     0.21218   0.86733   0.61448   0.00000  Uiso   1.00
Zn895  Zn    0.27033   0.83954   0.75540   0.00000  Uiso   1.00
Zn896  Zn    0.06300   0.82713   0.74461   0.00000  Uiso   1.00
C897   C     0.34825   0.93147   0.74954   0.00000  Uiso   1.00
C898   C     0.64522   0.83020   0.65858   0.00000  Uiso   1.00
C899   C     0.36896   0.85400   0.89251   0.00000  Uiso   1.00
C900   C     0.63554   0.83027   0.60517   0.00000  Uiso   1.00
C901   C     0.37555   0.92593   0.95342   0.00000  Uiso   1.00
C902   C     0.66131   0.80105   0.52455   0.00000  Uiso   1.00
C903   C     0.34703   0.89904   0.91239   0.00000  Uiso   1.00
C904   C     0.34064   0.80716   0.57502   0.00000  Uiso   1.00
C905   C     0.41702   0.83402   0.91568   0.00000  Uiso   1.00
C906   C     0.58668   0.85156   0.58421   0.00000  Uiso   1.00
C907   C     0.45214   0.86660   0.94960   0.00000  Uiso   1.00
C908   C     0.65176   0.73520   0.75056   0.00000  Uiso   1.00
C909   C     0.57817   0.85174   0.53269   0.00000  Uiso   1.00
C910   C     0.42891   0.91076   0.97149   0.00000  Uiso   1.00
C911   C     0.61196   0.82095   0.50352   0.00000  Uiso   1.00
C912   C     0.50867   0.85529   0.96403   0.00000  Uiso   1.00
C913   C     0.53288   0.87684   0.50972   0.00000  Uiso   1.00
C914   C     0.51172   0.92281   0.53020   0.00000  Uiso   1.00
C915   C     0.54288   0.82540   0.93395   0.00000  Uiso   1.00
C916   C     0.45991   0.93969   0.51025   0.00000  Uiso   1.00
C917   C     0.59503   0.80938   0.95408   0.00000  Uiso   1.00
C918   C     0.35605   0.98616   0.75622   0.00000  Uiso   1.00
C919   C     0.64393   0.68051   0.74398   0.00000  Uiso   1.00
C920   C     0.35503   0.83828   0.84116   0.00000  Uiso   1.00
H921   H     0.44327   0.97469   0.52566   0.00000  Uiso   1.00
H922   H     0.39626   0.76359   0.88766   0.00000  Uiso   1.00
H923   H     0.52345   0.98310   0.57679   0.00000  Uiso   1.00
H924   H     0.55483   0.79374   0.86948   0.00000  Uiso   1.00
H925   H     0.43236   0.98208   0.78953   0.00000  Uiso   1.00
H926   H     0.56755   0.68457   0.71076   0.00000  Uiso   1.00
H927   H     0.62129   0.78633   0.93158   0.00000  Uiso   1.00
H928   H     0.37855   0.79071   0.59072   0.00000  Uiso   1.00
H929   H     0.64300   0.91473   0.89482   0.00000  Uiso   1.00
H930   H     0.35789   0.96034   0.96894   0.00000  Uiso   1.00
H931   H     0.35582   0.77957   0.50221   0.00000  Uiso   1.00
H932   H     0.49572   0.79155   0.71384   0.00000  Uiso   1.00
H933   H     0.50429   0.87510   0.78618   0.00000  Uiso   1.00
H934   H     0.50722   0.85689   0.59790   0.00000  Uiso   1.00
N935   N     0.48029   0.81883   0.73740   0.00000  Uiso   1.00
N936   N     0.51971   0.84784   0.76261   0.00000  Uiso   1.00
O937   O     0.63052   0.91298   0.75310   0.00000  Uiso   1.00
O938   O     0.42945   0.78293   0.90640   0.00000  Uiso   1.00
O939   O     0.54412   0.95231   0.56715   0.00000  Uiso   1.00
O940   O     0.52780   0.81686   0.88430   0.00000  Uiso   1.00
O941   O     0.40646   0.67587   0.78004   0.00000  Uiso   1.00
O942   O     0.59349   0.99080   0.72021   0.00000  Uiso   1.00
O943   O     0.36948   0.75369   0.74691   0.00000  Uiso   1.00
O944   O     0.39155   0.90368   0.74502   0.00000  Uiso   1.00
O945   O     0.60845   0.76298   0.75499   0.00000  Uiso   1.00
O946   O     0.63662   0.84063   0.82247   0.00000  Uiso   1.00
O947   O     0.36338   0.82603   0.67753   0.00000  Uiso   1.00
O948   O     0.39764   0.83134   0.81439   0.00000  Uiso   1.00
O949   O     0.60236   0.83533   0.68561   0.00000  Uiso   1.00
O950   O     0.54551   0.86733   0.61448   0.00000  Uiso   1.00
Zn951  Zn    0.60366   0.83954   0.75540   0.00000  Uiso   1.00
Zn952  Zn    0.39634   0.82713   0.74461   0.00000  Uiso   1.00
C953   C     0.68159   0.93147   0.74954   0.00000  Uiso   1.00
C954   C     0.97855   0.83020   0.65858   0.00000  Uiso   1.00
C955   C     0.70230   0.85400   0.89251   0.00000  Uiso   1.00
C956   C     0.96887   0.83027   0.60517   0.00000  Uiso   1.00
C957   C     0.70889   0.92593   0.95342   0.00000  Uiso   1.00
C958   C     0.99464   0.80105   0.52455   0.00000  Uiso   1.00
C959   C     0.68036   0.89904   0.91239   0.00000  Uiso   1.00
C960   C     0.67398   0.80716   0.57502   0.00000  Uiso   1.00
C961   C     0.75035   0.83402   0.91568   0.00000  Uiso   1.00
C962   C     0.92001   0.85156   0.58421   0.00000  Uiso   1.00
C963   C     0.78547   0.86660   0.94960   0.00000  Uiso   1.00
C964   C     0.98509   0.73520   0.75056   0.00000  Uiso   1.00
C965   C     0.91150   0.85174   0.53269   0.00000  Uiso   1.00
C966   C     0.76224   0.91076   0.97149   0.00000  Uiso   1.00
C967   C     0.94529   0.82095   0.50352   0.00000  Uiso   1.00
C968   C     0.84201   0.85529   0.96403   0.00000  Uiso   1.00
C969   C     0.86621   0.87684   0.50972   0.00000  Uiso   1.00
C970   C     0.84505   0.92281   0.53020   0.00000  Uiso   1.00
C971   C     0.87621   0.82540   0.93395   0.00000  Uiso   1.00
C972   C     0.79324   0.93969   0.51025   0.00000  Uiso   1.00
C973   C     0.92836   0.80938   0.95408   0.00000  Uiso   1.00
C974   C     0.68938   0.98616   0.75622   0.00000  Uiso   1.00
C975   C     0.97726   0.68051   0.74398   0.00000  Uiso   1.00
C976   C     0.68836   0.83828   0.84116   0.00000  Uiso   1.00
H977   H     0.77660   0.97469   0.52566   0.00000  Uiso   1.00
H978   H     0.72959   0.76359   0.88766   0.00000  Uiso   1.00
H979   H     0.85678   0.98310   0.57679   0.00000  Uiso   1.00
H980   H     0.88816   0.79374   0.86948   0.00000  Uiso   1.00
H981   H     0.76569   0.98208   0.78953   0.00000  Uiso   1.00
H982   H     0.90089   0.68457   0.71076   0.00000  Uiso   1.00
H983   H     0.95462   0.78633   0.93158   0.00000  Uiso   1.00
H984   H     0.71189   0.79071   0.59072   0.00000  Uiso   1.00
H985   H     0.97633   0.91473   0.89482   0.00000  Uiso   1.00
H986   H     0.69122   0.96034   0.96894   0.00000  Uiso   1.00
H987   H     0.68915   0.77957   0.50221   0.00000  Uiso   1.00
H988   H     0.82905   0.79155   0.71384   0.00000  Uiso   1.00
H989   H     0.83762   0.87510   0.78618   0.00000  Uiso   1.00
H990   H     0.84056   0.85689   0.59790   0.00000  Uiso   1.00
N991   N     0.81362   0.81883   0.73740   0.00000  Uiso   1.00
N992   N     0.85305   0.84784   0.76261   0.00000  Uiso   1.00
O993   O     0.96386   0.91298   0.75310   0.00000  Uiso   1.00
O994   O     0.76278   0.78293   0.90640   0.00000  Uiso   1.00
O995   O     0.87745   0.95231   0.56715   0.00000  Uiso   1.00
O996   O     0.86113   0.81686   0.88430   0.00000  Uiso   1.00
O997   O     0.73979   0.67587   0.78004   0.00000  Uiso   1.00
O998   O     0.92682   0.99080   0.72021   0.00000  Uiso   1.00
O999   O     0.70281   0.75369   0.74691   0.00000  Uiso   1.00
O1000  O     0.72488   0.90368   0.74502   0.00000  Uiso   1.00
O1001  O     0.94178   0.76298   0.75499   0.00000  Uiso   1.00
O1002  O     0.96995   0.84063   0.82247   0.00000  Uiso   1.00
O1003  O     0.69672   0.82603   0.67753   0.00000  Uiso   1.00
O1004  O     0.73098   0.83134   0.81439   0.00000  Uiso   1.00
O1005  O     0.93569   0.83533   0.68561   0.00000  Uiso   1.00
O1006  O     0.87885   0.86733   0.61448   0.00000  Uiso   1.00
Zn1007 Zn    0.93700   0.83954   0.75540   0.00000  Uiso   1.00
Zn1008 Zn    0.72967   0.82713   0.74461   0.00000  Uiso   1.00
loop_
_geom_bond_atom_site_label_1
_geom_bond_atom_site_label_2
_geom_bond_distance
_geom_bond_site_symmetry_2
_ccdc_geom_bond_type
C1     O48     1.291   .     A
C1     C22     1.414   .     S
C1     O153    1.273   1_455 S
C2     C4      1.464   .     S
C2     O53     1.299   .     A
C2     O107    1.295   .     S
C3     C9      1.398   .     A
C3     C24     1.450   .     S
C3     C7      1.402   .     A
C4     C10     1.405   .     A
C4     C64     1.404   .     S
C5     H34     1.084   .     S
C5     C7      1.392   .     A
C5     C14     1.402   .     A
C6     C15     1.398   .     A
C6     C64     1.391   .     S
C6     H91     1.084   .     S
C7     H145    1.083   1_455 S
C8     H32     1.083   .     S
C8     C116    1.404   1_455 S
C8     C118    1.391   1_455 S
C9     C11     1.402   .     A
C9     O42     1.385   .     S
C10    C13     1.411   .     A
C10    O54     1.383   .     S
C11    C16     1.411   .     A
C11    C14     1.418   .     A
C12    O49     1.291   .     A
C12    C23     1.414   .     S
C12    O103    1.273   .     S
C13    C17     1.410   .     A
C13    C15     1.414   .     A
C14    C524    1.395   .     S
C15    C525    1.394   1_554 S
C16    C19     1.422   .     A
C16    C521    1.406   .     S
C17    C18     1.420   .     A
C17    C520    1.406   1_554 S
C18    C20     1.403   .     A
C18    O43     1.383   .     S
C19    C21     1.403   .     A
C19    O44     1.382   .     S
C20    H25     1.084   .     S
C20    C518    1.395   1_554 S
C21    H31     1.084   .     S
C21    C519    1.394   .     S
C22    C303    1.356   1_455 S
C22    O213    1.391   .     S
C23    C414    1.356   1_545 S
C23    O382    1.391   1_545 S
C24    O52     1.296   .     A
C24    O162    1.290   1_455 S
H26    O42     0.992   .     S
H27    O43     0.992   .     S
H28    O44     0.991   .     S
H29    O213    0.991   .     S
H30    O382    0.991   1_545 S
H33    C63     1.083   .     S
H35    C118    1.084   1_455 S
H36    N39     1.029   .     S
H37    N40     1.029   .     S
H38    O54     0.991   .     S
N39    N40     1.287   .     D
N39    Zn56    2.017   .     S
N40    Zn55    2.017   .     S
O41    Zn55    1.967   .     S
O41    C57     1.273   .     S
O45    C358    1.391   1_545 S
O45    H365    0.991   1_545 S
O46    H198    0.991   .     S
O46    C191    1.391   .     S
O47    Zn56    1.967   .     S
O47    C124    1.273   1_455 S
O48    Zn56    1.989   .     S
O49    Zn55    1.989   .     S
O50    Zn55    1.940   .     S
O50    C80     1.290   .     S
O51    Zn56    1.940   .     S
O51    C114    1.295   1_455 S
O52    Zn56    1.906   .     S
O53    Zn55    1.906   .     S
C57    O104    1.291   .     A
C57    C78     1.414   .     S
C58    C60     1.464   .     S
C58    O109    1.299   .     A
C58    O163    1.295   .     S
C59    C65     1.398   .     A
C59    C80     1.450   .     S
C59    C63     1.402   .     A
C60    C66     1.405   .     A
C60    C120    1.404   .     S
C61    H90     1.084   .     S
C61    C63     1.392   .     A
C61    C70     1.402   .     A
C62    C71     1.398   .     A
C62    C120    1.391   .     S
C62    H147    1.084   .     S
C64    H88     1.083   .     S
C65    C67     1.402   .     A
C65    O98     1.385   .     S
C66    C69     1.411   .     A
C66    O110    1.383   .     S
C67    C72     1.411   .     A
C67    C70     1.418   .     A
C68    O105    1.291   .     A
C68    C79     1.414   .     S
C68    O159    1.273   .     S
C69    C73     1.410   .     A
C69    C71     1.414   .     A
C70    C580    1.395   .     S
C71    C581    1.394   1_554 S
C72    C75     1.422   .     A
C72    C577    1.406   .     S
C73    C74     1.420   .     A
C73    C576    1.406   1_554 S
C74    C76     1.403   .     A
C74    O99     1.383   .     S
C75    C77     1.403   .     A
C75    O100    1.382   .     S
C76    H81     1.084   .     S
C76    C574    1.395   1_554 S
C77    H87     1.084   .     S
C77    C575    1.394   .     S
C78    C191    1.356   .     S
C78    O269    1.391   .     S
C79    C470    1.356   1_545 S
C79    O438    1.391   1_545 S
C80    O108    1.296   .     A
H82    O98     0.992   .     S
H83    O99     0.992   .     S
H84    O100    0.991   .     S
H85    O269    0.991   .     S
H86    O438    0.991   1_545 S
H89    C119    1.083   .     S
H92    N95     1.029   .     S
H93    N96     1.029   .     S
H94    O110    0.991   .     S
N95    N96     1.287   .     D
N95    Zn112   2.017   .     S
N96    Zn111   2.017   .     S
O97    Zn111   1.967   .     S
O97    C113    1.273   .     S
O101   C414    1.391   1_545 S
O101   H421    0.991   1_545 S
O102   H254    0.991   .     S
O102   C247    1.391   .     S
O103   Zn112   1.967   .     S
O104   Zn112   1.989   .     S
O105   Zn111   1.989   .     S
O106   Zn111   1.940   .     S
O106   C136    1.290   .     S
O107   Zn112   1.940   .     S
O108   Zn112   1.906   .     S
O109   Zn111   1.906   .     S
C113   O160    1.291   .     A
C113   C134    1.414   .     S
C114   C116    1.464   .     S
C114   O165    1.299   .     A
C114   O51     1.295   1_655 S
C115   C121    1.398   .     A
C115   C136    1.450   .     S
C115   C119    1.402   .     A
C116   C122    1.405   .     A
C116   C8      1.404   1_655 S
C117   H146    1.084   .     S
C117   C119    1.392   .     A
C117   C126    1.402   .     A
C118   C127    1.398   .     A
C118   C8      1.391   1_655 S
C118   H35     1.084   1_655 S
C120   H144    1.083   .     S
C121   C123    1.402   .     A
C121   O154    1.385   .     S
C122   C125    1.411   .     A
C122   O166    1.383   .     S
C123   C128    1.411   .     A
C123   C126    1.418   .     A
C124   O161    1.291   .     A
C124   C135    1.414   .     S
C124   O47     1.273   1_655 S
C125   C129    1.410   .     A
C125   C127    1.414   .     A
C126   C636    1.395   .     S
C127   C637    1.394   1_554 S
C128   C131    1.422   .     A
C128   C633    1.406   .     S
C129   C130    1.420   .     A
C129   C632    1.406   1_554 S
C130   C132    1.403   .     A
C130   O155    1.383   .     S
C131   C133    1.403   .     A
C131   O156    1.382   .     S
C132   H137    1.084   .     S
C132   C630    1.395   1_554 S
C133   H143    1.084   .     S
C133   C631    1.394   .     S
C134   C247    1.356   .     S
C134   O325    1.391   .     S
C135   C358    1.356   1_645 S
C135   O494    1.391   1_545 S
C136   O164    1.296   .     A
H138   O154    0.992   .     S
H139   O155    0.992   .     S
H140   O156    0.991   .     S
H141   O325    0.991   .     S
H142   O494    0.991   1_545 S
H145   C7      1.083   1_655 S
H148   N151    1.029   .     S
H149   N152    1.029   .     S
H150   O166    0.991   .     S
N151   N152    1.287   .     D
N151   Zn168   2.017   .     S
N152   Zn167   2.017   .     S
O153   Zn167   1.967   .     S
O153   C1      1.273   1_655 S
O157   C470    1.391   1_545 S
O157   H477    0.991   1_545 S
O158   H310    0.991   .     S
O158   C303    1.391   .     S
O159   Zn168   1.967   .     S
O160   Zn168   1.989   .     S
O161   Zn167   1.989   .     S
O162   Zn167   1.940   .     S
O162   C24     1.290   1_655 S
O163   Zn168   1.940   .     S
O164   Zn168   1.906   .     S
O165   Zn167   1.906   .     S
C169   O216    1.291   .     A
C169   C190    1.414   .     S
C169   O321    1.273   1_455 S
C170   C172    1.464   .     S
C170   O221    1.299   .     A
C170   O275    1.295   .     S
C171   C177    1.398   .     A
C171   C192    1.450   .     S
C171   C175    1.402   .     A
C172   C178    1.405   .     A
C172   C232    1.404   .     S
C173   H202    1.084   .     S
C173   C175    1.392   .     A
C173   C182    1.402   .     A
C174   C183    1.398   .     A
C174   C232    1.391   .     S
C174   H259    1.084   .     S
C175   H313    1.083   1_455 S
C176   H200    1.083   .     S
C176   C284    1.404   1_455 S
C176   C286    1.391   1_455 S
C177   C179    1.402   .     A
C177   O210    1.385   .     S
C178   C181    1.411   .     A
C178   O222    1.383   .     S
C179   C184    1.411   .     A
C179   C182    1.418   .     A
C180   O217    1.291   .     A
C180   C191    1.414   .     S
C180   O271    1.273   .     S
C181   C185    1.410   .     A
C181   C183    1.414   .     A
C182   C692    1.395   .     S
C183   C693    1.394   1_554 S
C184   C187    1.422   .     A
C184   C689    1.406   .     S
C185   C186    1.420   .     A
C185   C688    1.406   1_554 S
C186   C188    1.403   .     A
C186   O211    1.383   .     S
C187   C189    1.403   .     A
C187   O212    1.382   .     S
C188   H193    1.084   .     S
C188   C686    1.395   1_554 S
C189   H199    1.084   .     S
C189   C687    1.394   .     S
C190   C471    1.356   1_455 S
C190   O381    1.391   .     S
C192   O220    1.296   .     A
C192   O330    1.290   1_455 S
H194   O210    0.992   .     S
H195   O211    0.992   .     S
H196   O212    0.991   .     S
H197   O381    0.991   .     S
H201   C231    1.083   .     S
H203   C286    1.084   1_455 S
H204   N207    1.029   .     S
H205   N208    1.029   .     S
H206   O222    0.991   .     S
N207   N208    1.287   .     D
N207   Zn224   2.017   .     S
N208   Zn223   2.017   .     S
O209   Zn223   1.967   .     S
O209   C225    1.273   .     S
O214   H366    0.991   .     S
O214   C359    1.391   .     S
O215   Zn224   1.967   .     S
O215   C292    1.273   1_455 S
O216   Zn224   1.989   .     S
O217   Zn223   1.989   .     S
O218   Zn223   1.940   .     S
O218   C248    1.290   .     S
O219   Zn224   1.940   .     S
O219   C282    1.295   1_455 S
O220   Zn224   1.906   .     S
O221   Zn223   1.906   .     S
C225   O272    1.291   .     A
C225   C246    1.414   .     S
C226   C228    1.464   .     S
C226   O277    1.299   .     A
C226   O331    1.295   .     S
C227   C233    1.398   .     A
C227   C248    1.450   .     S
C227   C231    1.402   .     A
C228   C234    1.405   .     A
C228   C288    1.404   .     S
C229   H258    1.084   .     S
C229   C231    1.392   .     A
C229   C238    1.402   .     A
C230   C239    1.398   .     A
C230   C288    1.391   .     S
C230   H315    1.084   .     S
C232   H256    1.083   .     S
C233   C235    1.402   .     A
C233   O266    1.385   .     S
C234   C237    1.411   .     A
C234   O278    1.383   .     S
C235   C240    1.411   .     A
C235   C238    1.418   .     A
C236   O273    1.291   .     A
C236   C247    1.414   .     S
C236   O327    1.273   .     S
C237   C241    1.410   .     A
C237   C239    1.414   .     A
C238   C748    1.395   .     S
C239   C749    1.394   1_554 S
C240   C243    1.422   .     A
C240   C745    1.406   .     S
C241   C242    1.420   .     A
C241   C744    1.406   1_554 S
C242   C244    1.403   .     A
C242   O267    1.383   .     S
C243   C245    1.403   .     A
C243   O268    1.382   .     S
C244   H249    1.084   .     S
C244   C742    1.395   1_554 S
C245   H255    1.084   .     S
C245   C743    1.394   .     S
C246   C359    1.356   .     S
C246   O437    1.391   .     S
C248   O276    1.296   .     A
H250   O266    0.992   .     S
H251   O267    0.992   .     S
H252   O268    0.991   .     S
H253   O437    0.991   .     S
H257   C287    1.083   .     S
H260   N263    1.029   .     S
H261   N264    1.029   .     S
H262   O278    0.991   .     S
N263   N264    1.287   .     D
N263   Zn280   2.017   .     S
N264   Zn279   2.017   .     S
O265   Zn279   1.967   .     S
O265   C281    1.273   .     S
O270   H422    0.991   .     S
O270   C415    1.391   .     S
O271   Zn280   1.967   .     S
O272   Zn280   1.989   .     S
O273   Zn279   1.989   .     S
O274   Zn279   1.940   .     S
O274   C304    1.290   .     S
O275   Zn280   1.940   .     S
O276   Zn280   1.906   .     S
O277   Zn279   1.906   .     S
C281   O328    1.291   .     A
C281   C302    1.414   .     S
C282   C284    1.464   .     S
C282   O333    1.299   .     A
C282   O219    1.295   1_655 S
C283   C289    1.398   .     A
C283   C304    1.450   .     S
C283   C287    1.402   .     A
C284   C290    1.405   .     A
C284   C176    1.404   1_655 S
C285   H314    1.084   .     S
C285   C287    1.392   .     A
C285   C294    1.402   .     A
C286   C295    1.398   .     A
C286   C176    1.391   1_655 S
C286   H203    1.084   1_655 S
C288   H312    1.083   .     S
C289   C291    1.402   .     A
C289   O322    1.385   .     S
C290   C293    1.411   .     A
C290   O334    1.383   .     S
C291   C296    1.411   .     A
C291   C294    1.418   .     A
C292   O329    1.291   .     A
C292   C303    1.414   .     S
C292   O215    1.273   1_655 S
C293   C297    1.410   .     A
C293   C295    1.414   .     A
C294   C804    1.395   .     S
C295   C805    1.394   1_554 S
C296   C299    1.422   .     A
C296   C801    1.406   .     S
C297   C298    1.420   .     A
C297   C800    1.406   1_554 S
C298   C300    1.403   .     A
C298   O323    1.383   .     S
C299   C301    1.403   .     A
C299   O324    1.382   .     S
C300   H305    1.084   .     S
C300   C798    1.395   1_554 S
C301   H311    1.084   .     S
C301   C799    1.394   .     S
C302   C415    1.356   .     S
C302   O493    1.391   .     S
C303   C22     1.356   1_655 S
C304   O332    1.296   .     A
H306   O322    0.992   .     S
H307   O323    0.992   .     S
H308   O324    0.991   .     S
H309   O493    0.991   .     S
H313   C175    1.083   1_655 S
H316   N319    1.029   .     S
H317   N320    1.029   .     S
H318   O334    0.991   .     S
N319   N320    1.287   .     D
N319   Zn336   2.017   .     S
N320   Zn335   2.017   .     S
O321   Zn335   1.967   .     S
O321   C169    1.273   1_655 S
O326   H478    0.991   .     S
O326   C471    1.391   .     S
O327   Zn336   1.967   .     S
O328   Zn336   1.989   .     S
O329   Zn335   1.989   .     S
O330   Zn335   1.940   .     S
O330   C192    1.290   1_655 S
O331   Zn336   1.940   .     S
O332   Zn336   1.906   .     S
O333   Zn335   1.906   .     S
C337   O384    1.291   .     A
C337   C358    1.414   .     S
C337   O489    1.273   1_455 S
C338   C340    1.464   .     S
C338   O389    1.299   .     A
C338   O443    1.295   .     S
C339   C345    1.398   .     A
C339   C360    1.450   .     S
C339   C343    1.402   .     A
C340   C346    1.405   .     A
C340   C400    1.404   .     S
C341   H370    1.084   .     S
C341   C343    1.392   .     A
C341   C350    1.402   .     A
C342   C351    1.398   .     A
C342   C400    1.391   .     S
C342   H427    1.084   .     S
C343   H481    1.083   1_455 S
C344   H368    1.083   .     S
C344   C452    1.404   1_455 S
C344   C454    1.391   1_455 S
C345   C347    1.402   .     A
C345   O378    1.385   .     S
C346   C349    1.411   .     A
C346   O390    1.383   .     S
C347   C352    1.411   .     A
C347   C350    1.418   .     A
C348   O385    1.291   .     A
C348   C359    1.414   .     S
C348   O439    1.273   .     S
C349   C353    1.410   .     A
C349   C351    1.414   .     A
C350   C860    1.395   .     S
C351   C861    1.394   1_554 S
C352   C355    1.422   .     A
C352   C857    1.406   .     S
C353   C354    1.420   .     A
C353   C856    1.406   1_554 S
C354   C356    1.403   .     A
C354   O379    1.383   .     S
C355   C357    1.403   .     A
C355   O380    1.382   .     S
C356   H361    1.084   .     S
C356   C854    1.395   1_554 S
C357   H367    1.084   .     S
C357   C855    1.394   .     S
C358   C135    1.356   1_465 S
C358   O45     1.391   1_565 S
C360   O388    1.296   .     A
C360   O498    1.290   1_455 S
H362   O378    0.992   .     S
H363   O379    0.992   .     S
H364   O380    0.991   .     S
H365   O45     0.991   1_565 S
H369   C399    1.083   .     S
H371   C454    1.084   1_455 S
H372   N375    1.029   .     S
H373   N376    1.029   .     S
H374   O390    0.991   .     S
N375   N376    1.287   .     D
N375   Zn392   2.017   .     S
N376   Zn391   2.017   .     S
O377   Zn391   1.967   .     S
O377   C393    1.273   .     S
O382   H30     0.991   1_565 S
O382   C23     1.391   1_565 S
O383   Zn392   1.967   .     S
O383   C460    1.273   1_455 S
O384   Zn392   1.989   .     S
O385   Zn391   1.989   .     S
O386   Zn391   1.940   .     S
O386   C416    1.290   .     S
O387   Zn392   1.940   .     S
O387   C450    1.295   1_455 S
O388   Zn392   1.906   .     S
O389   Zn391   1.906   .     S
C393   O440    1.291   .     A
C393   C414    1.414   .     S
C394   C396    1.464   .     S
C394   O445    1.299   .     A
C394   O499    1.295   .     S
C395   C401    1.398   .     A
C395   C416    1.450   .     S
C395   C399    1.402   .     A
C396   C402    1.405   .     A
C396   C456    1.404   .     S
C397   H426    1.084   .     S
C397   C399    1.392   .     A
C397   C406    1.402   .     A
C398   C407    1.398   .     A
C398   C456    1.391   .     S
C398   H483    1.084   .     S
C400   H424    1.083   .     S
C401   C403    1.402   .     A
C401   O434    1.385   .     S
C402   C405    1.411   .     A
C402   O446    1.383   .     S
C403   C408    1.411   .     A
C403   C406    1.418   .     A
C404   O441    1.291   .     A
C404   C415    1.414   .     S
C404   O495    1.273   .     S
C405   C409    1.410   .     A
C405   C407    1.414   .     A
C406   C916    1.395   .     S
C407   C917    1.394   1_554 S
C408   C411    1.422   .     A
C408   C913    1.406   .     S
C409   C410    1.420   .     A
C409   C912    1.406   1_554 S
C410   C412    1.403   .     A
C410   O435    1.383   .     S
C411   C413    1.403   .     A
C411   O436    1.382   .     S
C412   H417    1.084   .     S
C412   C910    1.395   1_554 S
C413   H423    1.084   .     S
C413   C911    1.394   .     S
C414   C23     1.356   1_565 S
C414   O101    1.391   1_565 S
C416   O444    1.296   .     A
H418   O434    0.992   .     S
H419   O435    0.992   .     S
H420   O436    0.991   .     S
H421   O101    0.991   1_565 S
H425   C455    1.083   .     S
H428   N431    1.029   .     S
H429   N432    1.029   .     S
H430   O446    0.991   .     S
N431   N432    1.287   .     D
N431   Zn448   2.017   .     S
N432   Zn447   2.017   .     S
O433   Zn447   1.967   .     S
O433   C449    1.273   .     S
O438   H86     0.991   1_565 S
O438   C79     1.391   1_565 S
O439   Zn448   1.967   .     S
O440   Zn448   1.989   .     S
O441   Zn447   1.989   .     S
O442   Zn447   1.940   .     S
O442   C472    1.290   .     S
O443   Zn448   1.940   .     S
O444   Zn448   1.906   .     S
O445   Zn447   1.906   .     S
C449   O496    1.291   .     A
C449   C470    1.414   .     S
C450   C452    1.464   .     S
C450   O501    1.299   .     A
C450   O387    1.295   1_655 S
C451   C457    1.398   .     A
C451   C472    1.450   .     S
C451   C455    1.402   .     A
C452   C458    1.405   .     A
C452   C344    1.404   1_655 S
C453   H482    1.084   .     S
C453   C455    1.392   .     A
C453   C462    1.402   .     A
C454   C463    1.398   .     A
C454   C344    1.391   1_655 S
C454   H371    1.084   1_655 S
C456   H480    1.083   .     S
C457   C459    1.402   .     A
C457   O490    1.385   .     S
C458   C461    1.411   .     A
C458   O502    1.383   .     S
C459   C464    1.411   .     A
C459   C462    1.418   .     A
C460   O497    1.291   .     A
C460   C471    1.414   .     S
C460   O383    1.273   1_655 S
C461   C465    1.410   .     A
C461   C463    1.414   .     A
C462   C972    1.395   .     S
C463   C973    1.394   1_554 S
C464   C467    1.422   .     A
C464   C969    1.406   .     S
C465   C466    1.420   .     A
C465   C968    1.406   1_554 S
C466   C468    1.403   .     A
C466   O491    1.383   .     S
C467   C469    1.403   .     A
C467   O492    1.382   .     S
C468   H473    1.084   .     S
C468   C966    1.395   1_554 S
C469   H479    1.084   .     S
C469   C967    1.394   .     S
C470   C79     1.356   1_565 S
C470   O157    1.391   1_565 S
C471   C190    1.356   1_655 S
C472   O500    1.296   .     A
H474   O490    0.992   .     S
H475   O491    0.992   .     S
H476   O492    0.991   .     S
H477   O157    0.991   1_565 S
H481   C343    1.083   1_655 S
H484   N487    1.029   .     S
H485   N488    1.029   .     S
H486   O502    0.991   .     S
N487   N488    1.287   .     D
N487   Zn504   2.017   .     S
N488   Zn503   2.017   .     S
O489   Zn503   1.967   .     S
O489   C337    1.273   1_655 S
O494   H142    0.991   1_565 S
O494   C135    1.391   1_565 S
O495   Zn504   1.967   .     S
O496   Zn504   1.989   .     S
O497   Zn503   1.989   .     S
O498   Zn503   1.940   .     S
O498   C360    1.290   1_655 S
O499   Zn504   1.940   .     S
O500   Zn504   1.906   .     S
O501   Zn503   1.906   .     S
C505   O552    1.291   .     A
C505   C526    1.414   .     S
C505   O657    1.273   1_455 S
C506   C508    1.464   .     S
C506   O557    1.299   .     A
C506   O611    1.295   .     S
C507   C513    1.398   .     A
C507   C528    1.450   .     S
C507   C511    1.402   .     A
C508   C514    1.405   .     A
C508   C568    1.404   .     S
C509   H538    1.084   .     S
C509   C511    1.392   .     A
C509   C518    1.402   .     A
C510   C519    1.398   .     A
C510   C568    1.391   .     S
C510   H595    1.084   .     S
C511   H649    1.083   1_455 S
C512   H536    1.083   .     S
C512   C620    1.404   1_455 S
C512   C622    1.391   1_455 S
C513   C515    1.402   .     A
C513   O546    1.385   .     S
C514   C517    1.411   .     A
C514   O558    1.383   .     S
C515   C520    1.411   .     A
C515   C518    1.418   .     A
C516   O553    1.291   .     A
C516   C527    1.414   .     S
C516   O607    1.273   .     S
C517   C521    1.410   .     A
C517   C519    1.414   .     A
C518   C20     1.395   1_556 S
C520   C523    1.422   .     A
C520   C17     1.406   1_556 S
C521   C522    1.420   .     A
C522   C524    1.403   .     A
C522   O547    1.383   .     S
C523   C525    1.403   .     A
C523   O548    1.382   .     S
C524   H529    1.084   .     S
C525   H535    1.084   .     S
C525   C15     1.394   1_556 S
C526   C807    1.356   1_455 S
C526   O717    1.391   .     S
C527   C918    1.356   1_545 S
C527   O886    1.391   1_545 S
C528   O556    1.296   .     A
C528   O666    1.290   1_455 S
H530   O546    0.992   .     S
H531   O547    0.992   .     S
H532   O548    0.991   .     S
H533   O717    0.991   .     S
H534   O886    0.991   1_545 S
H537   C567    1.083   .     S
H539   C622    1.084   1_455 S
H540   N543    1.029   .     S
H541   N544    1.029   .     S
H542   O558    0.991   .     S
N543   N544    1.287   .     D
N543   Zn560   2.017   .     S
N544   Zn559   2.017   .     S
O545   Zn559   1.967   .     S
O545   C561    1.273   .     S
O549   C862    1.391   1_545 S
O549   H869    0.991   1_545 S
O550   H702    0.991   .     S
O550   C695    1.391   .     S
O551   Zn560   1.967   .     S
O551   C628    1.273   1_455 S
O552   Zn560   1.989   .     S
O553   Zn559   1.989   .     S
O554   Zn559   1.940   .     S
O554   C584    1.290   .     S
O555   Zn560   1.940   .     S
O555   C618    1.295   1_455 S
O556   Zn560   1.906   .     S
O557   Zn559   1.906   .     S
C561   O608    1.291   .     A
C561   C582    1.414   .     S
C562   C564    1.464   .     S
C562   O613    1.299   .     A
C562   O667    1.295   .     S
C563   C569    1.398   .     A
C563   C584    1.450   .     S
C563   C567    1.402   .     A
C564   C570    1.405   .     A
C564   C624    1.404   .     S
C565   H594    1.084   .     S
C565   C567    1.392   .     A
C565   C574    1.402   .     A
C566   C575    1.398   .     A
C566   C624    1.391   .     S
C566   H651    1.084   .     S
C568   H592    1.083   .     S
C569   C571    1.402   .     A
C569   O602    1.385   .     S
C570   C573    1.411   .     A
C570   O614    1.383   .     S
C571   C576    1.411   .     A
C571   C574    1.418   .     A
C572   O609    1.291   .     A
C572   C583    1.414   .     S
C572   O663    1.273   .     S
C573   C577    1.410   .     A
C573   C575    1.414   .     A
C574   C76     1.395   1_556 S
C576   C579    1.422   .     A
C576   C73     1.406   1_556 S
C577   C578    1.420   .     A
C578   C580    1.403   .     A
C578   O603    1.383   .     S
C579   C581    1.403   .     A
C579   O604    1.382   .     S
C580   H585    1.084   .     S
C581   H591    1.084   .     S
C581   C71     1.394   1_556 S
C582   C695    1.356   .     S
C582   O773    1.391   .     S
C583   C974    1.356   1_545 S
C583   O942    1.391   1_545 S
C584   O612    1.296   .     A
H586   O602    0.992   .     S
H587   O603    0.992   .     S
H588   O604    0.991   .     S
H589   O773    0.991   .     S
H590   O942    0.991   1_545 S
H593   C623    1.083   .     S
H596   N599    1.029   .     S
H597   N600    1.029   .     S
H598   O614    0.991   .     S
N599   N600    1.287   .     D
N599   Zn616   2.017   .     S
N600   Zn615   2.017   .     S
O601   Zn615   1.967   .     S
O601   C617    1.273   .     S
O605   C918    1.391   1_545 S
O605   H925    0.991   1_545 S
O606   H758    0.991   .     S
O606   C751    1.391   .     S
O607   Zn616   1.967   .     S
O608   Zn616   1.989   .     S
O609   Zn615   1.989   .     S
O610   Zn615   1.940   .     S
O610   C640    1.290   .     S
O611   Zn616   1.940   .     S
O612   Zn616   1.906   .     S
O613   Zn615   1.906   .     S
C617   O664    1.291   .     A
C617   C638    1.414   .     S
C618   C620    1.464   .     S
C618   O669    1.299   .     A
C618   O555    1.295   1_655 S
C619   C625    1.398   .     A
C619   C640    1.450   .     S
C619   C623    1.402   .     A
C620   C626    1.405   .     A
C620   C512    1.404   1_655 S
C621   H650    1.084   .     S
C621   C623    1.392   .     A
C621   C630    1.402   .     A
C622   C631    1.398   .     A
C622   C512    1.391   1_655 S
C622   H539    1.084   1_655 S
C624   H648    1.083   .     S
C625   C627    1.402   .     A
C625   O658    1.385   .     S
C626   C629    1.411   .     A
C626   O670    1.383   .     S
C627   C632    1.411   .     A
C627   C630    1.418   .     A
C628   O665    1.291   .     A
C628   C639    1.414   .     S
C628   O551    1.273   1_655 S
C629   C633    1.410   .     A
C629   C631    1.414   .     A
C630   C132    1.395   1_556 S
C632   C635    1.422   .     A
C632   C129    1.406   1_556 S
C633   C634    1.420   .     A
C634   C636    1.403   .     A
C634   O659    1.383   .     S
C635   C637    1.403   .     A
C635   O660    1.382   .     S
C636   H641    1.084   .     S
C637   H647    1.084   .     S
C637   C127    1.394   1_556 S
C638   C751    1.356   .     S
C638   O829    1.391   .     S
C639   C862    1.356   1_645 S
C639   O998    1.391   1_545 S
C640   O668    1.296   .     A
H642   O658    0.992   .     S
H643   O659    0.992   .     S
H644   O660    0.991   .     S
H645   O829    0.991   .     S
H646   O998    0.991   1_545 S
H649   C511    1.083   1_655 S
H652   N655    1.029   .     S
H653   N656    1.029   .     S
H654   O670    0.991   .     S
N655   N656    1.287   .     D
N655   Zn672   2.017   .     S
N656   Zn671   2.017   .     S
O657   Zn671   1.967   .     S
O657   C505    1.273   1_655 S
O661   C974    1.391   1_545 S
O661   H981    0.991   1_545 S
O662   H814    0.991   .     S
O662   C807    1.391   .     S
O663   Zn672   1.967   .     S
O664   Zn672   1.989   .     S
O665   Zn671   1.989   .     S
O666   Zn671   1.940   .     S
O666   C528    1.290   1_655 S
O667   Zn672   1.940   .     S
O668   Zn672   1.906   .     S
O669   Zn671   1.906   .     S
C673   O720    1.291   .     A
C673   C694    1.414   .     S
C673   O825    1.273   1_455 S
C674   C676    1.464   .     S
C674   O725    1.299   .     A
C674   O779    1.295   .     S
C675   C681    1.398   .     A
C675   C696    1.450   .     S
C675   C679    1.402   .     A
C676   C682    1.405   .     A
C676   C736    1.404   .     S
C677   H706    1.084   .     S
C677   C679    1.392   .     A
C677   C686    1.402   .     A
C678   C687    1.398   .     A
C678   C736    1.391   .     S
C678   H763    1.084   .     S
C679   H817    1.083   1_455 S
C680   H704    1.083   .     S
C680   C788    1.404   1_455 S
C680   C790    1.391   1_455 S
C681   C683    1.402   .     A
C681   O714    1.385   .     S
C682   C685    1.411   .     A
C682   O726    1.383   .     S
C683   C688    1.411   .     A
C683   C686    1.418   .     A
C684   O721    1.291   .     A
C684   C695    1.414   .     S
C684   O775    1.273   .     S
C685   C689    1.410   .     A
C685   C687    1.414   .     A
C686   C188    1.395   1_556 S
C688   C691    1.422   .     A
C688   C185    1.406   1_556 S
C689   C690    1.420   .     A
C690   C692    1.403   .     A
C690   O715    1.383   .     S
C691   C693    1.403   .     A
C691   O716    1.382   .     S
C692   H697    1.084   .     S
C693   H703    1.084   .     S
C693   C183    1.394   1_556 S
C694   C975    1.356   1_455 S
C694   O885    1.391   .     S
C696   O724    1.296   .     A
C696   O834    1.290   1_455 S
H698   O714    0.992   .     S
H699   O715    0.992   .     S
H700   O716    0.991   .     S
H701   O885    0.991   .     S
H705   C735    1.083   .     S
H707   C790    1.084   1_455 S
H708   N711    1.029   .     S
H709   N712    1.029   .     S
H710   O726    0.991   .     S
N711   N712    1.287   .     D
N711   Zn728   2.017   .     S
N712   Zn727   2.017   .     S
O713   Zn727   1.967   .     S
O713   C729    1.273   .     S
O718   H870    0.991   .     S
O718   C863    1.391   .     S
O719   Zn728   1.967   .     S
O719   C796    1.273   1_455 S
O720   Zn728   1.989   .     S
O721   Zn727   1.989   .     S
O722   Zn727   1.940   .     S
O722   C752    1.290   .     S
O723   Zn728   1.940   .     S
O723   C786    1.295   1_455 S
O724   Zn728   1.906   .     S
O725   Zn727   1.906   .     S
C729   O776    1.291   .     A
C729   C750    1.414   .     S
C730   C732    1.464   .     S
C730   O781    1.299   .     A
C730   O835    1.295   .     S
C731   C737    1.398   .     A
C731   C752    1.450   .     S
C731   C735    1.402   .     A
C732   C738    1.405   .     A
C732   C792    1.404   .     S
C733   H762    1.084   .     S
C733   C735    1.392   .     A
C733   C742    1.402   .     A
C734   C743    1.398   .     A
C734   C792    1.391   .     S
C734   H819    1.084   .     S
C736   H760    1.083   .     S
C737   C739    1.402   .     A
C737   O770    1.385   .     S
C738   C741    1.411   .     A
C738   O782    1.383   .     S
C739   C744    1.411   .     A
C739   C742    1.418   .     A
C740   O777    1.291   .     A
C740   C751    1.414   .     S
C740   O831    1.273   .     S
C741   C745    1.410   .     A
C741   C743    1.414   .     A
C742   C244    1.395   1_556 S
C744   C747    1.422   .     A
C744   C241    1.406   1_556 S
C745   C746    1.420   .     A
C746   C748    1.403   .     A
C746   O771    1.383   .     S
C747   C749    1.403   .     A
C747   O772    1.382   .     S
C748   H753    1.084   .     S
C749   H759    1.084   .     S
C749   C239    1.394   1_556 S
C750   C863    1.356   .     S
C750   O941    1.391   .     S
C752   O780    1.296   .     A
H754   O770    0.992   .     S
H755   O771    0.992   .     S
H756   O772    0.991   .     S
H757   O941    0.991   .     S
H761   C791    1.083   .     S
H764   N767    1.029   .     S
H765   N768    1.029   .     S
H766   O782    0.991   .     S
N767   N768    1.287   .     D
N767   Zn784   2.017   .     S
N768   Zn783   2.017   .     S
O769   Zn783   1.967   .     S
O769   C785    1.273   .     S
O774   H926    0.991   .     S
O774   C919    1.391   .     S
O775   Zn784   1.967   .     S
O776   Zn784   1.989   .     S
O777   Zn783   1.989   .     S
O778   Zn783   1.940   .     S
O778   C808    1.290   .     S
O779   Zn784   1.940   .     S
O780   Zn784   1.906   .     S
O781   Zn783   1.906   .     S
C785   O832    1.291   .     A
C785   C806    1.414   .     S
C786   C788    1.464   .     S
C786   O837    1.299   .     A
C786   O723    1.295   1_655 S
C787   C793    1.398   .     A
C787   C808    1.450   .     S
C787   C791    1.402   .     A
C788   C794    1.405   .     A
C788   C680    1.404   1_655 S
C789   H818    1.084   .     S
C789   C791    1.392   .     A
C789   C798    1.402   .     A
C790   C799    1.398   .     A
C790   C680    1.391   1_655 S
C790   H707    1.084   1_655 S
C792   H816    1.083   .     S
C793   C795    1.402   .     A
C793   O826    1.385   .     S
C794   C797    1.411   .     A
C794   O838    1.383   .     S
C795   C800    1.411   .     A
C795   C798    1.418   .     A
C796   O833    1.291   .     A
C796   C807    1.414   .     S
C796   O719    1.273   1_655 S
C797   C801    1.410   .     A
C797   C799    1.414   .     A
C798   C300    1.395   1_556 S
C800   C803    1.422   .     A
C800   C297    1.406   1_556 S
C801   C802    1.420   .     A
C802   C804    1.403   .     A
C802   O827    1.383   .     S
C803   C805    1.403   .     A
C803   O828    1.382   .     S
C804   H809    1.084   .     S
C805   H815    1.084   .     S
C805   C295    1.394   1_556 S
C806   C919    1.356   .     S
C806   O997    1.391   .     S
C807   C526    1.356   1_655 S
C808   O836    1.296   .     A
H810   O826    0.992   .     S
H811   O827    0.992   .     S
H812   O828    0.991   .     S
H813   O997    0.991   .     S
H817   C679    1.083   1_655 S
H820   N823    1.029   .     S
H821   N824    1.029   .     S
H822   O838    0.991   .     S
N823   N824    1.287   .     D
N823   Zn840   2.017   .     S
N824   Zn839   2.017   .     S
O825   Zn839   1.967   .     S
O825   C673    1.273   1_655 S
O830   H982    0.991   .     S
O830   C975    1.391   .     S
O831   Zn840   1.967   .     S
O832   Zn840   1.989   .     S
O833   Zn839   1.989   .     S
O834   Zn839   1.940   .     S
O834   C696    1.290   1_655 S
O835   Zn840   1.940   .     S
O836   Zn840   1.906   .     S
O837   Zn839   1.906   .     S
C841   O888    1.291   .     A
C841   C862    1.414   .     S
C841   O993    1.273   1_455 S
C842   C844    1.464   .     S
C842   O893    1.299   .     A
C842   O947    1.295   .     S
C843   C849    1.398   .     A
C843   C864    1.450   .     S
C843   C847    1.402   .     A
C844   C850    1.405   .     A
C844   C904    1.404   .     S
C845   H874    1.084   .     S
C845   C847    1.392   .     A
C845   C854    1.402   .     A
C846   C855    1.398   .     A
C846   C904    1.391   .     S
C846   H931    1.084   .     S
C847   H985    1.083   1_455 S
C848   H872    1.083   .     S
C848   C956    1.404   1_455 S
C848   C958    1.391   1_455 S
C849   C851    1.402   .     A
C849   O882    1.385   .     S
C850   C853    1.411   .     A
C850   O894    1.383   .     S
C851   C856    1.411   .     A
C851   C854    1.418   .     A
C852   O889    1.291   .     A
C852   C863    1.414   .     S
C852   O943    1.273   .     S
C853   C857    1.410   .     A
C853   C855    1.414   .     A
C854   C356    1.395   1_556 S
C856   C859    1.422   .     A
C856   C353    1.406   1_556 S
C857   C858    1.420   .     A
C858   C860    1.403   .     A
C858   O883    1.383   .     S
C859   C861    1.403   .     A
C859   O884    1.382   .     S
C860   H865    1.084   .     S
C861   H871    1.084   .     S
C861   C351    1.394   1_556 S
C862   C639    1.356   1_465 S
C862   O549    1.391   1_565 S
C864   O892    1.296   .     A
C864   O1002   1.290   1_455 S
H866   O882    0.992   .     S
H867   O883    0.992   .     S
H868   O884    0.991   .     S
H869   O549    0.991   1_565 S
H873   C903    1.083   .     S
H875   C958    1.084   1_455 S
H876   N879    1.029   .     S
H877   N880    1.029   .     S
H878   O894    0.991   .     S
N879   N880    1.287   .     D
N879   Zn896   2.017   .     S
N880   Zn895   2.017   .     S
O881   Zn895   1.967   .     S
O881   C897    1.273   .     S
O886   H534    0.991   1_565 S
O886   C527    1.391   1_565 S
O887   Zn896   1.967   .     S
O887   C964    1.273   1_455 S
O888   Zn896   1.989   .     S
O889   Zn895   1.989   .     S
O890   Zn895   1.940   .     S
O890   C920    1.290   .     S
O891   Zn896   1.940   .     S
O891   C954    1.295   1_455 S
O892   Zn896   1.906   .     S
O893   Zn895   1.906   .     S
C897   O944    1.291   .     A
C897   C918    1.414   .     S
C898   C900    1.464   .     S
C898   O949    1.299   .     A
C898   O1003   1.295   .     S
C899   C905    1.398   .     A
C899   C920    1.450   .     S
C899   C903    1.402   .     A
C900   C906    1.405   .     A
C900   C960    1.404   .     S
C901   H930    1.084   .     S
C901   C903    1.392   .     A
C901   C910    1.402   .     A
C902   C911    1.398   .     A
C902   C960    1.391   .     S
C902   H987    1.084   .     S
C904   H928    1.083   .     S
C905   C907    1.402   .     A
C905   O938    1.385   .     S
C906   C909    1.411   .     A
C906   O950    1.383   .     S
C907   C912    1.411   .     A
C907   C910    1.418   .     A
C908   O945    1.291   .     A
C908   C919    1.414   .     S
C908   O999    1.273   .     S
C909   C913    1.410   .     A
C909   C911    1.414   .     A
C910   C412    1.395   1_556 S
C912   C915    1.422   .     A
C912   C409    1.406   1_556 S
C913   C914    1.420   .     A
C914   C916    1.403   .     A
C914   O939    1.383   .     S
C915   C917    1.403   .     A
C915   O940    1.382   .     S
C916   H921    1.084   .     S
C917   H927    1.084   .     S
C917   C407    1.394   1_556 S
C918   C527    1.356   1_565 S
C918   O605    1.391   1_565 S
C920   O948    1.296   .     A
H922   O938    0.992   .     S
H923   O939    0.992   .     S
H924   O940    0.991   .     S
H925   O605    0.991   1_565 S
H929   C959    1.083   .     S
H932   N935    1.029   .     S
H933   N936    1.029   .     S
H934   O950    0.991   .     S
N935   N936    1.287   .     D
N935   Zn952   2.017   .     S
N936   Zn951   2.017   .     S
O937   Zn951   1.967   .     S
O937   C953    1.273   .     S
O942   H590    0.991   1_565 S
O942   C583    1.391   1_565 S
O943   Zn952   1.967   .     S
O944   Zn952   1.989   .     S
O945   Zn951   1.989   .     S
O946   Zn951   1.940   .     S
O946   C976    1.290   .     S
O947   Zn952   1.940   .     S
O948   Zn952   1.906   .     S
O949   Zn951   1.906   .     S
C953   O1000   1.291   .     A
C953   C974    1.414   .     S
C954   C956    1.464   .     S
C954   O1005   1.299   .     A
C954   O891    1.295   1_655 S
C955   C961    1.398   .     A
C955   C976    1.450   .     S
C955   C959    1.402   .     A
C956   C962    1.405   .     A
C956   C848    1.404   1_655 S
C957   H986    1.084   .     S
C957   C959    1.392   .     A
C957   C966    1.402   .     A
C958   C967    1.398   .     A
C958   C848    1.391   1_655 S
C958   H875    1.084   1_655 S
C960   H984    1.083   .     S
C961   C963    1.402   .     A
C961   O994    1.385   .     S
C962   C965    1.411   .     A
C962   O1006   1.383   .     S
C963   C968    1.411   .     A
C963   C966    1.418   .     A
C964   O1001   1.291   .     A
C964   C975    1.414   .     S
C964   O887    1.273   1_655 S
C965   C969    1.410   .     A
C965   C967    1.414   .     A
C966   C468    1.395   1_556 S
C968   C971    1.422   .     A
C968   C465    1.406   1_556 S
C969   C970    1.420   .     A
C970   C972    1.403   .     A
C970   O995    1.383   .     S
C971   C973    1.403   .     A
C971   O996    1.382   .     S
C972   H977    1.084   .     S
C973   H983    1.084   .     S
C973   C463    1.394   1_556 S
C974   C583    1.356   1_565 S
C974   O661    1.391   1_565 S
C975   C694    1.356   1_655 S
C976   O1004   1.296   .     A
H978   O994    0.992   .     S
H979   O995    0.992   .     S
H980   O996    0.991   .     S
H981   O661    0.991   1_565 S
H985   C847    1.083   1_655 S
H988   N991    1.029   .     S
H989   N992    1.029   .     S
H990   O1006   0.991   .     S
N991   N992    1.287   .     D
N991   Zn1008  2.017   .     S
N992   Zn1007  2.017   .     S
O993   Zn1007  1.967   .     S
O993   C841    1.273   1_655 S
O998   H646    0.991   1_565 S
O998   C639    1.391   1_565 S
O999   Zn1008  1.967   .     S
O1000  Zn1008  1.989   .     S
O1001  Zn1007  1.989   .     S
O1002  Zn1007  1.940   .     S
O1002  C864    1.290   1_655 S
O1003  Zn1008  1.940   .     S
O1004  Zn1008  1.906   .     S
O1005  Zn1007  1.906   .     S
