data_str_m1_o10_o16_pcu_sym.239
_audit_creation_date              2020-01-03
_audit_creation_method            'Materials Studio'
_symmetry_space_group_name_H-M    'P1'
_symmetry_Int_Tables_number       1
_symmetry_cell_setting            triclinic
loop_
_symmetry_equiv_pos_as_xyz
  x,y,z
_cell_length_a                    32.6695
_cell_length_b                    32.4249
_cell_length_c                    31.0108
_cell_angle_alpha                 96.5906
_cell_angle_beta                  75.2235
_cell_angle_gamma                 98.3418
loop_
_atom_site_label
_atom_site_type_symbol
_atom_site_fract_x
_atom_site_fract_y
_atom_site_fract_z
_atom_site_U_iso_or_equiv
_atom_site_adp_type
_atom_site_occupancy
Br1    Br    0.30903   0.12611   0.31564   0.00000  Uiso   1.00
Br2    Br    0.17269   0.01960   0.01662   0.00000  Uiso   1.00
Br3    Br    0.11334   0.27427   0.41351   0.00000  Uiso   1.00
C4     C     0.05306   0.16001   0.25945   0.00000  Uiso   1.00
C5     C     0.18913   0.16601   0.05175   0.00000  Uiso   1.00
C6     C     0.18908   0.09452   0.06716   0.00000  Uiso   1.00
C7     C     0.28059   0.17355   0.24037   0.00000  Uiso   1.00
C8     C     0.14134   0.19249   0.42055   0.00000  Uiso   1.00
C9     C     0.32598   0.17513   0.23702   0.00000  Uiso   1.00
C10    C     0.00794   0.15642   0.26521   0.00000  Uiso   1.00
C11    C     0.18027   0.32247   0.23673   0.00000  Uiso   1.00
C12    C     0.15182   0.01173   0.26399   0.00000  Uiso   1.00
C13    C     0.15601   0.05586   0.26034   0.00000  Uiso   1.00
C14    C     0.17652   0.27784   0.24025   0.00000  Uiso   1.00
C15    C     0.12479   0.23938   0.48805   0.00000  Uiso   1.00
C16    C     0.18477   0.14811   0.12927   0.00000  Uiso   1.00
C17    C     0.14823   0.18436   0.37121   0.00000  Uiso   1.00
C18    C     0.18368   0.07968   0.02493   0.00000  Uiso   1.00
C19    C     0.19136   0.13710   0.08108   0.00000  Uiso   1.00
C20    C     0.12769   0.23084   0.44250   0.00000  Uiso   1.00
C21    C     0.18589   0.05616   0.42632   0.00000  Uiso   1.00
C22    C     0.20508   0.21081   0.06056   0.00000  Uiso   1.00
C23    C     0.13918   0.21287   0.01145   0.00000  Uiso   1.00
C24    C     0.15680   0.17652   0.48984   0.00000  Uiso   1.00
C25    C     0.15193   0.16354   0.44618   0.00000  Uiso   1.00
C26    C     0.17523   0.15085   0.01225   0.00000  Uiso   1.00
C27    C     0.17806   0.10803   0.49581   0.00000  Uiso   1.00
C28    C     0.17212   0.09504   0.45239   0.00000  Uiso   1.00
C29    C     0.15726   0.12192   0.42956   0.00000  Uiso   1.00
H30    H     0.18956   0.07218   0.09047   0.00000  Uiso   1.00
H31    H     0.20643   0.00374   0.21175   0.00000  Uiso   1.00
H32    H     0.12529   0.33130   0.28911   0.00000  Uiso   1.00
H33    H     0.13517   0.22073   0.04697   0.00000  Uiso   1.00
H34    H     0.11243   0.26759   0.00539   0.00000  Uiso   1.00
H35    H     0.14910   0.10908   0.39873   0.00000  Uiso   1.00
H36    H     0.01463   0.19210   0.21047   0.00000  Uiso   1.00
H37    H     0.16685   0.03862   0.40478   0.00000  Uiso   1.00
H38    H     0.20104   0.22535   0.09435   0.00000  Uiso   1.00
O39    O     0.16667   0.16667   0.25000   0.00000  Uiso   1.00
O40    O     0.15451   0.12637   0.15458   0.00000  Uiso   1.00
O41    O     0.12940   0.20391   0.34968   0.00000  Uiso   1.00
O42    O     0.20824   0.17759   0.14606   0.00000  Uiso   1.00
O43    O     0.17451   0.15880   0.34968   0.00000  Uiso   1.00
O44    O     0.22022   0.04524   0.42595   0.00000  Uiso   1.00
O45    O     0.22390   0.23185   0.02963   0.00000  Uiso   1.00
O46    O     0.17930   0.08019   0.28213   0.00000  Uiso   1.00
O47    O     0.14632   0.26085   0.27013   0.00000  Uiso   1.00
O48    O     0.07412   0.13291   0.23413   0.00000  Uiso   1.00
O49    O     0.26693   0.19272   0.21360   0.00000  Uiso   1.00
O50    O     0.07071   0.18878   0.28213   0.00000  Uiso   1.00
O51    O     0.25491   0.15226   0.27013   0.00000  Uiso   1.00
O52    O     0.13760   0.06944   0.23413   0.00000  Uiso   1.00
O53    O     0.20345   0.25620   0.21360   0.00000  Uiso   1.00
Zn54   Zn    0.19338   0.13994   0.28734   0.00000  Uiso   1.00
Zn55   Zn    0.13379   0.12458   0.21875   0.00000  Uiso   1.00
Zn56   Zn    0.21056   0.19775   0.20657   0.00000  Uiso   1.00
Zn57   Zn    0.12893   0.20439   0.28733   0.00000  Uiso   1.00
Br58   Br    0.64237   0.12611   0.31564   0.00000  Uiso   1.00
Br59   Br    0.50602   0.01960   0.01662   0.00000  Uiso   1.00
Br60   Br    0.44668   0.27427   0.41351   0.00000  Uiso   1.00
C61    C     0.38640   0.16001   0.25945   0.00000  Uiso   1.00
C62    C     0.52246   0.16601   0.05175   0.00000  Uiso   1.00
C63    C     0.52242   0.09452   0.06716   0.00000  Uiso   1.00
C64    C     0.61392   0.17355   0.24037   0.00000  Uiso   1.00
C65    C     0.47468   0.19249   0.42055   0.00000  Uiso   1.00
C66    C     0.65931   0.17513   0.23702   0.00000  Uiso   1.00
C67    C     0.34128   0.15642   0.26521   0.00000  Uiso   1.00
C68    C     0.51360   0.32247   0.23673   0.00000  Uiso   1.00
C69    C     0.48516   0.01173   0.26399   0.00000  Uiso   1.00
C70    C     0.48934   0.05586   0.26034   0.00000  Uiso   1.00
C71    C     0.50985   0.27784   0.24025   0.00000  Uiso   1.00
C72    C     0.45813   0.23938   0.48805   0.00000  Uiso   1.00
C73    C     0.51811   0.14811   0.12927   0.00000  Uiso   1.00
C74    C     0.48156   0.18436   0.37121   0.00000  Uiso   1.00
C75    C     0.51702   0.07968   0.02493   0.00000  Uiso   1.00
C76    C     0.52470   0.13710   0.08108   0.00000  Uiso   1.00
C77    C     0.46102   0.23084   0.44250   0.00000  Uiso   1.00
C78    C     0.51922   0.05616   0.42632   0.00000  Uiso   1.00
C79    C     0.53841   0.21081   0.06056   0.00000  Uiso   1.00
C80    C     0.47251   0.21287   0.01145   0.00000  Uiso   1.00
C81    C     0.49013   0.17652   0.48984   0.00000  Uiso   1.00
C82    C     0.48526   0.16354   0.44618   0.00000  Uiso   1.00
C83    C     0.50856   0.15085   0.01225   0.00000  Uiso   1.00
C84    C     0.51140   0.10803   0.49581   0.00000  Uiso   1.00
C85    C     0.50545   0.09504   0.45239   0.00000  Uiso   1.00
C86    C     0.49060   0.12192   0.42956   0.00000  Uiso   1.00
H87    H     0.52290   0.07218   0.09047   0.00000  Uiso   1.00
H88    H     0.53976   0.00374   0.21175   0.00000  Uiso   1.00
H89    H     0.45862   0.33130   0.28911   0.00000  Uiso   1.00
H90    H     0.46850   0.22073   0.04697   0.00000  Uiso   1.00
H91    H     0.44577   0.26759   0.00539   0.00000  Uiso   1.00
H92    H     0.48243   0.10908   0.39873   0.00000  Uiso   1.00
H93    H     0.34796   0.19210   0.21047   0.00000  Uiso   1.00
H94    H     0.50018   0.03862   0.40478   0.00000  Uiso   1.00
H95    H     0.53437   0.22535   0.09435   0.00000  Uiso   1.00
O96    O     0.50000   0.16667   0.25000   0.00000  Uiso   1.00
O97    O     0.48784   0.12637   0.15458   0.00000  Uiso   1.00
O98    O     0.46274   0.20391   0.34968   0.00000  Uiso   1.00
O99    O     0.54157   0.17759   0.14606   0.00000  Uiso   1.00
O100   O     0.50785   0.15880   0.34968   0.00000  Uiso   1.00
O101   O     0.55355   0.04524   0.42595   0.00000  Uiso   1.00
O102   O     0.55724   0.23185   0.02963   0.00000  Uiso   1.00
O103   O     0.51264   0.08019   0.28213   0.00000  Uiso   1.00
O104   O     0.47965   0.26085   0.27013   0.00000  Uiso   1.00
O105   O     0.40745   0.13291   0.23413   0.00000  Uiso   1.00
O106   O     0.60026   0.19272   0.21360   0.00000  Uiso   1.00
O107   O     0.40405   0.18878   0.28213   0.00000  Uiso   1.00
O108   O     0.58824   0.15226   0.27013   0.00000  Uiso   1.00
O109   O     0.47093   0.06944   0.23413   0.00000  Uiso   1.00
O110   O     0.53678   0.25620   0.21360   0.00000  Uiso   1.00
Zn111  Zn    0.52672   0.13994   0.28734   0.00000  Uiso   1.00
Zn112  Zn    0.46713   0.12458   0.21875   0.00000  Uiso   1.00
Zn113  Zn    0.54389   0.19775   0.20657   0.00000  Uiso   1.00
Zn114  Zn    0.46226   0.20439   0.28733   0.00000  Uiso   1.00
Br115  Br    0.97570   0.12611   0.31564   0.00000  Uiso   1.00
Br116  Br    0.83936   0.01960   0.01662   0.00000  Uiso   1.00
Br117  Br    0.78001   0.27427   0.41351   0.00000  Uiso   1.00
C118   C     0.71973   0.16001   0.25945   0.00000  Uiso   1.00
C119   C     0.85579   0.16601   0.05175   0.00000  Uiso   1.00
C120   C     0.85575   0.09452   0.06716   0.00000  Uiso   1.00
C121   C     0.94726   0.17355   0.24037   0.00000  Uiso   1.00
C122   C     0.80801   0.19249   0.42055   0.00000  Uiso   1.00
C123   C     0.99265   0.17513   0.23702   0.00000  Uiso   1.00
C124   C     0.67461   0.15642   0.26521   0.00000  Uiso   1.00
C125   C     0.84694   0.32247   0.23673   0.00000  Uiso   1.00
C126   C     0.81849   0.01173   0.26399   0.00000  Uiso   1.00
C127   C     0.82267   0.05586   0.26034   0.00000  Uiso   1.00
C128   C     0.84318   0.27784   0.24025   0.00000  Uiso   1.00
C129   C     0.79146   0.23938   0.48805   0.00000  Uiso   1.00
C130   C     0.85144   0.14811   0.12927   0.00000  Uiso   1.00
C131   C     0.81490   0.18436   0.37121   0.00000  Uiso   1.00
C132   C     0.85035   0.07968   0.02493   0.00000  Uiso   1.00
C133   C     0.85803   0.13710   0.08108   0.00000  Uiso   1.00
C134   C     0.79436   0.23084   0.44250   0.00000  Uiso   1.00
C135   C     0.85255   0.05616   0.42632   0.00000  Uiso   1.00
C136   C     0.87174   0.21081   0.06056   0.00000  Uiso   1.00
C137   C     0.80584   0.21287   0.01145   0.00000  Uiso   1.00
C138   C     0.82347   0.17652   0.48984   0.00000  Uiso   1.00
C139   C     0.81860   0.16354   0.44618   0.00000  Uiso   1.00
C140   C     0.84190   0.15085   0.01225   0.00000  Uiso   1.00
C141   C     0.84473   0.10803   0.49581   0.00000  Uiso   1.00
C142   C     0.83879   0.09504   0.45239   0.00000  Uiso   1.00
C143   C     0.82393   0.12192   0.42956   0.00000  Uiso   1.00
H144   H     0.85623   0.07218   0.09047   0.00000  Uiso   1.00
H145   H     0.87309   0.00374   0.21175   0.00000  Uiso   1.00
H146   H     0.79195   0.33130   0.28911   0.00000  Uiso   1.00
H147   H     0.80184   0.22073   0.04697   0.00000  Uiso   1.00
H148   H     0.77910   0.26759   0.00539   0.00000  Uiso   1.00
H149   H     0.81576   0.10908   0.39873   0.00000  Uiso   1.00
H150   H     0.68130   0.19210   0.21047   0.00000  Uiso   1.00
H151   H     0.83351   0.03862   0.40478   0.00000  Uiso   1.00
H152   H     0.86770   0.22535   0.09435   0.00000  Uiso   1.00
O153   O     0.83333   0.16667   0.25000   0.00000  Uiso   1.00
O154   O     0.82118   0.12637   0.15458   0.00000  Uiso   1.00
O155   O     0.79607   0.20391   0.34968   0.00000  Uiso   1.00
O156   O     0.87491   0.17759   0.14606   0.00000  Uiso   1.00
O157   O     0.84118   0.15880   0.34968   0.00000  Uiso   1.00
O158   O     0.88688   0.04524   0.42595   0.00000  Uiso   1.00
O159   O     0.89057   0.23185   0.02963   0.00000  Uiso   1.00
O160   O     0.84597   0.08019   0.28213   0.00000  Uiso   1.00
O161   O     0.81298   0.26085   0.27013   0.00000  Uiso   1.00
O162   O     0.74078   0.13291   0.23413   0.00000  Uiso   1.00
O163   O     0.93360   0.19272   0.21360   0.00000  Uiso   1.00
O164   O     0.73738   0.18878   0.28213   0.00000  Uiso   1.00
O165   O     0.92158   0.15226   0.27013   0.00000  Uiso   1.00
O166   O     0.80426   0.06944   0.23413   0.00000  Uiso   1.00
O167   O     0.87012   0.25620   0.21360   0.00000  Uiso   1.00
Zn168  Zn    0.86005   0.13994   0.28734   0.00000  Uiso   1.00
Zn169  Zn    0.80046   0.12458   0.21875   0.00000  Uiso   1.00
Zn170  Zn    0.87723   0.19775   0.20657   0.00000  Uiso   1.00
Zn171  Zn    0.79560   0.20439   0.28733   0.00000  Uiso   1.00
Br172  Br    0.30903   0.45944   0.31564   0.00000  Uiso   1.00
Br173  Br    0.17269   0.35293   0.01662   0.00000  Uiso   1.00
Br174  Br    0.11334   0.60761   0.41351   0.00000  Uiso   1.00
C175   C     0.05306   0.49334   0.25945   0.00000  Uiso   1.00
C176   C     0.18913   0.49935   0.05175   0.00000  Uiso   1.00
C177   C     0.18908   0.42785   0.06716   0.00000  Uiso   1.00
C178   C     0.28059   0.50688   0.24037   0.00000  Uiso   1.00
C179   C     0.14134   0.52583   0.42055   0.00000  Uiso   1.00
C180   C     0.32598   0.50846   0.23702   0.00000  Uiso   1.00
C181   C     0.00794   0.48975   0.26521   0.00000  Uiso   1.00
C182   C     0.18027   0.65580   0.23673   0.00000  Uiso   1.00
C183   C     0.15182   0.34506   0.26399   0.00000  Uiso   1.00
C184   C     0.15601   0.38920   0.26034   0.00000  Uiso   1.00
C185   C     0.17652   0.61118   0.24025   0.00000  Uiso   1.00
C186   C     0.12479   0.57272   0.48805   0.00000  Uiso   1.00
C187   C     0.18477   0.48144   0.12927   0.00000  Uiso   1.00
C188   C     0.14823   0.51769   0.37121   0.00000  Uiso   1.00
C189   C     0.18368   0.41302   0.02493   0.00000  Uiso   1.00
C190   C     0.19136   0.47043   0.08108   0.00000  Uiso   1.00
C191   C     0.12769   0.56417   0.44250   0.00000  Uiso   1.00
C192   C     0.18589   0.38950   0.42632   0.00000  Uiso   1.00
C193   C     0.20508   0.54414   0.06056   0.00000  Uiso   1.00
C194   C     0.13918   0.54621   0.01145   0.00000  Uiso   1.00
C195   C     0.15680   0.50985   0.48984   0.00000  Uiso   1.00
C196   C     0.15193   0.49687   0.44618   0.00000  Uiso   1.00
C197   C     0.17523   0.48418   0.01225   0.00000  Uiso   1.00
C198   C     0.17806   0.44136   0.49581   0.00000  Uiso   1.00
C199   C     0.17212   0.42837   0.45239   0.00000  Uiso   1.00
C200   C     0.15726   0.45526   0.42956   0.00000  Uiso   1.00
H201   H     0.18956   0.40551   0.09047   0.00000  Uiso   1.00
H202   H     0.20643   0.33707   0.21175   0.00000  Uiso   1.00
H203   H     0.12529   0.66464   0.28911   0.00000  Uiso   1.00
H204   H     0.13517   0.55406   0.04697   0.00000  Uiso   1.00
H205   H     0.11243   0.60092   0.00539   0.00000  Uiso   1.00
H206   H     0.14910   0.44241   0.39873   0.00000  Uiso   1.00
H207   H     0.01463   0.52543   0.21047   0.00000  Uiso   1.00
H208   H     0.16685   0.37196   0.40478   0.00000  Uiso   1.00
H209   H     0.20104   0.55868   0.09435   0.00000  Uiso   1.00
O210   O     0.16667   0.50000   0.25000   0.00000  Uiso   1.00
O211   O     0.15451   0.45970   0.15458   0.00000  Uiso   1.00
O212   O     0.12940   0.53724   0.34968   0.00000  Uiso   1.00
O213   O     0.20824   0.51092   0.14606   0.00000  Uiso   1.00
O214   O     0.17451   0.49213   0.34968   0.00000  Uiso   1.00
O215   O     0.22022   0.37857   0.42595   0.00000  Uiso   1.00
O216   O     0.22390   0.56519   0.02963   0.00000  Uiso   1.00
O217   O     0.17930   0.41352   0.28213   0.00000  Uiso   1.00
O218   O     0.14632   0.59418   0.27013   0.00000  Uiso   1.00
O219   O     0.07412   0.46625   0.23413   0.00000  Uiso   1.00
O220   O     0.26693   0.52605   0.21360   0.00000  Uiso   1.00
O221   O     0.07071   0.52211   0.28213   0.00000  Uiso   1.00
O222   O     0.25491   0.48559   0.27013   0.00000  Uiso   1.00
O223   O     0.13760   0.40277   0.23413   0.00000  Uiso   1.00
O224   O     0.20345   0.58953   0.21360   0.00000  Uiso   1.00
Zn225  Zn    0.19338   0.47327   0.28734   0.00000  Uiso   1.00
Zn226  Zn    0.13379   0.45791   0.21875   0.00000  Uiso   1.00
Zn227  Zn    0.21056   0.53109   0.20657   0.00000  Uiso   1.00
Zn228  Zn    0.12893   0.53773   0.28733   0.00000  Uiso   1.00
Br229  Br    0.64237   0.45944   0.31564   0.00000  Uiso   1.00
Br230  Br    0.50602   0.35293   0.01662   0.00000  Uiso   1.00
Br231  Br    0.44668   0.60761   0.41351   0.00000  Uiso   1.00
C232   C     0.38640   0.49334   0.25945   0.00000  Uiso   1.00
C233   C     0.52246   0.49935   0.05175   0.00000  Uiso   1.00
C234   C     0.52242   0.42785   0.06716   0.00000  Uiso   1.00
C235   C     0.61392   0.50688   0.24037   0.00000  Uiso   1.00
C236   C     0.47468   0.52583   0.42055   0.00000  Uiso   1.00
C237   C     0.65931   0.50846   0.23702   0.00000  Uiso   1.00
C238   C     0.34128   0.48975   0.26521   0.00000  Uiso   1.00
C239   C     0.51360   0.65580   0.23673   0.00000  Uiso   1.00
C240   C     0.48516   0.34506   0.26399   0.00000  Uiso   1.00
C241   C     0.48934   0.38920   0.26034   0.00000  Uiso   1.00
C242   C     0.50985   0.61118   0.24025   0.00000  Uiso   1.00
C243   C     0.45813   0.57272   0.48805   0.00000  Uiso   1.00
C244   C     0.51811   0.48144   0.12927   0.00000  Uiso   1.00
C245   C     0.48156   0.51769   0.37121   0.00000  Uiso   1.00
C246   C     0.51702   0.41302   0.02493   0.00000  Uiso   1.00
C247   C     0.52470   0.47043   0.08108   0.00000  Uiso   1.00
C248   C     0.46102   0.56417   0.44250   0.00000  Uiso   1.00
C249   C     0.51922   0.38950   0.42632   0.00000  Uiso   1.00
C250   C     0.53841   0.54414   0.06056   0.00000  Uiso   1.00
C251   C     0.47251   0.54621   0.01145   0.00000  Uiso   1.00
C252   C     0.49013   0.50985   0.48984   0.00000  Uiso   1.00
C253   C     0.48526   0.49687   0.44618   0.00000  Uiso   1.00
C254   C     0.50856   0.48418   0.01225   0.00000  Uiso   1.00
C255   C     0.51140   0.44136   0.49581   0.00000  Uiso   1.00
C256   C     0.50545   0.42837   0.45239   0.00000  Uiso   1.00
C257   C     0.49060   0.45526   0.42956   0.00000  Uiso   1.00
H258   H     0.52290   0.40551   0.09047   0.00000  Uiso   1.00
H259   H     0.53976   0.33707   0.21175   0.00000  Uiso   1.00
H260   H     0.45862   0.66464   0.28911   0.00000  Uiso   1.00
H261   H     0.46850   0.55406   0.04697   0.00000  Uiso   1.00
H262   H     0.44577   0.60092   0.00539   0.00000  Uiso   1.00
H263   H     0.48243   0.44241   0.39873   0.00000  Uiso   1.00
H264   H     0.34796   0.52543   0.21047   0.00000  Uiso   1.00
H265   H     0.50018   0.37196   0.40478   0.00000  Uiso   1.00
H266   H     0.53437   0.55868   0.09435   0.00000  Uiso   1.00
O267   O     0.50000   0.50000   0.25000   0.00000  Uiso   1.00
O268   O     0.48784   0.45970   0.15458   0.00000  Uiso   1.00
O269   O     0.46274   0.53724   0.34968   0.00000  Uiso   1.00
O270   O     0.54157   0.51092   0.14606   0.00000  Uiso   1.00
O271   O     0.50785   0.49213   0.34968   0.00000  Uiso   1.00
O272   O     0.55355   0.37857   0.42595   0.00000  Uiso   1.00
O273   O     0.55724   0.56519   0.02963   0.00000  Uiso   1.00
O274   O     0.51264   0.41352   0.28213   0.00000  Uiso   1.00
O275   O     0.47965   0.59418   0.27013   0.00000  Uiso   1.00
O276   O     0.40745   0.46625   0.23413   0.00000  Uiso   1.00
O277   O     0.60026   0.52605   0.21360   0.00000  Uiso   1.00
O278   O     0.40405   0.52211   0.28213   0.00000  Uiso   1.00
O279   O     0.58824   0.48559   0.27013   0.00000  Uiso   1.00
O280   O     0.47093   0.40277   0.23413   0.00000  Uiso   1.00
O281   O     0.53678   0.58953   0.21360   0.00000  Uiso   1.00
Zn282  Zn    0.52672   0.47327   0.28734   0.00000  Uiso   1.00
Zn283  Zn    0.46713   0.45791   0.21875   0.00000  Uiso   1.00
Zn284  Zn    0.54389   0.53109   0.20657   0.00000  Uiso   1.00
Zn285  Zn    0.46226   0.53773   0.28733   0.00000  Uiso   1.00
Br286  Br    0.97570   0.45944   0.31564   0.00000  Uiso   1.00
Br287  Br    0.83936   0.35293   0.01662   0.00000  Uiso   1.00
Br288  Br    0.78001   0.60761   0.41351   0.00000  Uiso   1.00
C289   C     0.71973   0.49334   0.25945   0.00000  Uiso   1.00
C290   C     0.85579   0.49935   0.05175   0.00000  Uiso   1.00
C291   C     0.85575   0.42785   0.06716   0.00000  Uiso   1.00
C292   C     0.94726   0.50688   0.24037   0.00000  Uiso   1.00
C293   C     0.80801   0.52583   0.42055   0.00000  Uiso   1.00
C294   C     0.99265   0.50846   0.23702   0.00000  Uiso   1.00
C295   C     0.67461   0.48975   0.26521   0.00000  Uiso   1.00
C296   C     0.84694   0.65580   0.23673   0.00000  Uiso   1.00
C297   C     0.81849   0.34506   0.26399   0.00000  Uiso   1.00
C298   C     0.82267   0.38920   0.26034   0.00000  Uiso   1.00
C299   C     0.84318   0.61118   0.24025   0.00000  Uiso   1.00
C300   C     0.79146   0.57272   0.48805   0.00000  Uiso   1.00
C301   C     0.85144   0.48144   0.12927   0.00000  Uiso   1.00
C302   C     0.81490   0.51769   0.37121   0.00000  Uiso   1.00
C303   C     0.85035   0.41302   0.02493   0.00000  Uiso   1.00
C304   C     0.85803   0.47043   0.08108   0.00000  Uiso   1.00
C305   C     0.79436   0.56417   0.44250   0.00000  Uiso   1.00
C306   C     0.85255   0.38950   0.42632   0.00000  Uiso   1.00
C307   C     0.87174   0.54414   0.06056   0.00000  Uiso   1.00
C308   C     0.80584   0.54621   0.01145   0.00000  Uiso   1.00
C309   C     0.82347   0.50985   0.48984   0.00000  Uiso   1.00
C310   C     0.81860   0.49687   0.44618   0.00000  Uiso   1.00
C311   C     0.84190   0.48418   0.01225   0.00000  Uiso   1.00
C312   C     0.84473   0.44136   0.49581   0.00000  Uiso   1.00
C313   C     0.83879   0.42837   0.45239   0.00000  Uiso   1.00
C314   C     0.82393   0.45526   0.42956   0.00000  Uiso   1.00
H315   H     0.85623   0.40551   0.09047   0.00000  Uiso   1.00
H316   H     0.87309   0.33707   0.21175   0.00000  Uiso   1.00
H317   H     0.79195   0.66464   0.28911   0.00000  Uiso   1.00
H318   H     0.80184   0.55406   0.04697   0.00000  Uiso   1.00
H319   H     0.77910   0.60092   0.00539   0.00000  Uiso   1.00
H320   H     0.81576   0.44241   0.39873   0.00000  Uiso   1.00
H321   H     0.68130   0.52543   0.21047   0.00000  Uiso   1.00
H322   H     0.83351   0.37196   0.40478   0.00000  Uiso   1.00
H323   H     0.86770   0.55868   0.09435   0.00000  Uiso   1.00
O324   O     0.83333   0.50000   0.25000   0.00000  Uiso   1.00
O325   O     0.82118   0.45970   0.15458   0.00000  Uiso   1.00
O326   O     0.79607   0.53724   0.34968   0.00000  Uiso   1.00
O327   O     0.87491   0.51092   0.14606   0.00000  Uiso   1.00
O328   O     0.84118   0.49213   0.34968   0.00000  Uiso   1.00
O329   O     0.88688   0.37857   0.42595   0.00000  Uiso   1.00
O330   O     0.89057   0.56519   0.02963   0.00000  Uiso   1.00
O331   O     0.84597   0.41352   0.28213   0.00000  Uiso   1.00
O332   O     0.81298   0.59418   0.27013   0.00000  Uiso   1.00
O333   O     0.74078   0.46625   0.23413   0.00000  Uiso   1.00
O334   O     0.93360   0.52605   0.21360   0.00000  Uiso   1.00
O335   O     0.73738   0.52211   0.28213   0.00000  Uiso   1.00
O336   O     0.92158   0.48559   0.27013   0.00000  Uiso   1.00
O337   O     0.80426   0.40277   0.23413   0.00000  Uiso   1.00
O338   O     0.87012   0.58953   0.21360   0.00000  Uiso   1.00
Zn339  Zn    0.86005   0.47327   0.28734   0.00000  Uiso   1.00
Zn340  Zn    0.80046   0.45791   0.21875   0.00000  Uiso   1.00
Zn341  Zn    0.87723   0.53109   0.20657   0.00000  Uiso   1.00
Zn342  Zn    0.79560   0.53773   0.28733   0.00000  Uiso   1.00
Br343  Br    0.30903   0.79277   0.31564   0.00000  Uiso   1.00
Br344  Br    0.17269   0.68626   0.01662   0.00000  Uiso   1.00
Br345  Br    0.11334   0.94094   0.41351   0.00000  Uiso   1.00
C346   C     0.05306   0.82668   0.25945   0.00000  Uiso   1.00
C347   C     0.18913   0.83268   0.05175   0.00000  Uiso   1.00
C348   C     0.18908   0.76118   0.06716   0.00000  Uiso   1.00
C349   C     0.28059   0.84021   0.24037   0.00000  Uiso   1.00
C350   C     0.14134   0.85916   0.42055   0.00000  Uiso   1.00
C351   C     0.32598   0.84180   0.23702   0.00000  Uiso   1.00
C352   C     0.00794   0.82308   0.26521   0.00000  Uiso   1.00
C353   C     0.18027   0.98914   0.23673   0.00000  Uiso   1.00
C354   C     0.15182   0.67840   0.26399   0.00000  Uiso   1.00
C355   C     0.15601   0.72253   0.26034   0.00000  Uiso   1.00
C356   C     0.17652   0.94451   0.24025   0.00000  Uiso   1.00
C357   C     0.12479   0.90605   0.48805   0.00000  Uiso   1.00
C358   C     0.18477   0.81478   0.12927   0.00000  Uiso   1.00
C359   C     0.14823   0.85103   0.37121   0.00000  Uiso   1.00
C360   C     0.18368   0.74635   0.02493   0.00000  Uiso   1.00
C361   C     0.19136   0.80377   0.08108   0.00000  Uiso   1.00
C362   C     0.12769   0.89750   0.44250   0.00000  Uiso   1.00
C363   C     0.18589   0.72283   0.42632   0.00000  Uiso   1.00
C364   C     0.20508   0.87748   0.06056   0.00000  Uiso   1.00
C365   C     0.13918   0.87954   0.01145   0.00000  Uiso   1.00
C366   C     0.15680   0.84318   0.48984   0.00000  Uiso   1.00
C367   C     0.15193   0.83021   0.44618   0.00000  Uiso   1.00
C368   C     0.17523   0.81751   0.01225   0.00000  Uiso   1.00
C369   C     0.17806   0.77470   0.49581   0.00000  Uiso   1.00
C370   C     0.17212   0.76170   0.45239   0.00000  Uiso   1.00
C371   C     0.15726   0.78859   0.42956   0.00000  Uiso   1.00
H372   H     0.18956   0.73885   0.09047   0.00000  Uiso   1.00
H373   H     0.20643   0.67040   0.21175   0.00000  Uiso   1.00
H374   H     0.12529   0.99797   0.28911   0.00000  Uiso   1.00
H375   H     0.13517   0.88739   0.04697   0.00000  Uiso   1.00
H376   H     0.11243   0.93426   0.00539   0.00000  Uiso   1.00
H377   H     0.14910   0.77574   0.39873   0.00000  Uiso   1.00
H378   H     0.01463   0.85877   0.21047   0.00000  Uiso   1.00
H379   H     0.16685   0.70529   0.40478   0.00000  Uiso   1.00
H380   H     0.20104   0.89202   0.09435   0.00000  Uiso   1.00
O381   O     0.16667   0.83333   0.25000   0.00000  Uiso   1.00
O382   O     0.15451   0.79304   0.15458   0.00000  Uiso   1.00
O383   O     0.12940   0.87058   0.34968   0.00000  Uiso   1.00
O384   O     0.20824   0.84425   0.14606   0.00000  Uiso   1.00
O385   O     0.17451   0.82546   0.34968   0.00000  Uiso   1.00
O386   O     0.22022   0.71191   0.42595   0.00000  Uiso   1.00
O387   O     0.22390   0.89852   0.02963   0.00000  Uiso   1.00
O388   O     0.17930   0.74686   0.28213   0.00000  Uiso   1.00
O389   O     0.14632   0.92751   0.27013   0.00000  Uiso   1.00
O390   O     0.07412   0.79958   0.23413   0.00000  Uiso   1.00
O391   O     0.26693   0.85939   0.21360   0.00000  Uiso   1.00
O392   O     0.07071   0.85544   0.28213   0.00000  Uiso   1.00
O393   O     0.25491   0.81892   0.27013   0.00000  Uiso   1.00
O394   O     0.13760   0.73610   0.23413   0.00000  Uiso   1.00
O395   O     0.20345   0.92286   0.21360   0.00000  Uiso   1.00
Zn396  Zn    0.19338   0.80661   0.28734   0.00000  Uiso   1.00
Zn397  Zn    0.13379   0.79124   0.21875   0.00000  Uiso   1.00
Zn398  Zn    0.21056   0.86442   0.20657   0.00000  Uiso   1.00
Zn399  Zn    0.12893   0.87106   0.28733   0.00000  Uiso   1.00
Br400  Br    0.64237   0.79277   0.31564   0.00000  Uiso   1.00
Br401  Br    0.50602   0.68626   0.01662   0.00000  Uiso   1.00
Br402  Br    0.44668   0.94094   0.41351   0.00000  Uiso   1.00
C403   C     0.38640   0.82668   0.25945   0.00000  Uiso   1.00
C404   C     0.52246   0.83268   0.05175   0.00000  Uiso   1.00
C405   C     0.52242   0.76118   0.06716   0.00000  Uiso   1.00
C406   C     0.61392   0.84021   0.24037   0.00000  Uiso   1.00
C407   C     0.47468   0.85916   0.42055   0.00000  Uiso   1.00
C408   C     0.65931   0.84180   0.23702   0.00000  Uiso   1.00
C409   C     0.34128   0.82308   0.26521   0.00000  Uiso   1.00
C410   C     0.51360   0.98914   0.23673   0.00000  Uiso   1.00
C411   C     0.48516   0.67840   0.26399   0.00000  Uiso   1.00
C412   C     0.48934   0.72253   0.26034   0.00000  Uiso   1.00
C413   C     0.50985   0.94451   0.24025   0.00000  Uiso   1.00
C414   C     0.45813   0.90605   0.48805   0.00000  Uiso   1.00
C415   C     0.51811   0.81478   0.12927   0.00000  Uiso   1.00
C416   C     0.48156   0.85103   0.37121   0.00000  Uiso   1.00
C417   C     0.51702   0.74635   0.02493   0.00000  Uiso   1.00
C418   C     0.52470   0.80377   0.08108   0.00000  Uiso   1.00
C419   C     0.46102   0.89750   0.44250   0.00000  Uiso   1.00
C420   C     0.51922   0.72283   0.42632   0.00000  Uiso   1.00
C421   C     0.53841   0.87748   0.06056   0.00000  Uiso   1.00
C422   C     0.47251   0.87954   0.01145   0.00000  Uiso   1.00
C423   C     0.49013   0.84318   0.48984   0.00000  Uiso   1.00
C424   C     0.48526   0.83021   0.44618   0.00000  Uiso   1.00
C425   C     0.50856   0.81751   0.01225   0.00000  Uiso   1.00
C426   C     0.51140   0.77470   0.49581   0.00000  Uiso   1.00
C427   C     0.50545   0.76170   0.45239   0.00000  Uiso   1.00
C428   C     0.49060   0.78859   0.42956   0.00000  Uiso   1.00
H429   H     0.52290   0.73885   0.09047   0.00000  Uiso   1.00
H430   H     0.53976   0.67040   0.21175   0.00000  Uiso   1.00
H431   H     0.45862   0.99797   0.28911   0.00000  Uiso   1.00
H432   H     0.46850   0.88739   0.04697   0.00000  Uiso   1.00
H433   H     0.44577   0.93426   0.00539   0.00000  Uiso   1.00
H434   H     0.48243   0.77574   0.39873   0.00000  Uiso   1.00
H435   H     0.34796   0.85877   0.21047   0.00000  Uiso   1.00
H436   H     0.50018   0.70529   0.40478   0.00000  Uiso   1.00
H437   H     0.53437   0.89202   0.09435   0.00000  Uiso   1.00
O438   O     0.50000   0.83333   0.25000   0.00000  Uiso   1.00
O439   O     0.48784   0.79304   0.15458   0.00000  Uiso   1.00
O440   O     0.46274   0.87058   0.34968   0.00000  Uiso   1.00
O441   O     0.54157   0.84425   0.14606   0.00000  Uiso   1.00
O442   O     0.50785   0.82546   0.34968   0.00000  Uiso   1.00
O443   O     0.55355   0.71191   0.42595   0.00000  Uiso   1.00
O444   O     0.55724   0.89852   0.02963   0.00000  Uiso   1.00
O445   O     0.51264   0.74686   0.28213   0.00000  Uiso   1.00
O446   O     0.47965   0.92751   0.27013   0.00000  Uiso   1.00
O447   O     0.40745   0.79958   0.23413   0.00000  Uiso   1.00
O448   O     0.60026   0.85939   0.21360   0.00000  Uiso   1.00
O449   O     0.40405   0.85544   0.28213   0.00000  Uiso   1.00
O450   O     0.58824   0.81892   0.27013   0.00000  Uiso   1.00
O451   O     0.47093   0.73610   0.23413   0.00000  Uiso   1.00
O452   O     0.53678   0.92286   0.21360   0.00000  Uiso   1.00
Zn453  Zn    0.52672   0.80661   0.28734   0.00000  Uiso   1.00
Zn454  Zn    0.46713   0.79124   0.21875   0.00000  Uiso   1.00
Zn455  Zn    0.54389   0.86442   0.20657   0.00000  Uiso   1.00
Zn456  Zn    0.46226   0.87106   0.28733   0.00000  Uiso   1.00
Br457  Br    0.97570   0.79277   0.31564   0.00000  Uiso   1.00
Br458  Br    0.83936   0.68626   0.01662   0.00000  Uiso   1.00
Br459  Br    0.78001   0.94094   0.41351   0.00000  Uiso   1.00
C460   C     0.71973   0.82668   0.25945   0.00000  Uiso   1.00
C461   C     0.85579   0.83268   0.05175   0.00000  Uiso   1.00
C462   C     0.85575   0.76118   0.06716   0.00000  Uiso   1.00
C463   C     0.94726   0.84021   0.24037   0.00000  Uiso   1.00
C464   C     0.80801   0.85916   0.42055   0.00000  Uiso   1.00
C465   C     0.99265   0.84180   0.23702   0.00000  Uiso   1.00
C466   C     0.67461   0.82308   0.26521   0.00000  Uiso   1.00
C467   C     0.84694   0.98914   0.23673   0.00000  Uiso   1.00
C468   C     0.81849   0.67840   0.26399   0.00000  Uiso   1.00
C469   C     0.82267   0.72253   0.26034   0.00000  Uiso   1.00
C470   C     0.84318   0.94451   0.24025   0.00000  Uiso   1.00
C471   C     0.79146   0.90605   0.48805   0.00000  Uiso   1.00
C472   C     0.85144   0.81478   0.12927   0.00000  Uiso   1.00
C473   C     0.81490   0.85103   0.37121   0.00000  Uiso   1.00
C474   C     0.85035   0.74635   0.02493   0.00000  Uiso   1.00
C475   C     0.85803   0.80377   0.08108   0.00000  Uiso   1.00
C476   C     0.79436   0.89750   0.44250   0.00000  Uiso   1.00
C477   C     0.85255   0.72283   0.42632   0.00000  Uiso   1.00
C478   C     0.87174   0.87748   0.06056   0.00000  Uiso   1.00
C479   C     0.80584   0.87954   0.01145   0.00000  Uiso   1.00
C480   C     0.82347   0.84318   0.48984   0.00000  Uiso   1.00
C481   C     0.81860   0.83021   0.44618   0.00000  Uiso   1.00
C482   C     0.84190   0.81751   0.01225   0.00000  Uiso   1.00
C483   C     0.84473   0.77470   0.49581   0.00000  Uiso   1.00
C484   C     0.83879   0.76170   0.45239   0.00000  Uiso   1.00
C485   C     0.82393   0.78859   0.42956   0.00000  Uiso   1.00
H486   H     0.85623   0.73885   0.09047   0.00000  Uiso   1.00
H487   H     0.87309   0.67040   0.21175   0.00000  Uiso   1.00
H488   H     0.79195   0.99797   0.28911   0.00000  Uiso   1.00
H489   H     0.80184   0.88739   0.04697   0.00000  Uiso   1.00
H490   H     0.77910   0.93426   0.00539   0.00000  Uiso   1.00
H491   H     0.81576   0.77574   0.39873   0.00000  Uiso   1.00
H492   H     0.68130   0.85877   0.21047   0.00000  Uiso   1.00
H493   H     0.83351   0.70529   0.40478   0.00000  Uiso   1.00
H494   H     0.86770   0.89202   0.09435   0.00000  Uiso   1.00
O495   O     0.83333   0.83333   0.25000   0.00000  Uiso   1.00
O496   O     0.82118   0.79304   0.15458   0.00000  Uiso   1.00
O497   O     0.79607   0.87058   0.34968   0.00000  Uiso   1.00
O498   O     0.87491   0.84425   0.14606   0.00000  Uiso   1.00
O499   O     0.84118   0.82546   0.34968   0.00000  Uiso   1.00
O500   O     0.88688   0.71191   0.42595   0.00000  Uiso   1.00
O501   O     0.89057   0.89852   0.02963   0.00000  Uiso   1.00
O502   O     0.84597   0.74686   0.28213   0.00000  Uiso   1.00
O503   O     0.81298   0.92751   0.27013   0.00000  Uiso   1.00
O504   O     0.74078   0.79958   0.23413   0.00000  Uiso   1.00
O505   O     0.93360   0.85939   0.21360   0.00000  Uiso   1.00
O506   O     0.73738   0.85544   0.28213   0.00000  Uiso   1.00
O507   O     0.92158   0.81892   0.27013   0.00000  Uiso   1.00
O508   O     0.80426   0.73610   0.23413   0.00000  Uiso   1.00
O509   O     0.87012   0.92286   0.21360   0.00000  Uiso   1.00
Zn510  Zn    0.86005   0.80661   0.28734   0.00000  Uiso   1.00
Zn511  Zn    0.80046   0.79124   0.21875   0.00000  Uiso   1.00
Zn512  Zn    0.87723   0.86442   0.20657   0.00000  Uiso   1.00
Zn513  Zn    0.79560   0.87106   0.28733   0.00000  Uiso   1.00
Br514  Br    0.30903   0.12611   0.81564   0.00000  Uiso   1.00
Br515  Br    0.17269   0.01960   0.51662   0.00000  Uiso   1.00
Br516  Br    0.11334   0.27427   0.91351   0.00000  Uiso   1.00
C517   C     0.05306   0.16001   0.75945   0.00000  Uiso   1.00
C518   C     0.18913   0.16601   0.55175   0.00000  Uiso   1.00
C519   C     0.18908   0.09452   0.56716   0.00000  Uiso   1.00
C520   C     0.28059   0.17355   0.74037   0.00000  Uiso   1.00
C521   C     0.14134   0.19249   0.92055   0.00000  Uiso   1.00
C522   C     0.32598   0.17513   0.73702   0.00000  Uiso   1.00
C523   C     0.00794   0.15642   0.76521   0.00000  Uiso   1.00
C524   C     0.18027   0.32247   0.73673   0.00000  Uiso   1.00
C525   C     0.15182   0.01173   0.76399   0.00000  Uiso   1.00
C526   C     0.15601   0.05586   0.76034   0.00000  Uiso   1.00
C527   C     0.17652   0.27784   0.74025   0.00000  Uiso   1.00
C528   C     0.12479   0.23938   0.98805   0.00000  Uiso   1.00
C529   C     0.18477   0.14811   0.62927   0.00000  Uiso   1.00
C530   C     0.14823   0.18436   0.87121   0.00000  Uiso   1.00
C531   C     0.18368   0.07968   0.52493   0.00000  Uiso   1.00
C532   C     0.19136   0.13710   0.58108   0.00000  Uiso   1.00
C533   C     0.12769   0.23084   0.94250   0.00000  Uiso   1.00
C534   C     0.18589   0.05616   0.92632   0.00000  Uiso   1.00
C535   C     0.20508   0.21081   0.56056   0.00000  Uiso   1.00
C536   C     0.13918   0.21287   0.51145   0.00000  Uiso   1.00
C537   C     0.15680   0.17652   0.98984   0.00000  Uiso   1.00
C538   C     0.15193   0.16354   0.94618   0.00000  Uiso   1.00
C539   C     0.17523   0.15085   0.51225   0.00000  Uiso   1.00
C540   C     0.17806   0.10803   0.99581   0.00000  Uiso   1.00
C541   C     0.17212   0.09504   0.95239   0.00000  Uiso   1.00
C542   C     0.15726   0.12192   0.92956   0.00000  Uiso   1.00
H543   H     0.18956   0.07218   0.59047   0.00000  Uiso   1.00
H544   H     0.20643   0.00374   0.71175   0.00000  Uiso   1.00
H545   H     0.12529   0.33130   0.78911   0.00000  Uiso   1.00
H546   H     0.13517   0.22073   0.54697   0.00000  Uiso   1.00
H547   H     0.11243   0.26759   0.50539   0.00000  Uiso   1.00
H548   H     0.14910   0.10908   0.89873   0.00000  Uiso   1.00
H549   H     0.01463   0.19210   0.71047   0.00000  Uiso   1.00
H550   H     0.16685   0.03862   0.90478   0.00000  Uiso   1.00
H551   H     0.20104   0.22535   0.59435   0.00000  Uiso   1.00
O552   O     0.16667   0.16667   0.75000   0.00000  Uiso   1.00
O553   O     0.15451   0.12637   0.65458   0.00000  Uiso   1.00
O554   O     0.12940   0.20391   0.84968   0.00000  Uiso   1.00
O555   O     0.20824   0.17759   0.64606   0.00000  Uiso   1.00
O556   O     0.17451   0.15880   0.84968   0.00000  Uiso   1.00
O557   O     0.22022   0.04524   0.92595   0.00000  Uiso   1.00
O558   O     0.22390   0.23185   0.52963   0.00000  Uiso   1.00
O559   O     0.17930   0.08019   0.78213   0.00000  Uiso   1.00
O560   O     0.14632   0.26085   0.77013   0.00000  Uiso   1.00
O561   O     0.07412   0.13291   0.73413   0.00000  Uiso   1.00
O562   O     0.26693   0.19272   0.71360   0.00000  Uiso   1.00
O563   O     0.07071   0.18878   0.78213   0.00000  Uiso   1.00
O564   O     0.25491   0.15226   0.77013   0.00000  Uiso   1.00
O565   O     0.13760   0.06944   0.73413   0.00000  Uiso   1.00
O566   O     0.20345   0.25620   0.71360   0.00000  Uiso   1.00
Zn567  Zn    0.19338   0.13994   0.78734   0.00000  Uiso   1.00
Zn568  Zn    0.13379   0.12458   0.71875   0.00000  Uiso   1.00
Zn569  Zn    0.21056   0.19775   0.70657   0.00000  Uiso   1.00
Zn570  Zn    0.12893   0.20439   0.78733   0.00000  Uiso   1.00
Br571  Br    0.64237   0.12611   0.81564   0.00000  Uiso   1.00
Br572  Br    0.50602   0.01960   0.51662   0.00000  Uiso   1.00
Br573  Br    0.44668   0.27427   0.91351   0.00000  Uiso   1.00
C574   C     0.38640   0.16001   0.75945   0.00000  Uiso   1.00
C575   C     0.52246   0.16601   0.55175   0.00000  Uiso   1.00
C576   C     0.52242   0.09452   0.56716   0.00000  Uiso   1.00
C577   C     0.61392   0.17355   0.74037   0.00000  Uiso   1.00
C578   C     0.47468   0.19249   0.92055   0.00000  Uiso   1.00
C579   C     0.65931   0.17513   0.73702   0.00000  Uiso   1.00
C580   C     0.34128   0.15642   0.76521   0.00000  Uiso   1.00
C581   C     0.51360   0.32247   0.73673   0.00000  Uiso   1.00
C582   C     0.48516   0.01173   0.76399   0.00000  Uiso   1.00
C583   C     0.48934   0.05586   0.76034   0.00000  Uiso   1.00
C584   C     0.50985   0.27784   0.74025   0.00000  Uiso   1.00
C585   C     0.45813   0.23938   0.98805   0.00000  Uiso   1.00
C586   C     0.51811   0.14811   0.62927   0.00000  Uiso   1.00
C587   C     0.48156   0.18436   0.87121   0.00000  Uiso   1.00
C588   C     0.51702   0.07968   0.52493   0.00000  Uiso   1.00
C589   C     0.52470   0.13710   0.58108   0.00000  Uiso   1.00
C590   C     0.46102   0.23084   0.94250   0.00000  Uiso   1.00
C591   C     0.51922   0.05616   0.92632   0.00000  Uiso   1.00
C592   C     0.53841   0.21081   0.56056   0.00000  Uiso   1.00
C593   C     0.47251   0.21287   0.51145   0.00000  Uiso   1.00
C594   C     0.49013   0.17652   0.98984   0.00000  Uiso   1.00
C595   C     0.48526   0.16354   0.94618   0.00000  Uiso   1.00
C596   C     0.50856   0.15085   0.51225   0.00000  Uiso   1.00
C597   C     0.51140   0.10803   0.99581   0.00000  Uiso   1.00
C598   C     0.50545   0.09504   0.95239   0.00000  Uiso   1.00
C599   C     0.49060   0.12192   0.92956   0.00000  Uiso   1.00
H600   H     0.52290   0.07218   0.59047   0.00000  Uiso   1.00
H601   H     0.53976   0.00374   0.71175   0.00000  Uiso   1.00
H602   H     0.45862   0.33130   0.78911   0.00000  Uiso   1.00
H603   H     0.46850   0.22073   0.54697   0.00000  Uiso   1.00
H604   H     0.44577   0.26759   0.50539   0.00000  Uiso   1.00
H605   H     0.48243   0.10908   0.89873   0.00000  Uiso   1.00
H606   H     0.34796   0.19210   0.71047   0.00000  Uiso   1.00
H607   H     0.50018   0.03862   0.90478   0.00000  Uiso   1.00
H608   H     0.53437   0.22535   0.59435   0.00000  Uiso   1.00
O609   O     0.50000   0.16667   0.75000   0.00000  Uiso   1.00
O610   O     0.48784   0.12637   0.65458   0.00000  Uiso   1.00
O611   O     0.46274   0.20391   0.84968   0.00000  Uiso   1.00
O612   O     0.54157   0.17759   0.64606   0.00000  Uiso   1.00
O613   O     0.50785   0.15880   0.84968   0.00000  Uiso   1.00
O614   O     0.55355   0.04524   0.92595   0.00000  Uiso   1.00
O615   O     0.55724   0.23185   0.52963   0.00000  Uiso   1.00
O616   O     0.51264   0.08019   0.78213   0.00000  Uiso   1.00
O617   O     0.47965   0.26085   0.77013   0.00000  Uiso   1.00
O618   O     0.40745   0.13291   0.73413   0.00000  Uiso   1.00
O619   O     0.60026   0.19272   0.71360   0.00000  Uiso   1.00
O620   O     0.40405   0.18878   0.78213   0.00000  Uiso   1.00
O621   O     0.58824   0.15226   0.77013   0.00000  Uiso   1.00
O622   O     0.47093   0.06944   0.73413   0.00000  Uiso   1.00
O623   O     0.53678   0.25620   0.71360   0.00000  Uiso   1.00
Zn624  Zn    0.52672   0.13994   0.78734   0.00000  Uiso   1.00
Zn625  Zn    0.46713   0.12458   0.71875   0.00000  Uiso   1.00
Zn626  Zn    0.54389   0.19775   0.70657   0.00000  Uiso   1.00
Zn627  Zn    0.46226   0.20439   0.78733   0.00000  Uiso   1.00
Br628  Br    0.97570   0.12611   0.81564   0.00000  Uiso   1.00
Br629  Br    0.83936   0.01960   0.51662   0.00000  Uiso   1.00
Br630  Br    0.78001   0.27427   0.91351   0.00000  Uiso   1.00
C631   C     0.71973   0.16001   0.75945   0.00000  Uiso   1.00
C632   C     0.85579   0.16601   0.55175   0.00000  Uiso   1.00
C633   C     0.85575   0.09452   0.56716   0.00000  Uiso   1.00
C634   C     0.94726   0.17355   0.74037   0.00000  Uiso   1.00
C635   C     0.80801   0.19249   0.92055   0.00000  Uiso   1.00
C636   C     0.99265   0.17513   0.73702   0.00000  Uiso   1.00
C637   C     0.67461   0.15642   0.76521   0.00000  Uiso   1.00
C638   C     0.84694   0.32247   0.73673   0.00000  Uiso   1.00
C639   C     0.81849   0.01173   0.76399   0.00000  Uiso   1.00
C640   C     0.82267   0.05586   0.76034   0.00000  Uiso   1.00
C641   C     0.84318   0.27784   0.74025   0.00000  Uiso   1.00
C642   C     0.79146   0.23938   0.98805   0.00000  Uiso   1.00
C643   C     0.85144   0.14811   0.62927   0.00000  Uiso   1.00
C644   C     0.81490   0.18436   0.87121   0.00000  Uiso   1.00
C645   C     0.85035   0.07968   0.52493   0.00000  Uiso   1.00
C646   C     0.85803   0.13710   0.58108   0.00000  Uiso   1.00
C647   C     0.79436   0.23084   0.94250   0.00000  Uiso   1.00
C648   C     0.85255   0.05616   0.92632   0.00000  Uiso   1.00
C649   C     0.87174   0.21081   0.56056   0.00000  Uiso   1.00
C650   C     0.80584   0.21287   0.51145   0.00000  Uiso   1.00
C651   C     0.82347   0.17652   0.98984   0.00000  Uiso   1.00
C652   C     0.81860   0.16354   0.94618   0.00000  Uiso   1.00
C653   C     0.84190   0.15085   0.51225   0.00000  Uiso   1.00
C654   C     0.84473   0.10803   0.99581   0.00000  Uiso   1.00
C655   C     0.83879   0.09504   0.95239   0.00000  Uiso   1.00
C656   C     0.82393   0.12192   0.92956   0.00000  Uiso   1.00
H657   H     0.85623   0.07218   0.59047   0.00000  Uiso   1.00
H658   H     0.87309   0.00374   0.71175   0.00000  Uiso   1.00
H659   H     0.79195   0.33130   0.78911   0.00000  Uiso   1.00
H660   H     0.80184   0.22073   0.54697   0.00000  Uiso   1.00
H661   H     0.77910   0.26759   0.50539   0.00000  Uiso   1.00
H662   H     0.81576   0.10908   0.89873   0.00000  Uiso   1.00
H663   H     0.68130   0.19210   0.71047   0.00000  Uiso   1.00
H664   H     0.83351   0.03862   0.90478   0.00000  Uiso   1.00
H665   H     0.86770   0.22535   0.59435   0.00000  Uiso   1.00
O666   O     0.83333   0.16667   0.75000   0.00000  Uiso   1.00
O667   O     0.82118   0.12637   0.65458   0.00000  Uiso   1.00
O668   O     0.79607   0.20391   0.84968   0.00000  Uiso   1.00
O669   O     0.87491   0.17759   0.64606   0.00000  Uiso   1.00
O670   O     0.84118   0.15880   0.84968   0.00000  Uiso   1.00
O671   O     0.88688   0.04524   0.92595   0.00000  Uiso   1.00
O672   O     0.89057   0.23185   0.52963   0.00000  Uiso   1.00
O673   O     0.84597   0.08019   0.78213   0.00000  Uiso   1.00
O674   O     0.81298   0.26085   0.77013   0.00000  Uiso   1.00
O675   O     0.74078   0.13291   0.73413   0.00000  Uiso   1.00
O676   O     0.93360   0.19272   0.71360   0.00000  Uiso   1.00
O677   O     0.73738   0.18878   0.78213   0.00000  Uiso   1.00
O678   O     0.92158   0.15226   0.77013   0.00000  Uiso   1.00
O679   O     0.80426   0.06944   0.73413   0.00000  Uiso   1.00
O680   O     0.87012   0.25620   0.71360   0.00000  Uiso   1.00
Zn681  Zn    0.86005   0.13994   0.78734   0.00000  Uiso   1.00
Zn682  Zn    0.80046   0.12458   0.71875   0.00000  Uiso   1.00
Zn683  Zn    0.87723   0.19775   0.70657   0.00000  Uiso   1.00
Zn684  Zn    0.79560   0.20439   0.78733   0.00000  Uiso   1.00
Br685  Br    0.30903   0.45944   0.81564   0.00000  Uiso   1.00
Br686  Br    0.17269   0.35293   0.51662   0.00000  Uiso   1.00
Br687  Br    0.11334   0.60761   0.91351   0.00000  Uiso   1.00
C688   C     0.05306   0.49334   0.75945   0.00000  Uiso   1.00
C689   C     0.18913   0.49935   0.55175   0.00000  Uiso   1.00
C690   C     0.18908   0.42785   0.56716   0.00000  Uiso   1.00
C691   C     0.28059   0.50688   0.74037   0.00000  Uiso   1.00
C692   C     0.14134   0.52583   0.92055   0.00000  Uiso   1.00
C693   C     0.32598   0.50846   0.73702   0.00000  Uiso   1.00
C694   C     0.00794   0.48975   0.76521   0.00000  Uiso   1.00
C695   C     0.18027   0.65580   0.73673   0.00000  Uiso   1.00
C696   C     0.15182   0.34506   0.76399   0.00000  Uiso   1.00
C697   C     0.15601   0.38920   0.76034   0.00000  Uiso   1.00
C698   C     0.17652   0.61118   0.74025   0.00000  Uiso   1.00
C699   C     0.12479   0.57272   0.98805   0.00000  Uiso   1.00
C700   C     0.18477   0.48144   0.62927   0.00000  Uiso   1.00
C701   C     0.14823   0.51769   0.87121   0.00000  Uiso   1.00
C702   C     0.18368   0.41302   0.52493   0.00000  Uiso   1.00
C703   C     0.19136   0.47043   0.58108   0.00000  Uiso   1.00
C704   C     0.12769   0.56417   0.94250   0.00000  Uiso   1.00
C705   C     0.18589   0.38950   0.92632   0.00000  Uiso   1.00
C706   C     0.20508   0.54414   0.56056   0.00000  Uiso   1.00
C707   C     0.13918   0.54621   0.51145   0.00000  Uiso   1.00
C708   C     0.15680   0.50985   0.98984   0.00000  Uiso   1.00
C709   C     0.15193   0.49687   0.94618   0.00000  Uiso   1.00
C710   C     0.17523   0.48418   0.51225   0.00000  Uiso   1.00
C711   C     0.17806   0.44136   0.99581   0.00000  Uiso   1.00
C712   C     0.17212   0.42837   0.95239   0.00000  Uiso   1.00
C713   C     0.15726   0.45526   0.92956   0.00000  Uiso   1.00
H714   H     0.18956   0.40551   0.59047   0.00000  Uiso   1.00
H715   H     0.20643   0.33707   0.71175   0.00000  Uiso   1.00
H716   H     0.12529   0.66464   0.78911   0.00000  Uiso   1.00
H717   H     0.13517   0.55406   0.54697   0.00000  Uiso   1.00
H718   H     0.11243   0.60092   0.50539   0.00000  Uiso   1.00
H719   H     0.14910   0.44241   0.89873   0.00000  Uiso   1.00
H720   H     0.01463   0.52543   0.71047   0.00000  Uiso   1.00
H721   H     0.16685   0.37196   0.90478   0.00000  Uiso   1.00
H722   H     0.20104   0.55868   0.59435   0.00000  Uiso   1.00
O723   O     0.16667   0.50000   0.75000   0.00000  Uiso   1.00
O724   O     0.15451   0.45970   0.65458   0.00000  Uiso   1.00
O725   O     0.12940   0.53724   0.84968   0.00000  Uiso   1.00
O726   O     0.20824   0.51092   0.64606   0.00000  Uiso   1.00
O727   O     0.17451   0.49213   0.84968   0.00000  Uiso   1.00
O728   O     0.22022   0.37857   0.92595   0.00000  Uiso   1.00
O729   O     0.22390   0.56519   0.52963   0.00000  Uiso   1.00
O730   O     0.17930   0.41352   0.78213   0.00000  Uiso   1.00
O731   O     0.14632   0.59418   0.77013   0.00000  Uiso   1.00
O732   O     0.07412   0.46625   0.73413   0.00000  Uiso   1.00
O733   O     0.26693   0.52605   0.71360   0.00000  Uiso   1.00
O734   O     0.07071   0.52211   0.78213   0.00000  Uiso   1.00
O735   O     0.25491   0.48559   0.77013   0.00000  Uiso   1.00
O736   O     0.13760   0.40277   0.73413   0.00000  Uiso   1.00
O737   O     0.20345   0.58953   0.71360   0.00000  Uiso   1.00
Zn738  Zn    0.19338   0.47327   0.78734   0.00000  Uiso   1.00
Zn739  Zn    0.13379   0.45791   0.71875   0.00000  Uiso   1.00
Zn740  Zn    0.21056   0.53109   0.70657   0.00000  Uiso   1.00
Zn741  Zn    0.12893   0.53773   0.78733   0.00000  Uiso   1.00
Br742  Br    0.64237   0.45944   0.81564   0.00000  Uiso   1.00
Br743  Br    0.50602   0.35293   0.51662   0.00000  Uiso   1.00
Br744  Br    0.44668   0.60761   0.91351   0.00000  Uiso   1.00
C745   C     0.38640   0.49334   0.75945   0.00000  Uiso   1.00
C746   C     0.52246   0.49935   0.55175   0.00000  Uiso   1.00
C747   C     0.52242   0.42785   0.56716   0.00000  Uiso   1.00
C748   C     0.61392   0.50688   0.74037   0.00000  Uiso   1.00
C749   C     0.47468   0.52583   0.92055   0.00000  Uiso   1.00
C750   C     0.65931   0.50846   0.73702   0.00000  Uiso   1.00
C751   C     0.34128   0.48975   0.76521   0.00000  Uiso   1.00
C752   C     0.51360   0.65580   0.73673   0.00000  Uiso   1.00
C753   C     0.48516   0.34506   0.76399   0.00000  Uiso   1.00
C754   C     0.48934   0.38920   0.76034   0.00000  Uiso   1.00
C755   C     0.50985   0.61118   0.74025   0.00000  Uiso   1.00
C756   C     0.45813   0.57272   0.98805   0.00000  Uiso   1.00
C757   C     0.51811   0.48144   0.62927   0.00000  Uiso   1.00
C758   C     0.48156   0.51769   0.87121   0.00000  Uiso   1.00
C759   C     0.51702   0.41302   0.52493   0.00000  Uiso   1.00
C760   C     0.52470   0.47043   0.58108   0.00000  Uiso   1.00
C761   C     0.46102   0.56417   0.94250   0.00000  Uiso   1.00
C762   C     0.51922   0.38950   0.92632   0.00000  Uiso   1.00
C763   C     0.53841   0.54414   0.56056   0.00000  Uiso   1.00
C764   C     0.47251   0.54621   0.51145   0.00000  Uiso   1.00
C765   C     0.49013   0.50985   0.98984   0.00000  Uiso   1.00
C766   C     0.48526   0.49687   0.94618   0.00000  Uiso   1.00
C767   C     0.50856   0.48418   0.51225   0.00000  Uiso   1.00
C768   C     0.51140   0.44136   0.99581   0.00000  Uiso   1.00
C769   C     0.50545   0.42837   0.95239   0.00000  Uiso   1.00
C770   C     0.49060   0.45526   0.92956   0.00000  Uiso   1.00
H771   H     0.52290   0.40551   0.59047   0.00000  Uiso   1.00
H772   H     0.53976   0.33707   0.71175   0.00000  Uiso   1.00
H773   H     0.45862   0.66464   0.78911   0.00000  Uiso   1.00
H774   H     0.46850   0.55406   0.54697   0.00000  Uiso   1.00
H775   H     0.44577   0.60092   0.50539   0.00000  Uiso   1.00
H776   H     0.48243   0.44241   0.89873   0.00000  Uiso   1.00
H777   H     0.34796   0.52543   0.71047   0.00000  Uiso   1.00
H778   H     0.50018   0.37196   0.90478   0.00000  Uiso   1.00
H779   H     0.53437   0.55868   0.59435   0.00000  Uiso   1.00
O780   O     0.50000   0.50000   0.75000   0.00000  Uiso   1.00
O781   O     0.48784   0.45970   0.65458   0.00000  Uiso   1.00
O782   O     0.46274   0.53724   0.84968   0.00000  Uiso   1.00
O783   O     0.54157   0.51092   0.64606   0.00000  Uiso   1.00
O784   O     0.50785   0.49213   0.84968   0.00000  Uiso   1.00
O785   O     0.55355   0.37857   0.92595   0.00000  Uiso   1.00
O786   O     0.55724   0.56519   0.52963   0.00000  Uiso   1.00
O787   O     0.51264   0.41352   0.78213   0.00000  Uiso   1.00
O788   O     0.47965   0.59418   0.77013   0.00000  Uiso   1.00
O789   O     0.40745   0.46625   0.73413   0.00000  Uiso   1.00
O790   O     0.60026   0.52605   0.71360   0.00000  Uiso   1.00
O791   O     0.40405   0.52211   0.78213   0.00000  Uiso   1.00
O792   O     0.58824   0.48559   0.77013   0.00000  Uiso   1.00
O793   O     0.47093   0.40277   0.73413   0.00000  Uiso   1.00
O794   O     0.53678   0.58953   0.71360   0.00000  Uiso   1.00
Zn795  Zn    0.52672   0.47327   0.78734   0.00000  Uiso   1.00
Zn796  Zn    0.46713   0.45791   0.71875   0.00000  Uiso   1.00
Zn797  Zn    0.54389   0.53109   0.70657   0.00000  Uiso   1.00
Zn798  Zn    0.46226   0.53773   0.78733   0.00000  Uiso   1.00
Br799  Br    0.97570   0.45944   0.81564   0.00000  Uiso   1.00
Br800  Br    0.83936   0.35293   0.51662   0.00000  Uiso   1.00
Br801  Br    0.78001   0.60761   0.91351   0.00000  Uiso   1.00
C802   C     0.71973   0.49334   0.75945   0.00000  Uiso   1.00
C803   C     0.85579   0.49935   0.55175   0.00000  Uiso   1.00
C804   C     0.85575   0.42785   0.56716   0.00000  Uiso   1.00
C805   C     0.94726   0.50688   0.74037   0.00000  Uiso   1.00
C806   C     0.80801   0.52583   0.92055   0.00000  Uiso   1.00
C807   C     0.99265   0.50846   0.73702   0.00000  Uiso   1.00
C808   C     0.67461   0.48975   0.76521   0.00000  Uiso   1.00
C809   C     0.84694   0.65580   0.73673   0.00000  Uiso   1.00
C810   C     0.81849   0.34506   0.76399   0.00000  Uiso   1.00
C811   C     0.82267   0.38920   0.76034   0.00000  Uiso   1.00
C812   C     0.84318   0.61118   0.74025   0.00000  Uiso   1.00
C813   C     0.79146   0.57272   0.98805   0.00000  Uiso   1.00
C814   C     0.85144   0.48144   0.62927   0.00000  Uiso   1.00
C815   C     0.81490   0.51769   0.87121   0.00000  Uiso   1.00
C816   C     0.85035   0.41302   0.52493   0.00000  Uiso   1.00
C817   C     0.85803   0.47043   0.58108   0.00000  Uiso   1.00
C818   C     0.79436   0.56417   0.94250   0.00000  Uiso   1.00
C819   C     0.85255   0.38950   0.92632   0.00000  Uiso   1.00
C820   C     0.87174   0.54414   0.56056   0.00000  Uiso   1.00
C821   C     0.80584   0.54621   0.51145   0.00000  Uiso   1.00
C822   C     0.82347   0.50985   0.98984   0.00000  Uiso   1.00
C823   C     0.81860   0.49687   0.94618   0.00000  Uiso   1.00
C824   C     0.84190   0.48418   0.51225   0.00000  Uiso   1.00
C825   C     0.84473   0.44136   0.99581   0.00000  Uiso   1.00
C826   C     0.83879   0.42837   0.95239   0.00000  Uiso   1.00
C827   C     0.82393   0.45526   0.92956   0.00000  Uiso   1.00
H828   H     0.85623   0.40551   0.59047   0.00000  Uiso   1.00
H829   H     0.87309   0.33707   0.71175   0.00000  Uiso   1.00
H830   H     0.79195   0.66464   0.78911   0.00000  Uiso   1.00
H831   H     0.80184   0.55406   0.54697   0.00000  Uiso   1.00
H832   H     0.77910   0.60092   0.50539   0.00000  Uiso   1.00
H833   H     0.81576   0.44241   0.89873   0.00000  Uiso   1.00
H834   H     0.68130   0.52543   0.71047   0.00000  Uiso   1.00
H835   H     0.83351   0.37196   0.90478   0.00000  Uiso   1.00
H836   H     0.86770   0.55868   0.59435   0.00000  Uiso   1.00
O837   O     0.83333   0.50000   0.75000   0.00000  Uiso   1.00
O838   O     0.82118   0.45970   0.65458   0.00000  Uiso   1.00
O839   O     0.79607   0.53724   0.84968   0.00000  Uiso   1.00
O840   O     0.87491   0.51092   0.64606   0.00000  Uiso   1.00
O841   O     0.84118   0.49213   0.84968   0.00000  Uiso   1.00
O842   O     0.88688   0.37857   0.92595   0.00000  Uiso   1.00
O843   O     0.89057   0.56519   0.52963   0.00000  Uiso   1.00
O844   O     0.84597   0.41352   0.78213   0.00000  Uiso   1.00
O845   O     0.81298   0.59418   0.77013   0.00000  Uiso   1.00
O846   O     0.74078   0.46625   0.73413   0.00000  Uiso   1.00
O847   O     0.93360   0.52605   0.71360   0.00000  Uiso   1.00
O848   O     0.73738   0.52211   0.78213   0.00000  Uiso   1.00
O849   O     0.92158   0.48559   0.77013   0.00000  Uiso   1.00
O850   O     0.80426   0.40277   0.73413   0.00000  Uiso   1.00
O851   O     0.87012   0.58953   0.71360   0.00000  Uiso   1.00
Zn852  Zn    0.86005   0.47327   0.78734   0.00000  Uiso   1.00
Zn853  Zn    0.80046   0.45791   0.71875   0.00000  Uiso   1.00
Zn854  Zn    0.87723   0.53109   0.70657   0.00000  Uiso   1.00
Zn855  Zn    0.79560   0.53773   0.78733   0.00000  Uiso   1.00
Br856  Br    0.30903   0.79277   0.81564   0.00000  Uiso   1.00
Br857  Br    0.17269   0.68626   0.51662   0.00000  Uiso   1.00
Br858  Br    0.11334   0.94094   0.91351   0.00000  Uiso   1.00
C859   C     0.05306   0.82668   0.75945   0.00000  Uiso   1.00
C860   C     0.18913   0.83268   0.55175   0.00000  Uiso   1.00
C861   C     0.18908   0.76118   0.56716   0.00000  Uiso   1.00
C862   C     0.28059   0.84021   0.74037   0.00000  Uiso   1.00
C863   C     0.14134   0.85916   0.92055   0.00000  Uiso   1.00
C864   C     0.32598   0.84180   0.73702   0.00000  Uiso   1.00
C865   C     0.00794   0.82308   0.76521   0.00000  Uiso   1.00
C866   C     0.18027   0.98914   0.73673   0.00000  Uiso   1.00
C867   C     0.15182   0.67840   0.76399   0.00000  Uiso   1.00
C868   C     0.15601   0.72253   0.76034   0.00000  Uiso   1.00
C869   C     0.17652   0.94451   0.74025   0.00000  Uiso   1.00
C870   C     0.12479   0.90605   0.98805   0.00000  Uiso   1.00
C871   C     0.18477   0.81478   0.62927   0.00000  Uiso   1.00
C872   C     0.14823   0.85103   0.87121   0.00000  Uiso   1.00
C873   C     0.18368   0.74635   0.52493   0.00000  Uiso   1.00
C874   C     0.19136   0.80377   0.58108   0.00000  Uiso   1.00
C875   C     0.12769   0.89750   0.94250   0.00000  Uiso   1.00
C876   C     0.18589   0.72283   0.92632   0.00000  Uiso   1.00
C877   C     0.20508   0.87748   0.56056   0.00000  Uiso   1.00
C878   C     0.13918   0.87954   0.51145   0.00000  Uiso   1.00
C879   C     0.15680   0.84318   0.98984   0.00000  Uiso   1.00
C880   C     0.15193   0.83021   0.94618   0.00000  Uiso   1.00
C881   C     0.17523   0.81751   0.51225   0.00000  Uiso   1.00
C882   C     0.17806   0.77470   0.99581   0.00000  Uiso   1.00
C883   C     0.17212   0.76170   0.95239   0.00000  Uiso   1.00
C884   C     0.15726   0.78859   0.92956   0.00000  Uiso   1.00
H885   H     0.18956   0.73885   0.59047   0.00000  Uiso   1.00
H886   H     0.20643   0.67040   0.71175   0.00000  Uiso   1.00
H887   H     0.12529   0.99797   0.78911   0.00000  Uiso   1.00
H888   H     0.13517   0.88739   0.54697   0.00000  Uiso   1.00
H889   H     0.11243   0.93426   0.50539   0.00000  Uiso   1.00
H890   H     0.14910   0.77574   0.89873   0.00000  Uiso   1.00
H891   H     0.01463   0.85877   0.71047   0.00000  Uiso   1.00
H892   H     0.16685   0.70529   0.90478   0.00000  Uiso   1.00
H893   H     0.20104   0.89202   0.59435   0.00000  Uiso   1.00
O894   O     0.16667   0.83333   0.75000   0.00000  Uiso   1.00
O895   O     0.15451   0.79304   0.65458   0.00000  Uiso   1.00
O896   O     0.12940   0.87058   0.84968   0.00000  Uiso   1.00
O897   O     0.20824   0.84425   0.64606   0.00000  Uiso   1.00
O898   O     0.17451   0.82546   0.84968   0.00000  Uiso   1.00
O899   O     0.22022   0.71191   0.92595   0.00000  Uiso   1.00
O900   O     0.22390   0.89852   0.52963   0.00000  Uiso   1.00
O901   O     0.17930   0.74686   0.78213   0.00000  Uiso   1.00
O902   O     0.14632   0.92751   0.77013   0.00000  Uiso   1.00
O903   O     0.07412   0.79958   0.73413   0.00000  Uiso   1.00
O904   O     0.26693   0.85939   0.71360   0.00000  Uiso   1.00
O905   O     0.07071   0.85544   0.78213   0.00000  Uiso   1.00
O906   O     0.25491   0.81892   0.77013   0.00000  Uiso   1.00
O907   O     0.13760   0.73610   0.73413   0.00000  Uiso   1.00
O908   O     0.20345   0.92286   0.71360   0.00000  Uiso   1.00
Zn909  Zn    0.19338   0.80661   0.78734   0.00000  Uiso   1.00
Zn910  Zn    0.13379   0.79124   0.71875   0.00000  Uiso   1.00
Zn911  Zn    0.21056   0.86442   0.70657   0.00000  Uiso   1.00
Zn912  Zn    0.12893   0.87106   0.78733   0.00000  Uiso   1.00
Br913  Br    0.64237   0.79277   0.81564   0.00000  Uiso   1.00
Br914  Br    0.50602   0.68626   0.51662   0.00000  Uiso   1.00
Br915  Br    0.44668   0.94094   0.91351   0.00000  Uiso   1.00
C916   C     0.38640   0.82668   0.75945   0.00000  Uiso   1.00
C917   C     0.52246   0.83268   0.55175   0.00000  Uiso   1.00
C918   C     0.52242   0.76118   0.56716   0.00000  Uiso   1.00
C919   C     0.61392   0.84021   0.74037   0.00000  Uiso   1.00
C920   C     0.47468   0.85916   0.92055   0.00000  Uiso   1.00
C921   C     0.65931   0.84180   0.73702   0.00000  Uiso   1.00
C922   C     0.34128   0.82308   0.76521   0.00000  Uiso   1.00
C923   C     0.51360   0.98914   0.73673   0.00000  Uiso   1.00
C924   C     0.48516   0.67840   0.76399   0.00000  Uiso   1.00
C925   C     0.48934   0.72253   0.76034   0.00000  Uiso   1.00
C926   C     0.50985   0.94451   0.74025   0.00000  Uiso   1.00
C927   C     0.45813   0.90605   0.98805   0.00000  Uiso   1.00
C928   C     0.51811   0.81478   0.62927   0.00000  Uiso   1.00
C929   C     0.48156   0.85103   0.87121   0.00000  Uiso   1.00
C930   C     0.51702   0.74635   0.52493   0.00000  Uiso   1.00
C931   C     0.52470   0.80377   0.58108   0.00000  Uiso   1.00
C932   C     0.46102   0.89750   0.94250   0.00000  Uiso   1.00
C933   C     0.51922   0.72283   0.92632   0.00000  Uiso   1.00
C934   C     0.53841   0.87748   0.56056   0.00000  Uiso   1.00
C935   C     0.47251   0.87954   0.51145   0.00000  Uiso   1.00
C936   C     0.49013   0.84318   0.98984   0.00000  Uiso   1.00
C937   C     0.48526   0.83021   0.94618   0.00000  Uiso   1.00
C938   C     0.50856   0.81751   0.51225   0.00000  Uiso   1.00
C939   C     0.51140   0.77470   0.99581   0.00000  Uiso   1.00
C940   C     0.50545   0.76170   0.95239   0.00000  Uiso   1.00
C941   C     0.49060   0.78859   0.92956   0.00000  Uiso   1.00
H942   H     0.52290   0.73885   0.59047   0.00000  Uiso   1.00
H943   H     0.53976   0.67040   0.71175   0.00000  Uiso   1.00
H944   H     0.45862   0.99797   0.78911   0.00000  Uiso   1.00
H945   H     0.46850   0.88739   0.54697   0.00000  Uiso   1.00
H946   H     0.44577   0.93426   0.50539   0.00000  Uiso   1.00
H947   H     0.48243   0.77574   0.89873   0.00000  Uiso   1.00
H948   H     0.34796   0.85877   0.71047   0.00000  Uiso   1.00
H949   H     0.50018   0.70529   0.90478   0.00000  Uiso   1.00
H950   H     0.53437   0.89202   0.59435   0.00000  Uiso   1.00
O951   O     0.50000   0.83333   0.75000   0.00000  Uiso   1.00
O952   O     0.48784   0.79304   0.65458   0.00000  Uiso   1.00
O953   O     0.46274   0.87058   0.84968   0.00000  Uiso   1.00
O954   O     0.54157   0.84425   0.64606   0.00000  Uiso   1.00
O955   O     0.50785   0.82546   0.84968   0.00000  Uiso   1.00
O956   O     0.55355   0.71191   0.92595   0.00000  Uiso   1.00
O957   O     0.55724   0.89852   0.52963   0.00000  Uiso   1.00
O958   O     0.51264   0.74686   0.78213   0.00000  Uiso   1.00
O959   O     0.47965   0.92751   0.77013   0.00000  Uiso   1.00
O960   O     0.40745   0.79958   0.73413   0.00000  Uiso   1.00
O961   O     0.60026   0.85939   0.71360   0.00000  Uiso   1.00
O962   O     0.40405   0.85544   0.78213   0.00000  Uiso   1.00
O963   O     0.58824   0.81892   0.77013   0.00000  Uiso   1.00
O964   O     0.47093   0.73610   0.73413   0.00000  Uiso   1.00
O965   O     0.53678   0.92286   0.71360   0.00000  Uiso   1.00
Zn966  Zn    0.52672   0.80661   0.78734   0.00000  Uiso   1.00
Zn967  Zn    0.46713   0.79124   0.71875   0.00000  Uiso   1.00
Zn968  Zn    0.54389   0.86442   0.70657   0.00000  Uiso   1.00
Zn969  Zn    0.46226   0.87106   0.78733   0.00000  Uiso   1.00
Br970  Br    0.97570   0.79277   0.81564   0.00000  Uiso   1.00
Br971  Br    0.83936   0.68626   0.51662   0.00000  Uiso   1.00
Br972  Br    0.78001   0.94094   0.91351   0.00000  Uiso   1.00
C973   C     0.71973   0.82668   0.75945   0.00000  Uiso   1.00
C974   C     0.85579   0.83268   0.55175   0.00000  Uiso   1.00
C975   C     0.85575   0.76118   0.56716   0.00000  Uiso   1.00
C976   C     0.94726   0.84021   0.74037   0.00000  Uiso   1.00
C977   C     0.80801   0.85916   0.92055   0.00000  Uiso   1.00
C978   C     0.99265   0.84180   0.73702   0.00000  Uiso   1.00
C979   C     0.67461   0.82308   0.76521   0.00000  Uiso   1.00
C980   C     0.84694   0.98914   0.73673   0.00000  Uiso   1.00
C981   C     0.81849   0.67840   0.76399   0.00000  Uiso   1.00
C982   C     0.82267   0.72253   0.76034   0.00000  Uiso   1.00
C983   C     0.84318   0.94451   0.74025   0.00000  Uiso   1.00
C984   C     0.79146   0.90605   0.98805   0.00000  Uiso   1.00
C985   C     0.85144   0.81478   0.62927   0.00000  Uiso   1.00
C986   C     0.81490   0.85103   0.87121   0.00000  Uiso   1.00
C987   C     0.85035   0.74635   0.52493   0.00000  Uiso   1.00
C988   C     0.85803   0.80377   0.58108   0.00000  Uiso   1.00
C989   C     0.79436   0.89750   0.94250   0.00000  Uiso   1.00
C990   C     0.85255   0.72283   0.92632   0.00000  Uiso   1.00
C991   C     0.87174   0.87748   0.56056   0.00000  Uiso   1.00
C992   C     0.80584   0.87954   0.51145   0.00000  Uiso   1.00
C993   C     0.82347   0.84318   0.98984   0.00000  Uiso   1.00
C994   C     0.81860   0.83021   0.94618   0.00000  Uiso   1.00
C995   C     0.84190   0.81751   0.51225   0.00000  Uiso   1.00
C996   C     0.84473   0.77470   0.99581   0.00000  Uiso   1.00
C997   C     0.83879   0.76170   0.95239   0.00000  Uiso   1.00
C998   C     0.82393   0.78859   0.92956   0.00000  Uiso   1.00
H999   H     0.85623   0.73885   0.59047   0.00000  Uiso   1.00
H1000  H     0.87309   0.67040   0.71175   0.00000  Uiso   1.00
H1001  H     0.79195   0.99797   0.78911   0.00000  Uiso   1.00
H1002  H     0.80184   0.88739   0.54697   0.00000  Uiso   1.00
H1003  H     0.77910   0.93426   0.50539   0.00000  Uiso   1.00
H1004  H     0.81576   0.77574   0.89873   0.00000  Uiso   1.00
H1005  H     0.68130   0.85877   0.71047   0.00000  Uiso   1.00
H1006  H     0.83351   0.70529   0.90478   0.00000  Uiso   1.00
H1007  H     0.86770   0.89202   0.59435   0.00000  Uiso   1.00
O1008  O     0.83333   0.83333   0.75000   0.00000  Uiso   1.00
O1009  O     0.82118   0.79304   0.65458   0.00000  Uiso   1.00
O1010  O     0.79607   0.87058   0.84968   0.00000  Uiso   1.00
O1011  O     0.87491   0.84425   0.64606   0.00000  Uiso   1.00
O1012  O     0.84118   0.82546   0.84968   0.00000  Uiso   1.00
O1013  O     0.88688   0.71191   0.92595   0.00000  Uiso   1.00
O1014  O     0.89057   0.89852   0.52963   0.00000  Uiso   1.00
O1015  O     0.84597   0.74686   0.78213   0.00000  Uiso   1.00
O1016  O     0.81298   0.92751   0.77013   0.00000  Uiso   1.00
O1017  O     0.74078   0.79958   0.73413   0.00000  Uiso   1.00
O1018  O     0.93360   0.85939   0.71360   0.00000  Uiso   1.00
O1019  O     0.73738   0.85544   0.78213   0.00000  Uiso   1.00
O1020  O     0.92158   0.81892   0.77013   0.00000  Uiso   1.00
O1021  O     0.80426   0.73610   0.73413   0.00000  Uiso   1.00
O1022  O     0.87012   0.92286   0.71360   0.00000  Uiso   1.00
Zn1023 Zn    0.86005   0.80661   0.78734   0.00000  Uiso   1.00
Zn1024 Zn    0.80046   0.79124   0.71875   0.00000  Uiso   1.00
Zn1025 Zn    0.87723   0.86442   0.70657   0.00000  Uiso   1.00
Zn1026 Zn    0.79560   0.87106   0.78733   0.00000  Uiso   1.00
loop_
_geom_bond_atom_site_label_1
_geom_bond_atom_site_label_2
_geom_bond_distance
_geom_bond_site_symmetry_2
_ccdc_geom_bond_type
Br1    C67     1.932   .     S
Br2    C18     1.929   .     S
Br3    C20     1.926   .     S
C4     O48     1.266   .     A
C4     C10     1.428   .     S
C4     O50     1.264   .     A
C5     C19     1.400   .     A
C5     C26     1.425   .     A
C5     C22     1.489   .     S
C6     C19     1.396   .     A
C6     H30     1.085   .     S
C6     C18     1.388   .     A
C7     O51     1.271   .     A
C7     O49     1.289   .     A
C7     C9      1.454   .     S
C8     C25     1.428   .     A
C8     C20     1.421   .     A
C8     C17     1.487   .     S
C9     C67     1.347   .     S
C9     H93     1.088   .     S
C10    C123    1.347   1_455 S
C10    Br115   1.932   1_455 S
C11    C14     1.449   .     S
C11    C183    1.330   .     S
C11    H202    1.088   .     S
C12    C13     1.432   .     S
C12    C353    1.330   1_545 S
C12    H374    1.086   1_545 S
C13    O52     1.275   .     A
C13    O46     1.274   .     A
C14    O47     1.276   .     A
C14    O53     1.275   .     A
C15    C20     1.390   .     A
C15    C536    1.386   .     S
C15    H547    1.083   .     S
C16    O40     1.273   .     A
C16    C19     1.464   .     S
C16    O42     1.284   .     A
C17    O43     1.287   .     A
C17    O41     1.283   .     A
C18    C540    1.421   1_554 S
C21    C28     1.480   .     S
C21    O44     1.221   .     D
C21    H37     1.086   .     S
C22    O45     1.221   .     D
C22    H38     1.082   .     S
C23    H33     1.080   .     S
C23    C528    1.386   1_554 S
C23    C537    1.410   1_554 S
C24    C25     1.413   .     A
C24    C536    1.410   .     S
C24    C539    1.425   .     S
C25    C29     1.407   .     A
C26    C537    1.425   1_554 S
C26    C540    1.431   1_554 S
C27    C28     1.417   .     A
C27    C539    1.431   .     S
C27    C531    1.421   .     S
C28    C29     1.392   .     A
C29    H35     1.080   .     S
H31    C353    1.088   1_545 S
H32    C183    1.086   .     S
H34    C528    1.083   1_554 S
H36    C123    1.088   1_455 S
O39    Zn56    1.948   .     S
O39    Zn54    1.954   .     S
O39    Zn55    1.938   .     S
O39    Zn57    1.934   .     S
O40    Zn55    1.936   .     S
O41    Zn57    1.939   .     S
O42    Zn56    1.932   .     S
O43    Zn54    1.929   .     S
O46    Zn54    1.923   .     S
O47    Zn57    1.930   .     S
O48    Zn55    1.937   .     S
O49    Zn56    1.941   .     S
O50    Zn57    1.939   .     S
O51    Zn54    1.937   .     S
O52    Zn55    1.931   .     S
O53    Zn56    1.923   .     S
Br58   C124    1.932   .     S
Br59   C75     1.929   .     S
Br60   C77     1.926   .     S
C61    O105    1.266   .     A
C61    C67     1.428   .     S
C61    O107    1.264   .     A
C62    C76     1.400   .     A
C62    C83     1.425   .     A
C62    C79     1.489   .     S
C63    C76     1.396   .     A
C63    H87     1.085   .     S
C63    C75     1.388   .     A
C64    O108    1.271   .     A
C64    O106    1.289   .     A
C64    C66     1.454   .     S
C65    C82     1.428   .     A
C65    C77     1.421   .     A
C65    C74     1.487   .     S
C66    C124    1.347   .     S
C66    H150    1.088   .     S
C68    C71     1.449   .     S
C68    C240    1.330   .     S
C68    H259    1.088   .     S
C69    C70     1.432   .     S
C69    C410    1.330   1_545 S
C69    H431    1.086   1_545 S
C70    O109    1.275   .     A
C70    O103    1.274   .     A
C71    O104    1.276   .     A
C71    O110    1.275   .     A
C72    C77     1.390   .     A
C72    C593    1.386   .     S
C72    H604    1.083   .     S
C73    O97     1.273   .     A
C73    C76     1.464   .     S
C73    O99     1.284   .     A
C74    O100    1.287   .     A
C74    O98     1.283   .     A
C75    C597    1.421   1_554 S
C78    C85     1.480   .     S
C78    O101    1.221   .     D
C78    H94     1.086   .     S
C79    O102    1.221   .     D
C79    H95     1.082   .     S
C80    H90     1.080   .     S
C80    C585    1.386   1_554 S
C80    C594    1.410   1_554 S
C81    C82     1.413   .     A
C81    C593    1.410   .     S
C81    C596    1.425   .     S
C82    C86     1.407   .     A
C83    C594    1.425   1_554 S
C83    C597    1.431   1_554 S
C84    C85     1.417   .     A
C84    C596    1.431   .     S
C84    C588    1.421   .     S
C85    C86     1.392   .     A
C86    H92     1.080   .     S
H88    C410    1.088   1_545 S
H89    C240    1.086   .     S
H91    C585    1.083   1_554 S
O96    Zn113   1.948   .     S
O96    Zn111   1.954   .     S
O96    Zn112   1.938   .     S
O96    Zn114   1.934   .     S
O97    Zn112   1.936   .     S
O98    Zn114   1.939   .     S
O99    Zn113   1.932   .     S
O100   Zn111   1.929   .     S
O103   Zn111   1.923   .     S
O104   Zn114   1.930   .     S
O105   Zn112   1.937   .     S
O106   Zn113   1.941   .     S
O107   Zn114   1.939   .     S
O108   Zn111   1.937   .     S
O109   Zn112   1.931   .     S
O110   Zn113   1.923   .     S
Br115  C10     1.932   1_655 S
Br116  C132    1.929   .     S
Br117  C134    1.926   .     S
C118   O162    1.266   .     A
C118   C124    1.428   .     S
C118   O164    1.264   .     A
C119   C133    1.400   .     A
C119   C140    1.425   .     A
C119   C136    1.489   .     S
C120   C133    1.396   .     A
C120   H144    1.085   .     S
C120   C132    1.388   .     A
C121   O165    1.271   .     A
C121   O163    1.289   .     A
C121   C123    1.454   .     S
C122   C139    1.428   .     A
C122   C134    1.421   .     A
C122   C131    1.487   .     S
C123   C10     1.347   1_655 S
C123   H36     1.088   1_655 S
C125   C128    1.449   .     S
C125   C297    1.330   .     S
C125   H316    1.088   .     S
C126   C127    1.432   .     S
C126   C467    1.330   1_545 S
C126   H488    1.086   1_545 S
C127   O166    1.275   .     A
C127   O160    1.274   .     A
C128   O161    1.276   .     A
C128   O167    1.275   .     A
C129   C134    1.390   .     A
C129   C650    1.386   .     S
C129   H661    1.083   .     S
C130   O154    1.273   .     A
C130   C133    1.464   .     S
C130   O156    1.284   .     A
C131   O157    1.287   .     A
C131   O155    1.283   .     A
C132   C654    1.421   1_554 S
C135   C142    1.480   .     S
C135   O158    1.221   .     D
C135   H151    1.086   .     S
C136   O159    1.221   .     D
C136   H152    1.082   .     S
C137   H147    1.080   .     S
C137   C642    1.386   1_554 S
C137   C651    1.410   1_554 S
C138   C139    1.413   .     A
C138   C650    1.410   .     S
C138   C653    1.425   .     S
C139   C143    1.407   .     A
C140   C651    1.425   1_554 S
C140   C654    1.431   1_554 S
C141   C142    1.417   .     A
C141   C653    1.431   .     S
C141   C645    1.421   .     S
C142   C143    1.392   .     A
C143   H149    1.080   .     S
H145   C467    1.088   1_545 S
H146   C297    1.086   .     S
H148   C642    1.083   1_554 S
O153   Zn170   1.948   .     S
O153   Zn168   1.954   .     S
O153   Zn169   1.938   .     S
O153   Zn171   1.934   .     S
O154   Zn169   1.936   .     S
O155   Zn171   1.939   .     S
O156   Zn170   1.932   .     S
O157   Zn168   1.929   .     S
O160   Zn168   1.923   .     S
O161   Zn171   1.930   .     S
O162   Zn169   1.937   .     S
O163   Zn170   1.941   .     S
O164   Zn171   1.939   .     S
O165   Zn168   1.937   .     S
O166   Zn169   1.931   .     S
O167   Zn170   1.923   .     S
Br172  C238    1.932   .     S
Br173  C189    1.929   .     S
Br174  C191    1.926   .     S
C175   O219    1.266   .     A
C175   C181    1.428   .     S
C175   O221    1.264   .     A
C176   C190    1.400   .     A
C176   C197    1.425   .     A
C176   C193    1.489   .     S
C177   C190    1.396   .     A
C177   H201    1.085   .     S
C177   C189    1.388   .     A
C178   O222    1.271   .     A
C178   O220    1.289   .     A
C178   C180    1.454   .     S
C179   C196    1.428   .     A
C179   C191    1.421   .     A
C179   C188    1.487   .     S
C180   C238    1.347   .     S
C180   H264    1.088   .     S
C181   C294    1.347   1_455 S
C181   Br286   1.932   1_455 S
C182   C185    1.449   .     S
C182   C354    1.330   .     S
C182   H373    1.088   .     S
C183   C184    1.432   .     S
C184   O223    1.275   .     A
C184   O217    1.274   .     A
C185   O218    1.276   .     A
C185   O224    1.275   .     A
C186   C191    1.390   .     A
C186   C707    1.386   .     S
C186   H718    1.083   .     S
C187   O211    1.273   .     A
C187   C190    1.464   .     S
C187   O213    1.284   .     A
C188   O214    1.287   .     A
C188   O212    1.283   .     A
C189   C711    1.421   1_554 S
C192   C199    1.480   .     S
C192   O215    1.221   .     D
C192   H208    1.086   .     S
C193   O216    1.221   .     D
C193   H209    1.082   .     S
C194   H204    1.080   .     S
C194   C699    1.386   1_554 S
C194   C708    1.410   1_554 S
C195   C196    1.413   .     A
C195   C707    1.410   .     S
C195   C710    1.425   .     S
C196   C200    1.407   .     A
C197   C708    1.425   1_554 S
C197   C711    1.431   1_554 S
C198   C199    1.417   .     A
C198   C710    1.431   .     S
C198   C702    1.421   .     S
C199   C200    1.392   .     A
C200   H206    1.080   .     S
H203   C354    1.086   .     S
H205   C699    1.083   1_554 S
H207   C294    1.088   1_455 S
O210   Zn227   1.948   .     S
O210   Zn225   1.954   .     S
O210   Zn226   1.938   .     S
O210   Zn228   1.934   .     S
O211   Zn226   1.936   .     S
O212   Zn228   1.939   .     S
O213   Zn227   1.932   .     S
O214   Zn225   1.929   .     S
O217   Zn225   1.923   .     S
O218   Zn228   1.930   .     S
O219   Zn226   1.937   .     S
O220   Zn227   1.941   .     S
O221   Zn228   1.939   .     S
O222   Zn225   1.937   .     S
O223   Zn226   1.931   .     S
O224   Zn227   1.923   .     S
Br229  C295    1.932   .     S
Br230  C246    1.929   .     S
Br231  C248    1.926   .     S
C232   O276    1.266   .     A
C232   C238    1.428   .     S
C232   O278    1.264   .     A
C233   C247    1.400   .     A
C233   C254    1.425   .     A
C233   C250    1.489   .     S
C234   C247    1.396   .     A
C234   H258    1.085   .     S
C234   C246    1.388   .     A
C235   O279    1.271   .     A
C235   O277    1.289   .     A
C235   C237    1.454   .     S
C236   C253    1.428   .     A
C236   C248    1.421   .     A
C236   C245    1.487   .     S
C237   C295    1.347   .     S
C237   H321    1.088   .     S
C239   C242    1.449   .     S
C239   C411    1.330   .     S
C239   H430    1.088   .     S
C240   C241    1.432   .     S
C241   O280    1.275   .     A
C241   O274    1.274   .     A
C242   O275    1.276   .     A
C242   O281    1.275   .     A
C243   C248    1.390   .     A
C243   C764    1.386   .     S
C243   H775    1.083   .     S
C244   O268    1.273   .     A
C244   C247    1.464   .     S
C244   O270    1.284   .     A
C245   O271    1.287   .     A
C245   O269    1.283   .     A
C246   C768    1.421   1_554 S
C249   C256    1.480   .     S
C249   O272    1.221   .     D
C249   H265    1.086   .     S
C250   O273    1.221   .     D
C250   H266    1.082   .     S
C251   H261    1.080   .     S
C251   C756    1.386   1_554 S
C251   C765    1.410   1_554 S
C252   C253    1.413   .     A
C252   C764    1.410   .     S
C252   C767    1.425   .     S
C253   C257    1.407   .     A
C254   C765    1.425   1_554 S
C254   C768    1.431   1_554 S
C255   C256    1.417   .     A
C255   C767    1.431   .     S
C255   C759    1.421   .     S
C256   C257    1.392   .     A
C257   H263    1.080   .     S
H260   C411    1.086   .     S
H262   C756    1.083   1_554 S
O267   Zn284   1.948   .     S
O267   Zn282   1.954   .     S
O267   Zn283   1.938   .     S
O267   Zn285   1.934   .     S
O268   Zn283   1.936   .     S
O269   Zn285   1.939   .     S
O270   Zn284   1.932   .     S
O271   Zn282   1.929   .     S
O274   Zn282   1.923   .     S
O275   Zn285   1.930   .     S
O276   Zn283   1.937   .     S
O277   Zn284   1.941   .     S
O278   Zn285   1.939   .     S
O279   Zn282   1.937   .     S
O280   Zn283   1.931   .     S
O281   Zn284   1.923   .     S
Br286  C181    1.932   1_655 S
Br287  C303    1.929   .     S
Br288  C305    1.926   .     S
C289   O333    1.266   .     A
C289   C295    1.428   .     S
C289   O335    1.264   .     A
C290   C304    1.400   .     A
C290   C311    1.425   .     A
C290   C307    1.489   .     S
C291   C304    1.396   .     A
C291   H315    1.085   .     S
C291   C303    1.388   .     A
C292   O336    1.271   .     A
C292   O334    1.289   .     A
C292   C294    1.454   .     S
C293   C310    1.428   .     A
C293   C305    1.421   .     A
C293   C302    1.487   .     S
C294   C181    1.347   1_655 S
C294   H207    1.088   1_655 S
C296   C299    1.449   .     S
C296   C468    1.330   .     S
C296   H487    1.088   .     S
C297   C298    1.432   .     S
C298   O337    1.275   .     A
C298   O331    1.274   .     A
C299   O332    1.276   .     A
C299   O338    1.275   .     A
C300   C305    1.390   .     A
C300   C821    1.386   .     S
C300   H832    1.083   .     S
C301   O325    1.273   .     A
C301   C304    1.464   .     S
C301   O327    1.284   .     A
C302   O328    1.287   .     A
C302   O326    1.283   .     A
C303   C825    1.421   1_554 S
C306   C313    1.480   .     S
C306   O329    1.221   .     D
C306   H322    1.086   .     S
C307   O330    1.221   .     D
C307   H323    1.082   .     S
C308   H318    1.080   .     S
C308   C813    1.386   1_554 S
C308   C822    1.410   1_554 S
C309   C310    1.413   .     A
C309   C821    1.410   .     S
C309   C824    1.425   .     S
C310   C314    1.407   .     A
C311   C822    1.425   1_554 S
C311   C825    1.431   1_554 S
C312   C313    1.417   .     A
C312   C824    1.431   .     S
C312   C816    1.421   .     S
C313   C314    1.392   .     A
C314   H320    1.080   .     S
H317   C468    1.086   .     S
H319   C813    1.083   1_554 S
O324   Zn341   1.948   .     S
O324   Zn339   1.954   .     S
O324   Zn340   1.938   .     S
O324   Zn342   1.934   .     S
O325   Zn340   1.936   .     S
O326   Zn342   1.939   .     S
O327   Zn341   1.932   .     S
O328   Zn339   1.929   .     S
O331   Zn339   1.923   .     S
O332   Zn342   1.930   .     S
O333   Zn340   1.937   .     S
O334   Zn341   1.941   .     S
O335   Zn342   1.939   .     S
O336   Zn339   1.937   .     S
O337   Zn340   1.931   .     S
O338   Zn341   1.923   .     S
Br343  C409    1.932   .     S
Br344  C360    1.929   .     S
Br345  C362    1.926   .     S
C346   O390    1.266   .     A
C346   C352    1.428   .     S
C346   O392    1.264   .     A
C347   C361    1.400   .     A
C347   C368    1.425   .     A
C347   C364    1.489   .     S
C348   C361    1.396   .     A
C348   H372    1.085   .     S
C348   C360    1.388   .     A
C349   O393    1.271   .     A
C349   O391    1.289   .     A
C349   C351    1.454   .     S
C350   C367    1.428   .     A
C350   C362    1.421   .     A
C350   C359    1.487   .     S
C351   C409    1.347   .     S
C351   H435    1.088   .     S
C352   C465    1.347   1_455 S
C352   Br457   1.932   1_455 S
C353   C356    1.449   .     S
C353   C12     1.330   1_565 S
C353   H31     1.088   1_565 S
C354   C355    1.432   .     S
C355   O394    1.275   .     A
C355   O388    1.274   .     A
C356   O389    1.276   .     A
C356   O395    1.275   .     A
C357   C362    1.390   .     A
C357   C878    1.386   .     S
C357   H889    1.083   .     S
C358   O382    1.273   .     A
C358   C361    1.464   .     S
C358   O384    1.284   .     A
C359   O385    1.287   .     A
C359   O383    1.283   .     A
C360   C882    1.421   1_554 S
C363   C370    1.480   .     S
C363   O386    1.221   .     D
C363   H379    1.086   .     S
C364   O387    1.221   .     D
C364   H380    1.082   .     S
C365   H375    1.080   .     S
C365   C870    1.386   1_554 S
C365   C879    1.410   1_554 S
C366   C367    1.413   .     A
C366   C878    1.410   .     S
C366   C881    1.425   .     S
C367   C371    1.407   .     A
C368   C879    1.425   1_554 S
C368   C882    1.431   1_554 S
C369   C370    1.417   .     A
C369   C881    1.431   .     S
C369   C873    1.421   .     S
C370   C371    1.392   .     A
C371   H377    1.080   .     S
H374   C12     1.086   1_565 S
H376   C870    1.083   1_554 S
H378   C465    1.088   1_455 S
O381   Zn398   1.948   .     S
O381   Zn396   1.954   .     S
O381   Zn397   1.938   .     S
O381   Zn399   1.934   .     S
O382   Zn397   1.936   .     S
O383   Zn399   1.939   .     S
O384   Zn398   1.932   .     S
O385   Zn396   1.929   .     S
O388   Zn396   1.923   .     S
O389   Zn399   1.930   .     S
O390   Zn397   1.937   .     S
O391   Zn398   1.941   .     S
O392   Zn399   1.939   .     S
O393   Zn396   1.937   .     S
O394   Zn397   1.931   .     S
O395   Zn398   1.923   .     S
Br400  C466    1.932   .     S
Br401  C417    1.929   .     S
Br402  C419    1.926   .     S
C403   O447    1.266   .     A
C403   C409    1.428   .     S
C403   O449    1.264   .     A
C404   C418    1.400   .     A
C404   C425    1.425   .     A
C404   C421    1.489   .     S
C405   C418    1.396   .     A
C405   H429    1.085   .     S
C405   C417    1.388   .     A
C406   O450    1.271   .     A
C406   O448    1.289   .     A
C406   C408    1.454   .     S
C407   C424    1.428   .     A
C407   C419    1.421   .     A
C407   C416    1.487   .     S
C408   C466    1.347   .     S
C408   H492    1.088   .     S
C410   C413    1.449   .     S
C410   C69     1.330   1_565 S
C410   H88     1.088   1_565 S
C411   C412    1.432   .     S
C412   O451    1.275   .     A
C412   O445    1.274   .     A
C413   O446    1.276   .     A
C413   O452    1.275   .     A
C414   C419    1.390   .     A
C414   C935    1.386   .     S
C414   H946    1.083   .     S
C415   O439    1.273   .     A
C415   C418    1.464   .     S
C415   O441    1.284   .     A
C416   O442    1.287   .     A
C416   O440    1.283   .     A
C417   C939    1.421   1_554 S
C420   C427    1.480   .     S
C420   O443    1.221   .     D
C420   H436    1.086   .     S
C421   O444    1.221   .     D
C421   H437    1.082   .     S
C422   H432    1.080   .     S
C422   C927    1.386   1_554 S
C422   C936    1.410   1_554 S
C423   C424    1.413   .     A
C423   C935    1.410   .     S
C423   C938    1.425   .     S
C424   C428    1.407   .     A
C425   C936    1.425   1_554 S
C425   C939    1.431   1_554 S
C426   C427    1.417   .     A
C426   C938    1.431   .     S
C426   C930    1.421   .     S
C427   C428    1.392   .     A
C428   H434    1.080   .     S
H431   C69     1.086   1_565 S
H433   C927    1.083   1_554 S
O438   Zn455   1.948   .     S
O438   Zn453   1.954   .     S
O438   Zn454   1.938   .     S
O438   Zn456   1.934   .     S
O439   Zn454   1.936   .     S
O440   Zn456   1.939   .     S
O441   Zn455   1.932   .     S
O442   Zn453   1.929   .     S
O445   Zn453   1.923   .     S
O446   Zn456   1.930   .     S
O447   Zn454   1.937   .     S
O448   Zn455   1.941   .     S
O449   Zn456   1.939   .     S
O450   Zn453   1.937   .     S
O451   Zn454   1.931   .     S
O452   Zn455   1.923   .     S
Br457  C352    1.932   1_655 S
Br458  C474    1.929   .     S
Br459  C476    1.926   .     S
C460   O504    1.266   .     A
C460   C466    1.428   .     S
C460   O506    1.264   .     A
C461   C475    1.400   .     A
C461   C482    1.425   .     A
C461   C478    1.489   .     S
C462   C475    1.396   .     A
C462   H486    1.085   .     S
C462   C474    1.388   .     A
C463   O507    1.271   .     A
C463   O505    1.289   .     A
C463   C465    1.454   .     S
C464   C481    1.428   .     A
C464   C476    1.421   .     A
C464   C473    1.487   .     S
C465   C352    1.347   1_655 S
C465   H378    1.088   1_655 S
C467   C470    1.449   .     S
C467   C126    1.330   1_565 S
C467   H145    1.088   1_565 S
C468   C469    1.432   .     S
C469   O508    1.275   .     A
C469   O502    1.274   .     A
C470   O503    1.276   .     A
C470   O509    1.275   .     A
C471   C476    1.390   .     A
C471   C992    1.386   .     S
C471   H1003   1.083   .     S
C472   O496    1.273   .     A
C472   C475    1.464   .     S
C472   O498    1.284   .     A
C473   O499    1.287   .     A
C473   O497    1.283   .     A
C474   C996    1.421   1_554 S
C477   C484    1.480   .     S
C477   O500    1.221   .     D
C477   H493    1.086   .     S
C478   O501    1.221   .     D
C478   H494    1.082   .     S
C479   H489    1.080   .     S
C479   C984    1.386   1_554 S
C479   C993    1.410   1_554 S
C480   C481    1.413   .     A
C480   C992    1.410   .     S
C480   C995    1.425   .     S
C481   C485    1.407   .     A
C482   C993    1.425   1_554 S
C482   C996    1.431   1_554 S
C483   C484    1.417   .     A
C483   C995    1.431   .     S
C483   C987    1.421   .     S
C484   C485    1.392   .     A
C485   H491    1.080   .     S
H488   C126    1.086   1_565 S
H490   C984    1.083   1_554 S
O495   Zn512   1.948   .     S
O495   Zn510   1.954   .     S
O495   Zn511   1.938   .     S
O495   Zn513   1.934   .     S
O496   Zn511   1.936   .     S
O497   Zn513   1.939   .     S
O498   Zn512   1.932   .     S
O499   Zn510   1.929   .     S
O502   Zn510   1.923   .     S
O503   Zn513   1.930   .     S
O504   Zn511   1.937   .     S
O505   Zn512   1.941   .     S
O506   Zn513   1.939   .     S
O507   Zn510   1.937   .     S
O508   Zn511   1.931   .     S
O509   Zn512   1.923   .     S
Br514  C580    1.932   .     S
Br515  C531    1.929   .     S
Br516  C533    1.926   .     S
C517   O561    1.266   .     A
C517   C523    1.428   .     S
C517   O563    1.264   .     A
C518   C532    1.400   .     A
C518   C539    1.425   .     A
C518   C535    1.489   .     S
C519   C532    1.396   .     A
C519   H543    1.085   .     S
C519   C531    1.388   .     A
C520   O564    1.271   .     A
C520   O562    1.289   .     A
C520   C522    1.454   .     S
C521   C538    1.428   .     A
C521   C533    1.421   .     A
C521   C530    1.487   .     S
C522   C580    1.347   .     S
C522   H606    1.088   .     S
C523   C636    1.347   1_455 S
C523   Br628   1.932   1_455 S
C524   C527    1.449   .     S
C524   C696    1.330   .     S
C524   H715    1.088   .     S
C525   C526    1.432   .     S
C525   C866    1.330   1_545 S
C525   H887    1.086   1_545 S
C526   O565    1.275   .     A
C526   O559    1.274   .     A
C527   O560    1.276   .     A
C527   O566    1.275   .     A
C528   C533    1.390   .     A
C528   C23     1.386   1_556 S
C528   H34     1.083   1_556 S
C529   O553    1.273   .     A
C529   C532    1.464   .     S
C529   O555    1.284   .     A
C530   O556    1.287   .     A
C530   O554    1.283   .     A
C534   C541    1.480   .     S
C534   O557    1.221   .     D
C534   H550    1.086   .     S
C535   O558    1.221   .     D
C535   H551    1.082   .     S
C536   H546    1.080   .     S
C537   C538    1.413   .     A
C537   C23     1.410   1_556 S
C537   C26     1.425   1_556 S
C538   C542    1.407   .     A
C540   C541    1.417   .     A
C540   C26     1.431   1_556 S
C540   C18     1.421   1_556 S
C541   C542    1.392   .     A
C542   H548    1.080   .     S
H544   C866    1.088   1_545 S
H545   C696    1.086   .     S
H549   C636    1.088   1_455 S
O552   Zn569   1.948   .     S
O552   Zn567   1.954   .     S
O552   Zn568   1.938   .     S
O552   Zn570   1.934   .     S
O553   Zn568   1.936   .     S
O554   Zn570   1.939   .     S
O555   Zn569   1.932   .     S
O556   Zn567   1.929   .     S
O559   Zn567   1.923   .     S
O560   Zn570   1.930   .     S
O561   Zn568   1.937   .     S
O562   Zn569   1.941   .     S
O563   Zn570   1.939   .     S
O564   Zn567   1.937   .     S
O565   Zn568   1.931   .     S
O566   Zn569   1.923   .     S
Br571  C637    1.932   .     S
Br572  C588    1.929   .     S
Br573  C590    1.926   .     S
C574   O618    1.266   .     A
C574   C580    1.428   .     S
C574   O620    1.264   .     A
C575   C589    1.400   .     A
C575   C596    1.425   .     A
C575   C592    1.489   .     S
C576   C589    1.396   .     A
C576   H600    1.085   .     S
C576   C588    1.388   .     A
C577   O621    1.271   .     A
C577   O619    1.289   .     A
C577   C579    1.454   .     S
C578   C595    1.428   .     A
C578   C590    1.421   .     A
C578   C587    1.487   .     S
C579   C637    1.347   .     S
C579   H663    1.088   .     S
C581   C584    1.449   .     S
C581   C753    1.330   .     S
C581   H772    1.088   .     S
C582   C583    1.432   .     S
C582   C923    1.330   1_545 S
C582   H944    1.086   1_545 S
C583   O622    1.275   .     A
C583   O616    1.274   .     A
C584   O617    1.276   .     A
C584   O623    1.275   .     A
C585   C590    1.390   .     A
C585   C80     1.386   1_556 S
C585   H91     1.083   1_556 S
C586   O610    1.273   .     A
C586   C589    1.464   .     S
C586   O612    1.284   .     A
C587   O613    1.287   .     A
C587   O611    1.283   .     A
C591   C598    1.480   .     S
C591   O614    1.221   .     D
C591   H607    1.086   .     S
C592   O615    1.221   .     D
C592   H608    1.082   .     S
C593   H603    1.080   .     S
C594   C595    1.413   .     A
C594   C80     1.410   1_556 S
C594   C83     1.425   1_556 S
C595   C599    1.407   .     A
C597   C598    1.417   .     A
C597   C83     1.431   1_556 S
C597   C75     1.421   1_556 S
C598   C599    1.392   .     A
C599   H605    1.080   .     S
H601   C923    1.088   1_545 S
H602   C753    1.086   .     S
O609   Zn626   1.948   .     S
O609   Zn624   1.954   .     S
O609   Zn625   1.938   .     S
O609   Zn627   1.934   .     S
O610   Zn625   1.936   .     S
O611   Zn627   1.939   .     S
O612   Zn626   1.932   .     S
O613   Zn624   1.929   .     S
O616   Zn624   1.923   .     S
O617   Zn627   1.930   .     S
O618   Zn625   1.937   .     S
O619   Zn626   1.941   .     S
O620   Zn627   1.939   .     S
O621   Zn624   1.937   .     S
O622   Zn625   1.931   .     S
O623   Zn626   1.923   .     S
Br628  C523    1.932   1_655 S
Br629  C645    1.929   .     S
Br630  C647    1.926   .     S
C631   O675    1.266   .     A
C631   C637    1.428   .     S
C631   O677    1.264   .     A
C632   C646    1.400   .     A
C632   C653    1.425   .     A
C632   C649    1.489   .     S
C633   C646    1.396   .     A
C633   H657    1.085   .     S
C633   C645    1.388   .     A
C634   O678    1.271   .     A
C634   O676    1.289   .     A
C634   C636    1.454   .     S
C635   C652    1.428   .     A
C635   C647    1.421   .     A
C635   C644    1.487   .     S
C636   C523    1.347   1_655 S
C636   H549    1.088   1_655 S
C638   C641    1.449   .     S
C638   C810    1.330   .     S
C638   H829    1.088   .     S
C639   C640    1.432   .     S
C639   C980    1.330   1_545 S
C639   H1001   1.086   1_545 S
C640   O679    1.275   .     A
C640   O673    1.274   .     A
C641   O674    1.276   .     A
C641   O680    1.275   .     A
C642   C647    1.390   .     A
C642   C137    1.386   1_556 S
C642   H148    1.083   1_556 S
C643   O667    1.273   .     A
C643   C646    1.464   .     S
C643   O669    1.284   .     A
C644   O670    1.287   .     A
C644   O668    1.283   .     A
C648   C655    1.480   .     S
C648   O671    1.221   .     D
C648   H664    1.086   .     S
C649   O672    1.221   .     D
C649   H665    1.082   .     S
C650   H660    1.080   .     S
C651   C652    1.413   .     A
C651   C137    1.410   1_556 S
C651   C140    1.425   1_556 S
C652   C656    1.407   .     A
C654   C655    1.417   .     A
C654   C140    1.431   1_556 S
C654   C132    1.421   1_556 S
C655   C656    1.392   .     A
C656   H662    1.080   .     S
H658   C980    1.088   1_545 S
H659   C810    1.086   .     S
O666   Zn683   1.948   .     S
O666   Zn681   1.954   .     S
O666   Zn682   1.938   .     S
O666   Zn684   1.934   .     S
O667   Zn682   1.936   .     S
O668   Zn684   1.939   .     S
O669   Zn683   1.932   .     S
O670   Zn681   1.929   .     S
O673   Zn681   1.923   .     S
O674   Zn684   1.930   .     S
O675   Zn682   1.937   .     S
O676   Zn683   1.941   .     S
O677   Zn684   1.939   .     S
O678   Zn681   1.937   .     S
O679   Zn682   1.931   .     S
O680   Zn683   1.923   .     S
Br685  C751    1.932   .     S
Br686  C702    1.929   .     S
Br687  C704    1.926   .     S
C688   O732    1.266   .     A
C688   C694    1.428   .     S
C688   O734    1.264   .     A
C689   C703    1.400   .     A
C689   C710    1.425   .     A
C689   C706    1.489   .     S
C690   C703    1.396   .     A
C690   H714    1.085   .     S
C690   C702    1.388   .     A
C691   O735    1.271   .     A
C691   O733    1.289   .     A
C691   C693    1.454   .     S
C692   C709    1.428   .     A
C692   C704    1.421   .     A
C692   C701    1.487   .     S
C693   C751    1.347   .     S
C693   H777    1.088   .     S
C694   C807    1.347   1_455 S
C694   Br799   1.932   1_455 S
C695   C698    1.449   .     S
C695   C867    1.330   .     S
C695   H886    1.088   .     S
C696   C697    1.432   .     S
C697   O736    1.275   .     A
C697   O730    1.274   .     A
C698   O731    1.276   .     A
C698   O737    1.275   .     A
C699   C704    1.390   .     A
C699   C194    1.386   1_556 S
C699   H205    1.083   1_556 S
C700   O724    1.273   .     A
C700   C703    1.464   .     S
C700   O726    1.284   .     A
C701   O727    1.287   .     A
C701   O725    1.283   .     A
C705   C712    1.480   .     S
C705   O728    1.221   .     D
C705   H721    1.086   .     S
C706   O729    1.221   .     D
C706   H722    1.082   .     S
C707   H717    1.080   .     S
C708   C709    1.413   .     A
C708   C194    1.410   1_556 S
C708   C197    1.425   1_556 S
C709   C713    1.407   .     A
C711   C712    1.417   .     A
C711   C197    1.431   1_556 S
C711   C189    1.421   1_556 S
C712   C713    1.392   .     A
C713   H719    1.080   .     S
H716   C867    1.086   .     S
H720   C807    1.088   1_455 S
O723   Zn740   1.948   .     S
O723   Zn738   1.954   .     S
O723   Zn739   1.938   .     S
O723   Zn741   1.934   .     S
O724   Zn739   1.936   .     S
O725   Zn741   1.939   .     S
O726   Zn740   1.932   .     S
O727   Zn738   1.929   .     S
O730   Zn738   1.923   .     S
O731   Zn741   1.930   .     S
O732   Zn739   1.937   .     S
O733   Zn740   1.941   .     S
O734   Zn741   1.939   .     S
O735   Zn738   1.937   .     S
O736   Zn739   1.931   .     S
O737   Zn740   1.923   .     S
Br742  C808    1.932   .     S
Br743  C759    1.929   .     S
Br744  C761    1.926   .     S
C745   O789    1.266   .     A
C745   C751    1.428   .     S
C745   O791    1.264   .     A
C746   C760    1.400   .     A
C746   C767    1.425   .     A
C746   C763    1.489   .     S
C747   C760    1.396   .     A
C747   H771    1.085   .     S
C747   C759    1.388   .     A
C748   O792    1.271   .     A
C748   O790    1.289   .     A
C748   C750    1.454   .     S
C749   C766    1.428   .     A
C749   C761    1.421   .     A
C749   C758    1.487   .     S
C750   C808    1.347   .     S
C750   H834    1.088   .     S
C752   C755    1.449   .     S
C752   C924    1.330   .     S
C752   H943    1.088   .     S
C753   C754    1.432   .     S
C754   O793    1.275   .     A
C754   O787    1.274   .     A
C755   O788    1.276   .     A
C755   O794    1.275   .     A
C756   C761    1.390   .     A
C756   C251    1.386   1_556 S
C756   H262    1.083   1_556 S
C757   O781    1.273   .     A
C757   C760    1.464   .     S
C757   O783    1.284   .     A
C758   O784    1.287   .     A
C758   O782    1.283   .     A
C762   C769    1.480   .     S
C762   O785    1.221   .     D
C762   H778    1.086   .     S
C763   O786    1.221   .     D
C763   H779    1.082   .     S
C764   H774    1.080   .     S
C765   C766    1.413   .     A
C765   C251    1.410   1_556 S
C765   C254    1.425   1_556 S
C766   C770    1.407   .     A
C768   C769    1.417   .     A
C768   C254    1.431   1_556 S
C768   C246    1.421   1_556 S
C769   C770    1.392   .     A
C770   H776    1.080   .     S
H773   C924    1.086   .     S
O780   Zn797   1.948   .     S
O780   Zn795   1.954   .     S
O780   Zn796   1.938   .     S
O780   Zn798   1.934   .     S
O781   Zn796   1.936   .     S
O782   Zn798   1.939   .     S
O783   Zn797   1.932   .     S
O784   Zn795   1.929   .     S
O787   Zn795   1.923   .     S
O788   Zn798   1.930   .     S
O789   Zn796   1.937   .     S
O790   Zn797   1.941   .     S
O791   Zn798   1.939   .     S
O792   Zn795   1.937   .     S
O793   Zn796   1.931   .     S
O794   Zn797   1.923   .     S
Br799  C694    1.932   1_655 S
Br800  C816    1.929   .     S
Br801  C818    1.926   .     S
C802   O846    1.266   .     A
C802   C808    1.428   .     S
C802   O848    1.264   .     A
C803   C817    1.400   .     A
C803   C824    1.425   .     A
C803   C820    1.489   .     S
C804   C817    1.396   .     A
C804   H828    1.085   .     S
C804   C816    1.388   .     A
C805   O849    1.271   .     A
C805   O847    1.289   .     A
C805   C807    1.454   .     S
C806   C823    1.428   .     A
C806   C818    1.421   .     A
C806   C815    1.487   .     S
C807   C694    1.347   1_655 S
C807   H720    1.088   1_655 S
C809   C812    1.449   .     S
C809   C981    1.330   .     S
C809   H1000   1.088   .     S
C810   C811    1.432   .     S
C811   O850    1.275   .     A
C811   O844    1.274   .     A
C812   O845    1.276   .     A
C812   O851    1.275   .     A
C813   C818    1.390   .     A
C813   C308    1.386   1_556 S
C813   H319    1.083   1_556 S
C814   O838    1.273   .     A
C814   C817    1.464   .     S
C814   O840    1.284   .     A
C815   O841    1.287   .     A
C815   O839    1.283   .     A
C819   C826    1.480   .     S
C819   O842    1.221   .     D
C819   H835    1.086   .     S
C820   O843    1.221   .     D
C820   H836    1.082   .     S
C821   H831    1.080   .     S
C822   C823    1.413   .     A
C822   C308    1.410   1_556 S
C822   C311    1.425   1_556 S
C823   C827    1.407   .     A
C825   C826    1.417   .     A
C825   C311    1.431   1_556 S
C825   C303    1.421   1_556 S
C826   C827    1.392   .     A
C827   H833    1.080   .     S
H830   C981    1.086   .     S
O837   Zn854   1.948   .     S
O837   Zn852   1.954   .     S
O837   Zn853   1.938   .     S
O837   Zn855   1.934   .     S
O838   Zn853   1.936   .     S
O839   Zn855   1.939   .     S
O840   Zn854   1.932   .     S
O841   Zn852   1.929   .     S
O844   Zn852   1.923   .     S
O845   Zn855   1.930   .     S
O846   Zn853   1.937   .     S
O847   Zn854   1.941   .     S
O848   Zn855   1.939   .     S
O849   Zn852   1.937   .     S
O850   Zn853   1.931   .     S
O851   Zn854   1.923   .     S
Br856  C922    1.932   .     S
Br857  C873    1.929   .     S
Br858  C875    1.926   .     S
C859   O903    1.266   .     A
C859   C865    1.428   .     S
C859   O905    1.264   .     A
C860   C874    1.400   .     A
C860   C881    1.425   .     A
C860   C877    1.489   .     S
C861   C874    1.396   .     A
C861   H885    1.085   .     S
C861   C873    1.388   .     A
C862   O906    1.271   .     A
C862   O904    1.289   .     A
C862   C864    1.454   .     S
C863   C880    1.428   .     A
C863   C875    1.421   .     A
C863   C872    1.487   .     S
C864   C922    1.347   .     S
C864   H948    1.088   .     S
C865   C978    1.347   1_455 S
C865   Br970   1.932   1_455 S
C866   C869    1.449   .     S
C866   C525    1.330   1_565 S
C866   H544    1.088   1_565 S
C867   C868    1.432   .     S
C868   O907    1.275   .     A
C868   O901    1.274   .     A
C869   O902    1.276   .     A
C869   O908    1.275   .     A
C870   C875    1.390   .     A
C870   C365    1.386   1_556 S
C870   H376    1.083   1_556 S
C871   O895    1.273   .     A
C871   C874    1.464   .     S
C871   O897    1.284   .     A
C872   O898    1.287   .     A
C872   O896    1.283   .     A
C876   C883    1.480   .     S
C876   O899    1.221   .     D
C876   H892    1.086   .     S
C877   O900    1.221   .     D
C877   H893    1.082   .     S
C878   H888    1.080   .     S
C879   C880    1.413   .     A
C879   C365    1.410   1_556 S
C879   C368    1.425   1_556 S
C880   C884    1.407   .     A
C882   C883    1.417   .     A
C882   C368    1.431   1_556 S
C882   C360    1.421   1_556 S
C883   C884    1.392   .     A
C884   H890    1.080   .     S
H887   C525    1.086   1_565 S
H891   C978    1.088   1_455 S
O894   Zn911   1.948   .     S
O894   Zn909   1.954   .     S
O894   Zn910   1.938   .     S
O894   Zn912   1.934   .     S
O895   Zn910   1.936   .     S
O896   Zn912   1.939   .     S
O897   Zn911   1.932   .     S
O898   Zn909   1.929   .     S
O901   Zn909   1.923   .     S
O902   Zn912   1.930   .     S
O903   Zn910   1.937   .     S
O904   Zn911   1.941   .     S
O905   Zn912   1.939   .     S
O906   Zn909   1.937   .     S
O907   Zn910   1.931   .     S
O908   Zn911   1.923   .     S
Br913  C979    1.932   .     S
Br914  C930    1.929   .     S
Br915  C932    1.926   .     S
C916   O960    1.266   .     A
C916   C922    1.428   .     S
C916   O962    1.264   .     A
C917   C931    1.400   .     A
C917   C938    1.425   .     A
C917   C934    1.489   .     S
C918   C931    1.396   .     A
C918   H942    1.085   .     S
C918   C930    1.388   .     A
C919   O963    1.271   .     A
C919   O961    1.289   .     A
C919   C921    1.454   .     S
C920   C937    1.428   .     A
C920   C932    1.421   .     A
C920   C929    1.487   .     S
C921   C979    1.347   .     S
C921   H1005   1.088   .     S
C923   C926    1.449   .     S
C923   C582    1.330   1_565 S
C923   H601    1.088   1_565 S
C924   C925    1.432   .     S
C925   O964    1.275   .     A
C925   O958    1.274   .     A
C926   O959    1.276   .     A
C926   O965    1.275   .     A
C927   C932    1.390   .     A
C927   C422    1.386   1_556 S
C927   H433    1.083   1_556 S
C928   O952    1.273   .     A
C928   C931    1.464   .     S
C928   O954    1.284   .     A
C929   O955    1.287   .     A
C929   O953    1.283   .     A
C933   C940    1.480   .     S
C933   O956    1.221   .     D
C933   H949    1.086   .     S
C934   O957    1.221   .     D
C934   H950    1.082   .     S
C935   H945    1.080   .     S
C936   C937    1.413   .     A
C936   C422    1.410   1_556 S
C936   C425    1.425   1_556 S
C937   C941    1.407   .     A
C939   C940    1.417   .     A
C939   C425    1.431   1_556 S
C939   C417    1.421   1_556 S
C940   C941    1.392   .     A
C941   H947    1.080   .     S
H944   C582    1.086   1_565 S
O951   Zn968   1.948   .     S
O951   Zn966   1.954   .     S
O951   Zn967   1.938   .     S
O951   Zn969   1.934   .     S
O952   Zn967   1.936   .     S
O953   Zn969   1.939   .     S
O954   Zn968   1.932   .     S
O955   Zn966   1.929   .     S
O958   Zn966   1.923   .     S
O959   Zn969   1.930   .     S
O960   Zn967   1.937   .     S
O961   Zn968   1.941   .     S
O962   Zn969   1.939   .     S
O963   Zn966   1.937   .     S
O964   Zn967   1.931   .     S
O965   Zn968   1.923   .     S
Br970  C865    1.932   1_655 S
Br971  C987    1.929   .     S
Br972  C989    1.926   .     S
C973   O1017   1.266   .     A
C973   C979    1.428   .     S
C973   O1019   1.264   .     A
C974   C988    1.400   .     A
C974   C995    1.425   .     A
C974   C991    1.489   .     S
C975   C988    1.396   .     A
C975   H999    1.085   .     S
C975   C987    1.388   .     A
C976   O1020   1.271   .     A
C976   O1018   1.289   .     A
C976   C978    1.454   .     S
C977   C994    1.428   .     A
C977   C989    1.421   .     A
C977   C986    1.487   .     S
C978   C865    1.347   1_655 S
C978   H891    1.088   1_655 S
C980   C983    1.449   .     S
C980   C639    1.330   1_565 S
C980   H658    1.088   1_565 S
C981   C982    1.432   .     S
C982   O1021   1.275   .     A
C982   O1015   1.274   .     A
C983   O1016   1.276   .     A
C983   O1022   1.275   .     A
C984   C989    1.390   .     A
C984   C479    1.386   1_556 S
C984   H490    1.083   1_556 S
C985   O1009   1.273   .     A
C985   C988    1.464   .     S
C985   O1011   1.284   .     A
C986   O1012   1.287   .     A
C986   O1010   1.283   .     A
C990   C997    1.480   .     S
C990   O1013   1.221   .     D
C990   H1006   1.086   .     S
C991   O1014   1.221   .     D
C991   H1007   1.082   .     S
C992   H1002   1.080   .     S
C993   C994    1.413   .     A
C993   C479    1.410   1_556 S
C993   C482    1.425   1_556 S
C994   C998    1.407   .     A
C996   C997    1.417   .     A
C996   C482    1.431   1_556 S
C996   C474    1.421   1_556 S
C997   C998    1.392   .     A
C998   H1004   1.080   .     S
H1001  C639    1.086   1_565 S
O1008  Zn1025  1.948   .     S
O1008  Zn1023  1.954   .     S
O1008  Zn1024  1.938   .     S
O1008  Zn1026  1.934   .     S
O1009  Zn1024  1.936   .     S
O1010  Zn1026  1.939   .     S
O1011  Zn1025  1.932   .     S
O1012  Zn1023  1.929   .     S
O1015  Zn1023  1.923   .     S
O1016  Zn1026  1.930   .     S
O1017  Zn1024  1.937   .     S
O1018  Zn1025  1.941   .     S
O1019  Zn1026  1.939   .     S
O1020  Zn1023  1.937   .     S
O1021  Zn1024  1.931   .     S
O1022  Zn1025  1.923   .     S
