data_str_m2_o10_o16_pcu_sym.140
_audit_creation_date              2020-01-03
_audit_creation_method            'Materials Studio'
_symmetry_space_group_name_H-M    'P1'
_symmetry_Int_Tables_number       1
_symmetry_cell_setting            triclinic
loop_
_symmetry_equiv_pos_as_xyz
  x,y,z
_cell_length_a                    22.4588
_cell_length_b                    26.0722
_cell_length_c                    26.8104
_cell_angle_alpha                 94.9487
_cell_angle_beta                  77.9810
_cell_angle_gamma                 103.0984
loop_
_atom_site_label
_atom_site_type_symbol
_atom_site_fract_x
_atom_site_fract_y
_atom_site_fract_z
_atom_site_U_iso_or_equiv
_atom_site_adp_type
_atom_site_occupancy
C1     C     0.18180   0.26668   0.25146   0.00000  Uiso   1.00
C2     C     0.13791   0.16790   0.48797   0.00000  Uiso   1.00
C3     C     0.15330   0.18423   0.43693   0.00000  Uiso   1.00
C4     C     0.18438   0.18136   0.01865   0.00000  Uiso   1.00
C5     C     0.24263   0.21488   0.49959   0.00000  Uiso   1.00
C6     C     0.25311   0.23624   0.45194   0.00000  Uiso   1.00
C7     C     0.20873   0.22171   0.42134   0.00000  Uiso   1.00
C8     C     0.17487   0.16258   0.06775   0.00000  Uiso   1.00
C9     C     0.27757   0.21038   0.07850   0.00000  Uiso   1.00
C10    C     0.11222   0.16343   0.40301   0.00000  Uiso   1.00
C11    C     0.19016   0.32272   0.25241   0.00000  Uiso   1.00
C12    C     0.13333   0.16546   0.34713   0.00000  Uiso   1.00
C13    C     0.14366   0.01067   0.24663   0.00000  Uiso   1.00
C14    C     0.15171   0.06667   0.24817   0.00000  Uiso   1.00
C15    C     0.20010   0.17027   0.15314   0.00000  Uiso   1.00
C16    C     0.28918   0.22802   0.02911   0.00000  Uiso   1.00
C17    C     0.21952   0.17904   0.09845   0.00000  Uiso   1.00
C18    C     0.05194   0.13517   0.42244   0.00000  Uiso   1.00
C19    C     0.03391   0.12451   0.47390   0.00000  Uiso   1.00
C20    C     0.07655   0.13936   0.00622   0.00000  Uiso   1.00
Cu21   Cu    0.10710   0.16105   0.24436   0.00000  Uiso   1.00
Cu22   Cu    0.22623   0.17228   0.25565   0.00000  Uiso   1.00
H23    H     0.31258   0.22344   0.10185   0.00000  Uiso   1.00
H24    H     0.09908   0.32019   0.24066   0.00000  Uiso   1.00
H25    H     0.32979   0.12684   0.21024   0.00000  Uiso   1.00
H26    H     0.29589   0.26431   0.43823   0.00000  Uiso   1.00
H27    H     0.00048   0.25336   0.01457   0.00000  Uiso   1.00
H28    H     0.13233   0.13593   0.08377   0.00000  Uiso   1.00
H29    H     0.01911   0.11992   0.39755   0.00000  Uiso   1.00
H30    H     0.05947   0.12902   0.04546   0.00000  Uiso   1.00
H31    H     0.32044   0.10299   0.48856   0.00000  Uiso   1.00
H32    H     0.21761   0.24106   0.38569   0.00000  Uiso   1.00
H33    H     0.23488   0.01324   0.25809   0.00000  Uiso   1.00
N34    N     0.31574   0.18074   0.26416   0.00000  Uiso   1.00
N35    N     0.01759   0.15259   0.23584   0.00000  Uiso   1.00
O36    O     0.12797   0.23807   0.24633   0.00000  Uiso   1.00
O37    O     0.22858   0.24755   0.25587   0.00000  Uiso   1.00
O38    O     0.09181   0.15960   0.31840   0.00000  Uiso   1.00
O39    O     0.19242   0.16908   0.32793   0.00000  Uiso   1.00
O40    O     0.10476   0.08578   0.24414   0.00000  Uiso   1.00
O41    O     0.20536   0.09526   0.25367   0.00000  Uiso   1.00
O42    O     0.14092   0.16425   0.17207   0.00000  Uiso   1.00
O43    O     0.24152   0.17373   0.18161   0.00000  Uiso   1.00
I44    I     0.01018   0.23652   0.31964   0.00000  Uiso   1.00
C45    C     0.51513   0.26668   0.25146   0.00000  Uiso   1.00
C46    C     0.47124   0.16790   0.48797   0.00000  Uiso   1.00
C47    C     0.48664   0.18423   0.43693   0.00000  Uiso   1.00
C48    C     0.51771   0.18136   0.01865   0.00000  Uiso   1.00
C49    C     0.57597   0.21488   0.49959   0.00000  Uiso   1.00
C50    C     0.58644   0.23624   0.45194   0.00000  Uiso   1.00
C51    C     0.54206   0.22171   0.42134   0.00000  Uiso   1.00
C52    C     0.50821   0.16258   0.06775   0.00000  Uiso   1.00
C53    C     0.61090   0.21038   0.07850   0.00000  Uiso   1.00
C54    C     0.44555   0.16343   0.40301   0.00000  Uiso   1.00
C55    C     0.52349   0.32272   0.25241   0.00000  Uiso   1.00
C56    C     0.46666   0.16546   0.34713   0.00000  Uiso   1.00
C57    C     0.47699   0.01067   0.24663   0.00000  Uiso   1.00
C58    C     0.48504   0.06667   0.24817   0.00000  Uiso   1.00
C59    C     0.53343   0.17027   0.15314   0.00000  Uiso   1.00
C60    C     0.62251   0.22802   0.02911   0.00000  Uiso   1.00
C61    C     0.55286   0.17904   0.09845   0.00000  Uiso   1.00
C62    C     0.38527   0.13517   0.42244   0.00000  Uiso   1.00
C63    C     0.36724   0.12451   0.47390   0.00000  Uiso   1.00
C64    C     0.40988   0.13936   0.00622   0.00000  Uiso   1.00
Cu65   Cu    0.44043   0.16105   0.24436   0.00000  Uiso   1.00
Cu66   Cu    0.55957   0.17228   0.25565   0.00000  Uiso   1.00
H67    H     0.64592   0.22344   0.10185   0.00000  Uiso   1.00
H68    H     0.43242   0.32019   0.24066   0.00000  Uiso   1.00
H69    H     0.66313   0.12684   0.21024   0.00000  Uiso   1.00
H70    H     0.62922   0.26431   0.43823   0.00000  Uiso   1.00
H71    H     0.33382   0.25336   0.01457   0.00000  Uiso   1.00
H72    H     0.46566   0.13593   0.08377   0.00000  Uiso   1.00
H73    H     0.35244   0.11992   0.39755   0.00000  Uiso   1.00
H74    H     0.39280   0.12902   0.04546   0.00000  Uiso   1.00
H75    H     0.65377   0.10299   0.48856   0.00000  Uiso   1.00
H76    H     0.55095   0.24106   0.38569   0.00000  Uiso   1.00
H77    H     0.56821   0.01324   0.25809   0.00000  Uiso   1.00
N78    N     0.64908   0.18074   0.26416   0.00000  Uiso   1.00
N79    N     0.35092   0.15259   0.23584   0.00000  Uiso   1.00
O80    O     0.46131   0.23807   0.24633   0.00000  Uiso   1.00
O81    O     0.56191   0.24755   0.25587   0.00000  Uiso   1.00
O82    O     0.42515   0.15960   0.31840   0.00000  Uiso   1.00
O83    O     0.52575   0.16908   0.32793   0.00000  Uiso   1.00
O84    O     0.43809   0.08578   0.24414   0.00000  Uiso   1.00
O85    O     0.53869   0.09526   0.25367   0.00000  Uiso   1.00
O86    O     0.47425   0.16425   0.17207   0.00000  Uiso   1.00
O87    O     0.57485   0.17373   0.18161   0.00000  Uiso   1.00
I88    I     0.34352   0.23652   0.31964   0.00000  Uiso   1.00
C89    C     0.84846   0.26668   0.25146   0.00000  Uiso   1.00
C90    C     0.80458   0.16790   0.48797   0.00000  Uiso   1.00
C91    C     0.81997   0.18423   0.43693   0.00000  Uiso   1.00
C92    C     0.85104   0.18136   0.01865   0.00000  Uiso   1.00
C93    C     0.90930   0.21488   0.49959   0.00000  Uiso   1.00
C94    C     0.91978   0.23624   0.45194   0.00000  Uiso   1.00
C95    C     0.87539   0.22171   0.42134   0.00000  Uiso   1.00
C96    C     0.84154   0.16258   0.06775   0.00000  Uiso   1.00
C97    C     0.94424   0.21038   0.07850   0.00000  Uiso   1.00
C98    C     0.77889   0.16343   0.40301   0.00000  Uiso   1.00
C99    C     0.85683   0.32272   0.25241   0.00000  Uiso   1.00
C100   C     0.80000   0.16546   0.34713   0.00000  Uiso   1.00
C101   C     0.81033   0.01067   0.24663   0.00000  Uiso   1.00
C102   C     0.81838   0.06667   0.24817   0.00000  Uiso   1.00
C103   C     0.86676   0.17027   0.15314   0.00000  Uiso   1.00
C104   C     0.95585   0.22802   0.02911   0.00000  Uiso   1.00
C105   C     0.88619   0.17904   0.09845   0.00000  Uiso   1.00
C106   C     0.71860   0.13517   0.42244   0.00000  Uiso   1.00
C107   C     0.70057   0.12451   0.47390   0.00000  Uiso   1.00
C108   C     0.74321   0.13936   0.00622   0.00000  Uiso   1.00
Cu109  Cu    0.77377   0.16105   0.24436   0.00000  Uiso   1.00
Cu110  Cu    0.89290   0.17228   0.25565   0.00000  Uiso   1.00
H111   H     0.97925   0.22344   0.10185   0.00000  Uiso   1.00
H112   H     0.76575   0.32019   0.24066   0.00000  Uiso   1.00
H113   H     0.99646   0.12684   0.21024   0.00000  Uiso   1.00
H114   H     0.96256   0.26431   0.43823   0.00000  Uiso   1.00
H115   H     0.66715   0.25336   0.01457   0.00000  Uiso   1.00
H116   H     0.79899   0.13593   0.08377   0.00000  Uiso   1.00
H117   H     0.68577   0.11992   0.39755   0.00000  Uiso   1.00
H118   H     0.72614   0.12902   0.04546   0.00000  Uiso   1.00
H119   H     0.98711   0.10299   0.48856   0.00000  Uiso   1.00
H120   H     0.88428   0.24106   0.38569   0.00000  Uiso   1.00
H121   H     0.90154   0.01324   0.25809   0.00000  Uiso   1.00
N122   N     0.98241   0.18074   0.26416   0.00000  Uiso   1.00
N123   N     0.68426   0.15259   0.23584   0.00000  Uiso   1.00
O124   O     0.79464   0.23807   0.24633   0.00000  Uiso   1.00
O125   O     0.89524   0.24755   0.25587   0.00000  Uiso   1.00
O126   O     0.75848   0.15960   0.31840   0.00000  Uiso   1.00
O127   O     0.85908   0.16908   0.32793   0.00000  Uiso   1.00
O128   O     0.77142   0.08578   0.24414   0.00000  Uiso   1.00
O129   O     0.87203   0.09526   0.25367   0.00000  Uiso   1.00
O130   O     0.80758   0.16425   0.17207   0.00000  Uiso   1.00
O131   O     0.90819   0.17373   0.18161   0.00000  Uiso   1.00
I132   I     0.67685   0.23652   0.31964   0.00000  Uiso   1.00
C133   C     0.18180   0.60002   0.25146   0.00000  Uiso   1.00
C134   C     0.13791   0.50123   0.48797   0.00000  Uiso   1.00
C135   C     0.15330   0.51757   0.43693   0.00000  Uiso   1.00
C136   C     0.18438   0.51469   0.01865   0.00000  Uiso   1.00
C137   C     0.24263   0.54821   0.49959   0.00000  Uiso   1.00
C138   C     0.25311   0.56957   0.45194   0.00000  Uiso   1.00
C139   C     0.20873   0.55504   0.42134   0.00000  Uiso   1.00
C140   C     0.17487   0.49591   0.06775   0.00000  Uiso   1.00
C141   C     0.27757   0.54371   0.07850   0.00000  Uiso   1.00
C142   C     0.11222   0.49677   0.40301   0.00000  Uiso   1.00
C143   C     0.19016   0.65605   0.25241   0.00000  Uiso   1.00
C144   C     0.13333   0.49880   0.34713   0.00000  Uiso   1.00
C145   C     0.14366   0.34400   0.24663   0.00000  Uiso   1.00
C146   C     0.15171   0.40000   0.24817   0.00000  Uiso   1.00
C147   C     0.20010   0.50360   0.15314   0.00000  Uiso   1.00
C148   C     0.28918   0.56135   0.02911   0.00000  Uiso   1.00
C149   C     0.21952   0.51238   0.09845   0.00000  Uiso   1.00
C150   C     0.05194   0.46850   0.42244   0.00000  Uiso   1.00
C151   C     0.03391   0.45784   0.47390   0.00000  Uiso   1.00
C152   C     0.07655   0.47269   0.00622   0.00000  Uiso   1.00
Cu153  Cu    0.10710   0.49439   0.24436   0.00000  Uiso   1.00
Cu154  Cu    0.22623   0.50561   0.25565   0.00000  Uiso   1.00
H155   H     0.31258   0.55677   0.10185   0.00000  Uiso   1.00
H156   H     0.09908   0.65353   0.24066   0.00000  Uiso   1.00
H157   H     0.32979   0.46017   0.21024   0.00000  Uiso   1.00
H158   H     0.29589   0.59764   0.43823   0.00000  Uiso   1.00
H159   H     0.00048   0.58669   0.01457   0.00000  Uiso   1.00
H160   H     0.13233   0.46927   0.08377   0.00000  Uiso   1.00
H161   H     0.01911   0.45326   0.39755   0.00000  Uiso   1.00
H162   H     0.05947   0.46235   0.04546   0.00000  Uiso   1.00
H163   H     0.32044   0.43632   0.48856   0.00000  Uiso   1.00
H164   H     0.21761   0.57440   0.38569   0.00000  Uiso   1.00
H165   H     0.23488   0.34657   0.25809   0.00000  Uiso   1.00
N166   N     0.31574   0.51407   0.26416   0.00000  Uiso   1.00
N167   N     0.01759   0.48593   0.23584   0.00000  Uiso   1.00
O168   O     0.12797   0.57141   0.24633   0.00000  Uiso   1.00
O169   O     0.22858   0.58089   0.25587   0.00000  Uiso   1.00
O170   O     0.09181   0.49293   0.31840   0.00000  Uiso   1.00
O171   O     0.19242   0.50241   0.32793   0.00000  Uiso   1.00
O172   O     0.10476   0.41911   0.24414   0.00000  Uiso   1.00
O173   O     0.20536   0.42859   0.25367   0.00000  Uiso   1.00
O174   O     0.14092   0.49759   0.17207   0.00000  Uiso   1.00
O175   O     0.24152   0.50707   0.18161   0.00000  Uiso   1.00
I176   I     0.01018   0.56985   0.31964   0.00000  Uiso   1.00
C177   C     0.51513   0.60002   0.25146   0.00000  Uiso   1.00
C178   C     0.47124   0.50123   0.48797   0.00000  Uiso   1.00
C179   C     0.48664   0.51757   0.43693   0.00000  Uiso   1.00
C180   C     0.51771   0.51469   0.01865   0.00000  Uiso   1.00
C181   C     0.57597   0.54821   0.49959   0.00000  Uiso   1.00
C182   C     0.58644   0.56957   0.45194   0.00000  Uiso   1.00
C183   C     0.54206   0.55504   0.42134   0.00000  Uiso   1.00
C184   C     0.50821   0.49591   0.06775   0.00000  Uiso   1.00
C185   C     0.61090   0.54371   0.07850   0.00000  Uiso   1.00
C186   C     0.44555   0.49677   0.40301   0.00000  Uiso   1.00
C187   C     0.52349   0.65605   0.25241   0.00000  Uiso   1.00
C188   C     0.46666   0.49880   0.34713   0.00000  Uiso   1.00
C189   C     0.47699   0.34400   0.24663   0.00000  Uiso   1.00
C190   C     0.48504   0.40000   0.24817   0.00000  Uiso   1.00
C191   C     0.53343   0.50360   0.15314   0.00000  Uiso   1.00
C192   C     0.62251   0.56135   0.02911   0.00000  Uiso   1.00
C193   C     0.55286   0.51238   0.09845   0.00000  Uiso   1.00
C194   C     0.38527   0.46850   0.42244   0.00000  Uiso   1.00
C195   C     0.36724   0.45784   0.47390   0.00000  Uiso   1.00
C196   C     0.40988   0.47269   0.00622   0.00000  Uiso   1.00
Cu197  Cu    0.44043   0.49439   0.24436   0.00000  Uiso   1.00
Cu198  Cu    0.55957   0.50561   0.25565   0.00000  Uiso   1.00
H199   H     0.64592   0.55677   0.10185   0.00000  Uiso   1.00
H200   H     0.43242   0.65353   0.24066   0.00000  Uiso   1.00
H201   H     0.66313   0.46017   0.21024   0.00000  Uiso   1.00
H202   H     0.62922   0.59764   0.43823   0.00000  Uiso   1.00
H203   H     0.33382   0.58669   0.01457   0.00000  Uiso   1.00
H204   H     0.46566   0.46927   0.08377   0.00000  Uiso   1.00
H205   H     0.35244   0.45326   0.39755   0.00000  Uiso   1.00
H206   H     0.39280   0.46235   0.04546   0.00000  Uiso   1.00
H207   H     0.65377   0.43632   0.48856   0.00000  Uiso   1.00
H208   H     0.55095   0.57440   0.38569   0.00000  Uiso   1.00
H209   H     0.56821   0.34657   0.25809   0.00000  Uiso   1.00
N210   N     0.64908   0.51407   0.26416   0.00000  Uiso   1.00
N211   N     0.35092   0.48593   0.23584   0.00000  Uiso   1.00
O212   O     0.46131   0.57141   0.24633   0.00000  Uiso   1.00
O213   O     0.56191   0.58089   0.25587   0.00000  Uiso   1.00
O214   O     0.42515   0.49293   0.31840   0.00000  Uiso   1.00
O215   O     0.52575   0.50241   0.32793   0.00000  Uiso   1.00
O216   O     0.43809   0.41911   0.24414   0.00000  Uiso   1.00
O217   O     0.53869   0.42859   0.25367   0.00000  Uiso   1.00
O218   O     0.47425   0.49759   0.17207   0.00000  Uiso   1.00
O219   O     0.57485   0.50707   0.18161   0.00000  Uiso   1.00
I220   I     0.34352   0.56985   0.31964   0.00000  Uiso   1.00
C221   C     0.84846   0.60002   0.25146   0.00000  Uiso   1.00
C222   C     0.80458   0.50123   0.48797   0.00000  Uiso   1.00
C223   C     0.81997   0.51757   0.43693   0.00000  Uiso   1.00
C224   C     0.85104   0.51469   0.01865   0.00000  Uiso   1.00
C225   C     0.90930   0.54821   0.49959   0.00000  Uiso   1.00
C226   C     0.91978   0.56957   0.45194   0.00000  Uiso   1.00
C227   C     0.87539   0.55504   0.42134   0.00000  Uiso   1.00
C228   C     0.84154   0.49591   0.06775   0.00000  Uiso   1.00
C229   C     0.94424   0.54371   0.07850   0.00000  Uiso   1.00
C230   C     0.77889   0.49677   0.40301   0.00000  Uiso   1.00
C231   C     0.85683   0.65605   0.25241   0.00000  Uiso   1.00
C232   C     0.80000   0.49880   0.34713   0.00000  Uiso   1.00
C233   C     0.81033   0.34400   0.24663   0.00000  Uiso   1.00
C234   C     0.81838   0.40000   0.24817   0.00000  Uiso   1.00
C235   C     0.86676   0.50360   0.15314   0.00000  Uiso   1.00
C236   C     0.95585   0.56135   0.02911   0.00000  Uiso   1.00
C237   C     0.88619   0.51238   0.09845   0.00000  Uiso   1.00
C238   C     0.71860   0.46850   0.42244   0.00000  Uiso   1.00
C239   C     0.70057   0.45784   0.47390   0.00000  Uiso   1.00
C240   C     0.74321   0.47269   0.00622   0.00000  Uiso   1.00
Cu241  Cu    0.77377   0.49439   0.24436   0.00000  Uiso   1.00
Cu242  Cu    0.89290   0.50561   0.25565   0.00000  Uiso   1.00
H243   H     0.97925   0.55677   0.10185   0.00000  Uiso   1.00
H244   H     0.76575   0.65353   0.24066   0.00000  Uiso   1.00
H245   H     0.99646   0.46017   0.21024   0.00000  Uiso   1.00
H246   H     0.96256   0.59764   0.43823   0.00000  Uiso   1.00
H247   H     0.66715   0.58669   0.01457   0.00000  Uiso   1.00
H248   H     0.79899   0.46927   0.08377   0.00000  Uiso   1.00
H249   H     0.68577   0.45326   0.39755   0.00000  Uiso   1.00
H250   H     0.72614   0.46235   0.04546   0.00000  Uiso   1.00
H251   H     0.98711   0.43632   0.48856   0.00000  Uiso   1.00
H252   H     0.88428   0.57440   0.38569   0.00000  Uiso   1.00
H253   H     0.90154   0.34657   0.25809   0.00000  Uiso   1.00
N254   N     0.98241   0.51407   0.26416   0.00000  Uiso   1.00
N255   N     0.68426   0.48593   0.23584   0.00000  Uiso   1.00
O256   O     0.79464   0.57141   0.24633   0.00000  Uiso   1.00
O257   O     0.89524   0.58089   0.25587   0.00000  Uiso   1.00
O258   O     0.75848   0.49293   0.31840   0.00000  Uiso   1.00
O259   O     0.85908   0.50241   0.32793   0.00000  Uiso   1.00
O260   O     0.77142   0.41911   0.24414   0.00000  Uiso   1.00
O261   O     0.87203   0.42859   0.25367   0.00000  Uiso   1.00
O262   O     0.80758   0.49759   0.17207   0.00000  Uiso   1.00
O263   O     0.90819   0.50707   0.18161   0.00000  Uiso   1.00
I264   I     0.67685   0.56985   0.31964   0.00000  Uiso   1.00
C265   C     0.18180   0.93335   0.25146   0.00000  Uiso   1.00
C266   C     0.13791   0.83456   0.48797   0.00000  Uiso   1.00
C267   C     0.15330   0.85090   0.43693   0.00000  Uiso   1.00
C268   C     0.18438   0.84803   0.01865   0.00000  Uiso   1.00
C269   C     0.24263   0.88154   0.49959   0.00000  Uiso   1.00
C270   C     0.25311   0.90291   0.45194   0.00000  Uiso   1.00
C271   C     0.20873   0.88837   0.42134   0.00000  Uiso   1.00
C272   C     0.17487   0.82924   0.06775   0.00000  Uiso   1.00
C273   C     0.27757   0.87704   0.07850   0.00000  Uiso   1.00
C274   C     0.11222   0.83010   0.40301   0.00000  Uiso   1.00
C275   C     0.19016   0.98938   0.25241   0.00000  Uiso   1.00
C276   C     0.13333   0.83213   0.34713   0.00000  Uiso   1.00
C277   C     0.14366   0.67733   0.24663   0.00000  Uiso   1.00
C278   C     0.15171   0.73334   0.24817   0.00000  Uiso   1.00
C279   C     0.20010   0.83694   0.15314   0.00000  Uiso   1.00
C280   C     0.28918   0.89469   0.02911   0.00000  Uiso   1.00
C281   C     0.21952   0.84571   0.09845   0.00000  Uiso   1.00
C282   C     0.05194   0.80183   0.42244   0.00000  Uiso   1.00
C283   C     0.03391   0.79117   0.47390   0.00000  Uiso   1.00
C284   C     0.07655   0.80603   0.00622   0.00000  Uiso   1.00
Cu285  Cu    0.10710   0.82772   0.24436   0.00000  Uiso   1.00
Cu286  Cu    0.22623   0.83895   0.25565   0.00000  Uiso   1.00
H287   H     0.31258   0.89011   0.10185   0.00000  Uiso   1.00
H288   H     0.09908   0.98686   0.24066   0.00000  Uiso   1.00
H289   H     0.32979   0.79351   0.21024   0.00000  Uiso   1.00
H290   H     0.29589   0.93098   0.43823   0.00000  Uiso   1.00
H291   H     0.00048   0.92002   0.01457   0.00000  Uiso   1.00
H292   H     0.13233   0.80260   0.08377   0.00000  Uiso   1.00
H293   H     0.01911   0.78659   0.39755   0.00000  Uiso   1.00
H294   H     0.05947   0.79568   0.04546   0.00000  Uiso   1.00
H295   H     0.32044   0.76966   0.48856   0.00000  Uiso   1.00
H296   H     0.21761   0.90773   0.38569   0.00000  Uiso   1.00
H297   H     0.23488   0.67990   0.25809   0.00000  Uiso   1.00
N298   N     0.31574   0.84741   0.26416   0.00000  Uiso   1.00
N299   N     0.01759   0.81926   0.23584   0.00000  Uiso   1.00
O300   O     0.12797   0.90474   0.24633   0.00000  Uiso   1.00
O301   O     0.22858   0.91422   0.25587   0.00000  Uiso   1.00
O302   O     0.09181   0.82627   0.31840   0.00000  Uiso   1.00
O303   O     0.19242   0.83575   0.32793   0.00000  Uiso   1.00
O304   O     0.10476   0.75245   0.24414   0.00000  Uiso   1.00
O305   O     0.20536   0.76193   0.25367   0.00000  Uiso   1.00
O306   O     0.14092   0.83092   0.17207   0.00000  Uiso   1.00
O307   O     0.24152   0.84040   0.18161   0.00000  Uiso   1.00
I308   I     0.01018   0.90319   0.31964   0.00000  Uiso   1.00
C309   C     0.51513   0.93335   0.25146   0.00000  Uiso   1.00
C310   C     0.47124   0.83456   0.48797   0.00000  Uiso   1.00
C311   C     0.48664   0.85090   0.43693   0.00000  Uiso   1.00
C312   C     0.51771   0.84803   0.01865   0.00000  Uiso   1.00
C313   C     0.57597   0.88154   0.49959   0.00000  Uiso   1.00
C314   C     0.58644   0.90291   0.45194   0.00000  Uiso   1.00
C315   C     0.54206   0.88837   0.42134   0.00000  Uiso   1.00
C316   C     0.50821   0.82924   0.06775   0.00000  Uiso   1.00
C317   C     0.61090   0.87704   0.07850   0.00000  Uiso   1.00
C318   C     0.44555   0.83010   0.40301   0.00000  Uiso   1.00
C319   C     0.52349   0.98938   0.25241   0.00000  Uiso   1.00
C320   C     0.46666   0.83213   0.34713   0.00000  Uiso   1.00
C321   C     0.47699   0.67733   0.24663   0.00000  Uiso   1.00
C322   C     0.48504   0.73334   0.24817   0.00000  Uiso   1.00
C323   C     0.53343   0.83694   0.15314   0.00000  Uiso   1.00
C324   C     0.62251   0.89469   0.02911   0.00000  Uiso   1.00
C325   C     0.55286   0.84571   0.09845   0.00000  Uiso   1.00
C326   C     0.38527   0.80183   0.42244   0.00000  Uiso   1.00
C327   C     0.36724   0.79117   0.47390   0.00000  Uiso   1.00
C328   C     0.40988   0.80603   0.00622   0.00000  Uiso   1.00
Cu329  Cu    0.44043   0.82772   0.24436   0.00000  Uiso   1.00
Cu330  Cu    0.55957   0.83895   0.25565   0.00000  Uiso   1.00
H331   H     0.64592   0.89011   0.10185   0.00000  Uiso   1.00
H332   H     0.43242   0.98686   0.24066   0.00000  Uiso   1.00
H333   H     0.66313   0.79351   0.21024   0.00000  Uiso   1.00
H334   H     0.62922   0.93098   0.43823   0.00000  Uiso   1.00
H335   H     0.33382   0.92002   0.01457   0.00000  Uiso   1.00
H336   H     0.46566   0.80260   0.08377   0.00000  Uiso   1.00
H337   H     0.35244   0.78659   0.39755   0.00000  Uiso   1.00
H338   H     0.39280   0.79568   0.04546   0.00000  Uiso   1.00
H339   H     0.65377   0.76966   0.48856   0.00000  Uiso   1.00
H340   H     0.55095   0.90773   0.38569   0.00000  Uiso   1.00
H341   H     0.56821   0.67990   0.25809   0.00000  Uiso   1.00
N342   N     0.64908   0.84741   0.26416   0.00000  Uiso   1.00
N343   N     0.35092   0.81926   0.23584   0.00000  Uiso   1.00
O344   O     0.46131   0.90474   0.24633   0.00000  Uiso   1.00
O345   O     0.56191   0.91422   0.25587   0.00000  Uiso   1.00
O346   O     0.42515   0.82627   0.31840   0.00000  Uiso   1.00
O347   O     0.52575   0.83575   0.32793   0.00000  Uiso   1.00
O348   O     0.43809   0.75245   0.24414   0.00000  Uiso   1.00
O349   O     0.53869   0.76193   0.25367   0.00000  Uiso   1.00
O350   O     0.47425   0.83092   0.17207   0.00000  Uiso   1.00
O351   O     0.57485   0.84040   0.18161   0.00000  Uiso   1.00
I352   I     0.34352   0.90319   0.31964   0.00000  Uiso   1.00
C353   C     0.84846   0.93335   0.25146   0.00000  Uiso   1.00
C354   C     0.80458   0.83456   0.48797   0.00000  Uiso   1.00
C355   C     0.81997   0.85090   0.43693   0.00000  Uiso   1.00
C356   C     0.85104   0.84803   0.01865   0.00000  Uiso   1.00
C357   C     0.90930   0.88154   0.49959   0.00000  Uiso   1.00
C358   C     0.91978   0.90291   0.45194   0.00000  Uiso   1.00
C359   C     0.87539   0.88837   0.42134   0.00000  Uiso   1.00
C360   C     0.84154   0.82924   0.06775   0.00000  Uiso   1.00
C361   C     0.94424   0.87704   0.07850   0.00000  Uiso   1.00
C362   C     0.77889   0.83010   0.40301   0.00000  Uiso   1.00
C363   C     0.85683   0.98938   0.25241   0.00000  Uiso   1.00
C364   C     0.80000   0.83213   0.34713   0.00000  Uiso   1.00
C365   C     0.81033   0.67733   0.24663   0.00000  Uiso   1.00
C366   C     0.81838   0.73334   0.24817   0.00000  Uiso   1.00
C367   C     0.86676   0.83694   0.15314   0.00000  Uiso   1.00
C368   C     0.95585   0.89469   0.02911   0.00000  Uiso   1.00
C369   C     0.88619   0.84571   0.09845   0.00000  Uiso   1.00
C370   C     0.71860   0.80183   0.42244   0.00000  Uiso   1.00
C371   C     0.70057   0.79117   0.47390   0.00000  Uiso   1.00
C372   C     0.74321   0.80603   0.00622   0.00000  Uiso   1.00
Cu373  Cu    0.77377   0.82772   0.24436   0.00000  Uiso   1.00
Cu374  Cu    0.89290   0.83895   0.25565   0.00000  Uiso   1.00
H375   H     0.97925   0.89011   0.10185   0.00000  Uiso   1.00
H376   H     0.76575   0.98686   0.24066   0.00000  Uiso   1.00
H377   H     0.99646   0.79351   0.21024   0.00000  Uiso   1.00
H378   H     0.96256   0.93098   0.43823   0.00000  Uiso   1.00
H379   H     0.66715   0.92002   0.01457   0.00000  Uiso   1.00
H380   H     0.79899   0.80260   0.08377   0.00000  Uiso   1.00
H381   H     0.68577   0.78659   0.39755   0.00000  Uiso   1.00
H382   H     0.72614   0.79568   0.04546   0.00000  Uiso   1.00
H383   H     0.98711   0.76966   0.48856   0.00000  Uiso   1.00
H384   H     0.88428   0.90773   0.38569   0.00000  Uiso   1.00
H385   H     0.90154   0.67990   0.25809   0.00000  Uiso   1.00
N386   N     0.98241   0.84741   0.26416   0.00000  Uiso   1.00
N387   N     0.68426   0.81926   0.23584   0.00000  Uiso   1.00
O388   O     0.79464   0.90474   0.24633   0.00000  Uiso   1.00
O389   O     0.89524   0.91422   0.25587   0.00000  Uiso   1.00
O390   O     0.75848   0.82627   0.31840   0.00000  Uiso   1.00
O391   O     0.85908   0.83575   0.32793   0.00000  Uiso   1.00
O392   O     0.77142   0.75245   0.24414   0.00000  Uiso   1.00
O393   O     0.87203   0.76193   0.25367   0.00000  Uiso   1.00
O394   O     0.80758   0.83092   0.17207   0.00000  Uiso   1.00
O395   O     0.90819   0.84040   0.18161   0.00000  Uiso   1.00
I396   I     0.67685   0.90319   0.31964   0.00000  Uiso   1.00
C397   C     0.18180   0.26668   0.75146   0.00000  Uiso   1.00
C398   C     0.13791   0.16790   0.98797   0.00000  Uiso   1.00
C399   C     0.15330   0.18423   0.93693   0.00000  Uiso   1.00
C400   C     0.18438   0.18136   0.51865   0.00000  Uiso   1.00
C401   C     0.24263   0.21488   0.99959   0.00000  Uiso   1.00
C402   C     0.25311   0.23624   0.95194   0.00000  Uiso   1.00
C403   C     0.20873   0.22171   0.92134   0.00000  Uiso   1.00
C404   C     0.17487   0.16258   0.56775   0.00000  Uiso   1.00
C405   C     0.27757   0.21038   0.57850   0.00000  Uiso   1.00
C406   C     0.11222   0.16343   0.90301   0.00000  Uiso   1.00
C407   C     0.19016   0.32272   0.75241   0.00000  Uiso   1.00
C408   C     0.13333   0.16546   0.84713   0.00000  Uiso   1.00
C409   C     0.14366   0.01067   0.74663   0.00000  Uiso   1.00
C410   C     0.15171   0.06667   0.74817   0.00000  Uiso   1.00
C411   C     0.20010   0.17027   0.65314   0.00000  Uiso   1.00
C412   C     0.28918   0.22802   0.52911   0.00000  Uiso   1.00
C413   C     0.21952   0.17904   0.59845   0.00000  Uiso   1.00
C414   C     0.05194   0.13517   0.92244   0.00000  Uiso   1.00
C415   C     0.03391   0.12451   0.97390   0.00000  Uiso   1.00
C416   C     0.07655   0.13936   0.50622   0.00000  Uiso   1.00
Cu417  Cu    0.10710   0.16105   0.74436   0.00000  Uiso   1.00
Cu418  Cu    0.22623   0.17228   0.75565   0.00000  Uiso   1.00
H419   H     0.31258   0.22344   0.60185   0.00000  Uiso   1.00
H420   H     0.09908   0.32019   0.74066   0.00000  Uiso   1.00
H421   H     0.32979   0.12684   0.71024   0.00000  Uiso   1.00
H422   H     0.29589   0.26431   0.93823   0.00000  Uiso   1.00
H423   H     0.00048   0.25336   0.51457   0.00000  Uiso   1.00
H424   H     0.13233   0.13593   0.58377   0.00000  Uiso   1.00
H425   H     0.01911   0.11992   0.89755   0.00000  Uiso   1.00
H426   H     0.05947   0.12902   0.54546   0.00000  Uiso   1.00
H427   H     0.32044   0.10299   0.98856   0.00000  Uiso   1.00
H428   H     0.21761   0.24106   0.88569   0.00000  Uiso   1.00
H429   H     0.23488   0.01324   0.75809   0.00000  Uiso   1.00
N430   N     0.31574   0.18074   0.76416   0.00000  Uiso   1.00
N431   N     0.01759   0.15259   0.73584   0.00000  Uiso   1.00
O432   O     0.12797   0.23807   0.74633   0.00000  Uiso   1.00
O433   O     0.22858   0.24755   0.75587   0.00000  Uiso   1.00
O434   O     0.09181   0.15960   0.81840   0.00000  Uiso   1.00
O435   O     0.19242   0.16908   0.82793   0.00000  Uiso   1.00
O436   O     0.10476   0.08578   0.74414   0.00000  Uiso   1.00
O437   O     0.20536   0.09526   0.75367   0.00000  Uiso   1.00
O438   O     0.14092   0.16425   0.67207   0.00000  Uiso   1.00
O439   O     0.24152   0.17373   0.68161   0.00000  Uiso   1.00
I440   I     0.01018   0.23652   0.81964   0.00000  Uiso   1.00
C441   C     0.51513   0.26668   0.75146   0.00000  Uiso   1.00
C442   C     0.47124   0.16790   0.98797   0.00000  Uiso   1.00
C443   C     0.48664   0.18423   0.93693   0.00000  Uiso   1.00
C444   C     0.51771   0.18136   0.51865   0.00000  Uiso   1.00
C445   C     0.57597   0.21488   0.99959   0.00000  Uiso   1.00
C446   C     0.58644   0.23624   0.95194   0.00000  Uiso   1.00
C447   C     0.54206   0.22171   0.92134   0.00000  Uiso   1.00
C448   C     0.50821   0.16258   0.56775   0.00000  Uiso   1.00
C449   C     0.61090   0.21038   0.57850   0.00000  Uiso   1.00
C450   C     0.44555   0.16343   0.90301   0.00000  Uiso   1.00
C451   C     0.52349   0.32272   0.75241   0.00000  Uiso   1.00
C452   C     0.46666   0.16546   0.84713   0.00000  Uiso   1.00
C453   C     0.47699   0.01067   0.74663   0.00000  Uiso   1.00
C454   C     0.48504   0.06667   0.74817   0.00000  Uiso   1.00
C455   C     0.53343   0.17027   0.65314   0.00000  Uiso   1.00
C456   C     0.62251   0.22802   0.52911   0.00000  Uiso   1.00
C457   C     0.55286   0.17904   0.59845   0.00000  Uiso   1.00
C458   C     0.38527   0.13517   0.92244   0.00000  Uiso   1.00
C459   C     0.36724   0.12451   0.97390   0.00000  Uiso   1.00
C460   C     0.40988   0.13936   0.50622   0.00000  Uiso   1.00
Cu461  Cu    0.44043   0.16105   0.74436   0.00000  Uiso   1.00
Cu462  Cu    0.55957   0.17228   0.75565   0.00000  Uiso   1.00
H463   H     0.64592   0.22344   0.60185   0.00000  Uiso   1.00
H464   H     0.43242   0.32019   0.74066   0.00000  Uiso   1.00
H465   H     0.66313   0.12684   0.71024   0.00000  Uiso   1.00
H466   H     0.62922   0.26431   0.93823   0.00000  Uiso   1.00
H467   H     0.33382   0.25336   0.51457   0.00000  Uiso   1.00
H468   H     0.46566   0.13593   0.58377   0.00000  Uiso   1.00
H469   H     0.35244   0.11992   0.89755   0.00000  Uiso   1.00
H470   H     0.39280   0.12902   0.54546   0.00000  Uiso   1.00
H471   H     0.65377   0.10299   0.98856   0.00000  Uiso   1.00
H472   H     0.55095   0.24106   0.88569   0.00000  Uiso   1.00
H473   H     0.56821   0.01324   0.75809   0.00000  Uiso   1.00
N474   N     0.64908   0.18074   0.76416   0.00000  Uiso   1.00
N475   N     0.35092   0.15259   0.73584   0.00000  Uiso   1.00
O476   O     0.46131   0.23807   0.74633   0.00000  Uiso   1.00
O477   O     0.56191   0.24755   0.75587   0.00000  Uiso   1.00
O478   O     0.42515   0.15960   0.81840   0.00000  Uiso   1.00
O479   O     0.52575   0.16908   0.82793   0.00000  Uiso   1.00
O480   O     0.43809   0.08578   0.74414   0.00000  Uiso   1.00
O481   O     0.53869   0.09526   0.75367   0.00000  Uiso   1.00
O482   O     0.47425   0.16425   0.67207   0.00000  Uiso   1.00
O483   O     0.57485   0.17373   0.68161   0.00000  Uiso   1.00
I484   I     0.34352   0.23652   0.81964   0.00000  Uiso   1.00
C485   C     0.84846   0.26668   0.75146   0.00000  Uiso   1.00
C486   C     0.80458   0.16790   0.98797   0.00000  Uiso   1.00
C487   C     0.81997   0.18423   0.93693   0.00000  Uiso   1.00
C488   C     0.85104   0.18136   0.51865   0.00000  Uiso   1.00
C489   C     0.90930   0.21488   0.99959   0.00000  Uiso   1.00
C490   C     0.91978   0.23624   0.95194   0.00000  Uiso   1.00
C491   C     0.87539   0.22171   0.92134   0.00000  Uiso   1.00
C492   C     0.84154   0.16258   0.56775   0.00000  Uiso   1.00
C493   C     0.94424   0.21038   0.57850   0.00000  Uiso   1.00
C494   C     0.77889   0.16343   0.90301   0.00000  Uiso   1.00
C495   C     0.85683   0.32272   0.75241   0.00000  Uiso   1.00
C496   C     0.80000   0.16546   0.84713   0.00000  Uiso   1.00
C497   C     0.81033   0.01067   0.74663   0.00000  Uiso   1.00
C498   C     0.81838   0.06667   0.74817   0.00000  Uiso   1.00
C499   C     0.86676   0.17027   0.65314   0.00000  Uiso   1.00
C500   C     0.95585   0.22802   0.52911   0.00000  Uiso   1.00
C501   C     0.88619   0.17904   0.59845   0.00000  Uiso   1.00
C502   C     0.71860   0.13517   0.92244   0.00000  Uiso   1.00
C503   C     0.70057   0.12451   0.97390   0.00000  Uiso   1.00
C504   C     0.74321   0.13936   0.50622   0.00000  Uiso   1.00
Cu505  Cu    0.77377   0.16105   0.74436   0.00000  Uiso   1.00
Cu506  Cu    0.89290   0.17228   0.75565   0.00000  Uiso   1.00
H507   H     0.97925   0.22344   0.60185   0.00000  Uiso   1.00
H508   H     0.76575   0.32019   0.74066   0.00000  Uiso   1.00
H509   H     0.99646   0.12684   0.71024   0.00000  Uiso   1.00
H510   H     0.96256   0.26431   0.93823   0.00000  Uiso   1.00
H511   H     0.66715   0.25336   0.51457   0.00000  Uiso   1.00
H512   H     0.79899   0.13593   0.58377   0.00000  Uiso   1.00
H513   H     0.68577   0.11992   0.89755   0.00000  Uiso   1.00
H514   H     0.72614   0.12902   0.54546   0.00000  Uiso   1.00
H515   H     0.98711   0.10299   0.98856   0.00000  Uiso   1.00
H516   H     0.88428   0.24106   0.88569   0.00000  Uiso   1.00
H517   H     0.90154   0.01324   0.75809   0.00000  Uiso   1.00
N518   N     0.98241   0.18074   0.76416   0.00000  Uiso   1.00
N519   N     0.68426   0.15259   0.73584   0.00000  Uiso   1.00
O520   O     0.79464   0.23807   0.74633   0.00000  Uiso   1.00
O521   O     0.89524   0.24755   0.75587   0.00000  Uiso   1.00
O522   O     0.75848   0.15960   0.81840   0.00000  Uiso   1.00
O523   O     0.85908   0.16908   0.82793   0.00000  Uiso   1.00
O524   O     0.77142   0.08578   0.74414   0.00000  Uiso   1.00
O525   O     0.87203   0.09526   0.75367   0.00000  Uiso   1.00
O526   O     0.80758   0.16425   0.67207   0.00000  Uiso   1.00
O527   O     0.90819   0.17373   0.68161   0.00000  Uiso   1.00
I528   I     0.67685   0.23652   0.81964   0.00000  Uiso   1.00
C529   C     0.18180   0.60002   0.75146   0.00000  Uiso   1.00
C530   C     0.13791   0.50123   0.98797   0.00000  Uiso   1.00
C531   C     0.15330   0.51757   0.93693   0.00000  Uiso   1.00
C532   C     0.18438   0.51469   0.51865   0.00000  Uiso   1.00
C533   C     0.24263   0.54821   0.99959   0.00000  Uiso   1.00
C534   C     0.25311   0.56957   0.95194   0.00000  Uiso   1.00
C535   C     0.20873   0.55504   0.92134   0.00000  Uiso   1.00
C536   C     0.17487   0.49591   0.56775   0.00000  Uiso   1.00
C537   C     0.27757   0.54371   0.57850   0.00000  Uiso   1.00
C538   C     0.11222   0.49677   0.90301   0.00000  Uiso   1.00
C539   C     0.19016   0.65605   0.75241   0.00000  Uiso   1.00
C540   C     0.13333   0.49880   0.84713   0.00000  Uiso   1.00
C541   C     0.14366   0.34400   0.74663   0.00000  Uiso   1.00
C542   C     0.15171   0.40000   0.74817   0.00000  Uiso   1.00
C543   C     0.20010   0.50360   0.65314   0.00000  Uiso   1.00
C544   C     0.28918   0.56135   0.52911   0.00000  Uiso   1.00
C545   C     0.21952   0.51238   0.59845   0.00000  Uiso   1.00
C546   C     0.05194   0.46850   0.92244   0.00000  Uiso   1.00
C547   C     0.03391   0.45784   0.97390   0.00000  Uiso   1.00
C548   C     0.07655   0.47269   0.50622   0.00000  Uiso   1.00
Cu549  Cu    0.10710   0.49439   0.74436   0.00000  Uiso   1.00
Cu550  Cu    0.22623   0.50561   0.75565   0.00000  Uiso   1.00
H551   H     0.31258   0.55677   0.60185   0.00000  Uiso   1.00
H552   H     0.09908   0.65353   0.74066   0.00000  Uiso   1.00
H553   H     0.32979   0.46017   0.71024   0.00000  Uiso   1.00
H554   H     0.29589   0.59764   0.93823   0.00000  Uiso   1.00
H555   H     0.00048   0.58669   0.51457   0.00000  Uiso   1.00
H556   H     0.13233   0.46927   0.58377   0.00000  Uiso   1.00
H557   H     0.01911   0.45326   0.89755   0.00000  Uiso   1.00
H558   H     0.05947   0.46235   0.54546   0.00000  Uiso   1.00
H559   H     0.32044   0.43632   0.98856   0.00000  Uiso   1.00
H560   H     0.21761   0.57440   0.88569   0.00000  Uiso   1.00
H561   H     0.23488   0.34657   0.75809   0.00000  Uiso   1.00
N562   N     0.31574   0.51407   0.76416   0.00000  Uiso   1.00
N563   N     0.01759   0.48593   0.73584   0.00000  Uiso   1.00
O564   O     0.12797   0.57141   0.74633   0.00000  Uiso   1.00
O565   O     0.22858   0.58089   0.75587   0.00000  Uiso   1.00
O566   O     0.09181   0.49293   0.81840   0.00000  Uiso   1.00
O567   O     0.19242   0.50241   0.82793   0.00000  Uiso   1.00
O568   O     0.10476   0.41911   0.74414   0.00000  Uiso   1.00
O569   O     0.20536   0.42859   0.75367   0.00000  Uiso   1.00
O570   O     0.14092   0.49759   0.67207   0.00000  Uiso   1.00
O571   O     0.24152   0.50707   0.68161   0.00000  Uiso   1.00
I572   I     0.01018   0.56985   0.81964   0.00000  Uiso   1.00
C573   C     0.51513   0.60002   0.75146   0.00000  Uiso   1.00
C574   C     0.47124   0.50123   0.98797   0.00000  Uiso   1.00
C575   C     0.48664   0.51757   0.93693   0.00000  Uiso   1.00
C576   C     0.51771   0.51469   0.51865   0.00000  Uiso   1.00
C577   C     0.57597   0.54821   0.99959   0.00000  Uiso   1.00
C578   C     0.58644   0.56957   0.95194   0.00000  Uiso   1.00
C579   C     0.54206   0.55504   0.92134   0.00000  Uiso   1.00
C580   C     0.50821   0.49591   0.56775   0.00000  Uiso   1.00
C581   C     0.61090   0.54371   0.57850   0.00000  Uiso   1.00
C582   C     0.44555   0.49677   0.90301   0.00000  Uiso   1.00
C583   C     0.52349   0.65605   0.75241   0.00000  Uiso   1.00
C584   C     0.46666   0.49880   0.84713   0.00000  Uiso   1.00
C585   C     0.47699   0.34400   0.74663   0.00000  Uiso   1.00
C586   C     0.48504   0.40000   0.74817   0.00000  Uiso   1.00
C587   C     0.53343   0.50360   0.65314   0.00000  Uiso   1.00
C588   C     0.62251   0.56135   0.52911   0.00000  Uiso   1.00
C589   C     0.55286   0.51238   0.59845   0.00000  Uiso   1.00
C590   C     0.38527   0.46850   0.92244   0.00000  Uiso   1.00
C591   C     0.36724   0.45784   0.97390   0.00000  Uiso   1.00
C592   C     0.40988   0.47269   0.50622   0.00000  Uiso   1.00
Cu593  Cu    0.44043   0.49439   0.74436   0.00000  Uiso   1.00
Cu594  Cu    0.55957   0.50561   0.75565   0.00000  Uiso   1.00
H595   H     0.64592   0.55677   0.60185   0.00000  Uiso   1.00
H596   H     0.43242   0.65353   0.74066   0.00000  Uiso   1.00
H597   H     0.66313   0.46017   0.71024   0.00000  Uiso   1.00
H598   H     0.62922   0.59764   0.93823   0.00000  Uiso   1.00
H599   H     0.33382   0.58669   0.51457   0.00000  Uiso   1.00
H600   H     0.46566   0.46927   0.58377   0.00000  Uiso   1.00
H601   H     0.35244   0.45326   0.89755   0.00000  Uiso   1.00
H602   H     0.39280   0.46235   0.54546   0.00000  Uiso   1.00
H603   H     0.65377   0.43632   0.98856   0.00000  Uiso   1.00
H604   H     0.55095   0.57440   0.88569   0.00000  Uiso   1.00
H605   H     0.56821   0.34657   0.75809   0.00000  Uiso   1.00
N606   N     0.64908   0.51407   0.76416   0.00000  Uiso   1.00
N607   N     0.35092   0.48593   0.73584   0.00000  Uiso   1.00
O608   O     0.46131   0.57141   0.74633   0.00000  Uiso   1.00
O609   O     0.56191   0.58089   0.75587   0.00000  Uiso   1.00
O610   O     0.42515   0.49293   0.81840   0.00000  Uiso   1.00
O611   O     0.52575   0.50241   0.82793   0.00000  Uiso   1.00
O612   O     0.43809   0.41911   0.74414   0.00000  Uiso   1.00
O613   O     0.53869   0.42859   0.75367   0.00000  Uiso   1.00
O614   O     0.47425   0.49759   0.67207   0.00000  Uiso   1.00
O615   O     0.57485   0.50707   0.68161   0.00000  Uiso   1.00
I616   I     0.34352   0.56985   0.81964   0.00000  Uiso   1.00
C617   C     0.84846   0.60002   0.75146   0.00000  Uiso   1.00
C618   C     0.80458   0.50123   0.98797   0.00000  Uiso   1.00
C619   C     0.81997   0.51757   0.93693   0.00000  Uiso   1.00
C620   C     0.85104   0.51469   0.51865   0.00000  Uiso   1.00
C621   C     0.90930   0.54821   0.99959   0.00000  Uiso   1.00
C622   C     0.91978   0.56957   0.95194   0.00000  Uiso   1.00
C623   C     0.87539   0.55504   0.92134   0.00000  Uiso   1.00
C624   C     0.84154   0.49591   0.56775   0.00000  Uiso   1.00
C625   C     0.94424   0.54371   0.57850   0.00000  Uiso   1.00
C626   C     0.77889   0.49677   0.90301   0.00000  Uiso   1.00
C627   C     0.85683   0.65605   0.75241   0.00000  Uiso   1.00
C628   C     0.80000   0.49880   0.84713   0.00000  Uiso   1.00
C629   C     0.81033   0.34400   0.74663   0.00000  Uiso   1.00
C630   C     0.81838   0.40000   0.74817   0.00000  Uiso   1.00
C631   C     0.86676   0.50360   0.65314   0.00000  Uiso   1.00
C632   C     0.95585   0.56135   0.52911   0.00000  Uiso   1.00
C633   C     0.88619   0.51238   0.59845   0.00000  Uiso   1.00
C634   C     0.71860   0.46850   0.92244   0.00000  Uiso   1.00
C635   C     0.70057   0.45784   0.97390   0.00000  Uiso   1.00
C636   C     0.74321   0.47269   0.50622   0.00000  Uiso   1.00
Cu637  Cu    0.77377   0.49439   0.74436   0.00000  Uiso   1.00
Cu638  Cu    0.89290   0.50561   0.75565   0.00000  Uiso   1.00
H639   H     0.97925   0.55677   0.60185   0.00000  Uiso   1.00
H640   H     0.76575   0.65353   0.74066   0.00000  Uiso   1.00
H641   H     0.99646   0.46017   0.71024   0.00000  Uiso   1.00
H642   H     0.96256   0.59764   0.93823   0.00000  Uiso   1.00
H643   H     0.66715   0.58669   0.51457   0.00000  Uiso   1.00
H644   H     0.79899   0.46927   0.58377   0.00000  Uiso   1.00
H645   H     0.68577   0.45326   0.89755   0.00000  Uiso   1.00
H646   H     0.72614   0.46235   0.54546   0.00000  Uiso   1.00
H647   H     0.98711   0.43632   0.98856   0.00000  Uiso   1.00
H648   H     0.88428   0.57440   0.88569   0.00000  Uiso   1.00
H649   H     0.90154   0.34657   0.75809   0.00000  Uiso   1.00
N650   N     0.98241   0.51407   0.76416   0.00000  Uiso   1.00
N651   N     0.68426   0.48593   0.73584   0.00000  Uiso   1.00
O652   O     0.79464   0.57141   0.74633   0.00000  Uiso   1.00
O653   O     0.89524   0.58089   0.75587   0.00000  Uiso   1.00
O654   O     0.75848   0.49293   0.81840   0.00000  Uiso   1.00
O655   O     0.85908   0.50241   0.82793   0.00000  Uiso   1.00
O656   O     0.77142   0.41911   0.74414   0.00000  Uiso   1.00
O657   O     0.87203   0.42859   0.75367   0.00000  Uiso   1.00
O658   O     0.80758   0.49759   0.67207   0.00000  Uiso   1.00
O659   O     0.90819   0.50707   0.68161   0.00000  Uiso   1.00
I660   I     0.67685   0.56985   0.81964   0.00000  Uiso   1.00
C661   C     0.18180   0.93335   0.75146   0.00000  Uiso   1.00
C662   C     0.13791   0.83456   0.98797   0.00000  Uiso   1.00
C663   C     0.15330   0.85090   0.93693   0.00000  Uiso   1.00
C664   C     0.18438   0.84803   0.51865   0.00000  Uiso   1.00
C665   C     0.24263   0.88154   0.99959   0.00000  Uiso   1.00
C666   C     0.25311   0.90291   0.95194   0.00000  Uiso   1.00
C667   C     0.20873   0.88837   0.92134   0.00000  Uiso   1.00
C668   C     0.17487   0.82924   0.56775   0.00000  Uiso   1.00
C669   C     0.27757   0.87704   0.57850   0.00000  Uiso   1.00
C670   C     0.11222   0.83010   0.90301   0.00000  Uiso   1.00
C671   C     0.19016   0.98938   0.75241   0.00000  Uiso   1.00
C672   C     0.13333   0.83213   0.84713   0.00000  Uiso   1.00
C673   C     0.14366   0.67733   0.74663   0.00000  Uiso   1.00
C674   C     0.15171   0.73334   0.74817   0.00000  Uiso   1.00
C675   C     0.20010   0.83694   0.65314   0.00000  Uiso   1.00
C676   C     0.28918   0.89469   0.52911   0.00000  Uiso   1.00
C677   C     0.21952   0.84571   0.59845   0.00000  Uiso   1.00
C678   C     0.05194   0.80183   0.92244   0.00000  Uiso   1.00
C679   C     0.03391   0.79117   0.97390   0.00000  Uiso   1.00
C680   C     0.07655   0.80603   0.50622   0.00000  Uiso   1.00
Cu681  Cu    0.10710   0.82772   0.74436   0.00000  Uiso   1.00
Cu682  Cu    0.22623   0.83895   0.75565   0.00000  Uiso   1.00
H683   H     0.31258   0.89011   0.60185   0.00000  Uiso   1.00
H684   H     0.09908   0.98686   0.74066   0.00000  Uiso   1.00
H685   H     0.32979   0.79351   0.71024   0.00000  Uiso   1.00
H686   H     0.29589   0.93098   0.93823   0.00000  Uiso   1.00
H687   H     0.00048   0.92002   0.51457   0.00000  Uiso   1.00
H688   H     0.13233   0.80260   0.58377   0.00000  Uiso   1.00
H689   H     0.01911   0.78659   0.89755   0.00000  Uiso   1.00
H690   H     0.05947   0.79568   0.54546   0.00000  Uiso   1.00
H691   H     0.32044   0.76966   0.98856   0.00000  Uiso   1.00
H692   H     0.21761   0.90773   0.88569   0.00000  Uiso   1.00
H693   H     0.23488   0.67990   0.75809   0.00000  Uiso   1.00
N694   N     0.31574   0.84741   0.76416   0.00000  Uiso   1.00
N695   N     0.01759   0.81926   0.73584   0.00000  Uiso   1.00
O696   O     0.12797   0.90474   0.74633   0.00000  Uiso   1.00
O697   O     0.22858   0.91422   0.75587   0.00000  Uiso   1.00
O698   O     0.09181   0.82627   0.81840   0.00000  Uiso   1.00
O699   O     0.19242   0.83575   0.82793   0.00000  Uiso   1.00
O700   O     0.10476   0.75245   0.74414   0.00000  Uiso   1.00
O701   O     0.20536   0.76193   0.75367   0.00000  Uiso   1.00
O702   O     0.14092   0.83092   0.67207   0.00000  Uiso   1.00
O703   O     0.24152   0.84040   0.68161   0.00000  Uiso   1.00
I704   I     0.01018   0.90319   0.81964   0.00000  Uiso   1.00
C705   C     0.51513   0.93335   0.75146   0.00000  Uiso   1.00
C706   C     0.47124   0.83456   0.98797   0.00000  Uiso   1.00
C707   C     0.48664   0.85090   0.93693   0.00000  Uiso   1.00
C708   C     0.51771   0.84803   0.51865   0.00000  Uiso   1.00
C709   C     0.57597   0.88154   0.99959   0.00000  Uiso   1.00
C710   C     0.58644   0.90291   0.95194   0.00000  Uiso   1.00
C711   C     0.54206   0.88837   0.92134   0.00000  Uiso   1.00
C712   C     0.50821   0.82924   0.56775   0.00000  Uiso   1.00
C713   C     0.61090   0.87704   0.57850   0.00000  Uiso   1.00
C714   C     0.44555   0.83010   0.90301   0.00000  Uiso   1.00
C715   C     0.52349   0.98938   0.75241   0.00000  Uiso   1.00
C716   C     0.46666   0.83213   0.84713   0.00000  Uiso   1.00
C717   C     0.47699   0.67733   0.74663   0.00000  Uiso   1.00
C718   C     0.48504   0.73334   0.74817   0.00000  Uiso   1.00
C719   C     0.53343   0.83694   0.65314   0.00000  Uiso   1.00
C720   C     0.62251   0.89469   0.52911   0.00000  Uiso   1.00
C721   C     0.55286   0.84571   0.59845   0.00000  Uiso   1.00
C722   C     0.38527   0.80183   0.92244   0.00000  Uiso   1.00
C723   C     0.36724   0.79117   0.97390   0.00000  Uiso   1.00
C724   C     0.40988   0.80603   0.50622   0.00000  Uiso   1.00
Cu725  Cu    0.44043   0.82772   0.74436   0.00000  Uiso   1.00
Cu726  Cu    0.55957   0.83895   0.75565   0.00000  Uiso   1.00
H727   H     0.64592   0.89011   0.60185   0.00000  Uiso   1.00
H728   H     0.43242   0.98686   0.74066   0.00000  Uiso   1.00
H729   H     0.66313   0.79351   0.71024   0.00000  Uiso   1.00
H730   H     0.62922   0.93098   0.93823   0.00000  Uiso   1.00
H731   H     0.33382   0.92002   0.51457   0.00000  Uiso   1.00
H732   H     0.46566   0.80260   0.58377   0.00000  Uiso   1.00
H733   H     0.35244   0.78659   0.89755   0.00000  Uiso   1.00
H734   H     0.39280   0.79568   0.54546   0.00000  Uiso   1.00
H735   H     0.65377   0.76966   0.98856   0.00000  Uiso   1.00
H736   H     0.55095   0.90773   0.88569   0.00000  Uiso   1.00
H737   H     0.56821   0.67990   0.75809   0.00000  Uiso   1.00
N738   N     0.64908   0.84741   0.76416   0.00000  Uiso   1.00
N739   N     0.35092   0.81926   0.73584   0.00000  Uiso   1.00
O740   O     0.46131   0.90474   0.74633   0.00000  Uiso   1.00
O741   O     0.56191   0.91422   0.75587   0.00000  Uiso   1.00
O742   O     0.42515   0.82627   0.81840   0.00000  Uiso   1.00
O743   O     0.52575   0.83575   0.82793   0.00000  Uiso   1.00
O744   O     0.43809   0.75245   0.74414   0.00000  Uiso   1.00
O745   O     0.53869   0.76193   0.75367   0.00000  Uiso   1.00
O746   O     0.47425   0.83092   0.67207   0.00000  Uiso   1.00
O747   O     0.57485   0.84040   0.68161   0.00000  Uiso   1.00
I748   I     0.34352   0.90319   0.81964   0.00000  Uiso   1.00
C749   C     0.84846   0.93335   0.75146   0.00000  Uiso   1.00
C750   C     0.80458   0.83456   0.98797   0.00000  Uiso   1.00
C751   C     0.81997   0.85090   0.93693   0.00000  Uiso   1.00
C752   C     0.85104   0.84803   0.51865   0.00000  Uiso   1.00
C753   C     0.90930   0.88154   0.99959   0.00000  Uiso   1.00
C754   C     0.91978   0.90291   0.95194   0.00000  Uiso   1.00
C755   C     0.87539   0.88837   0.92134   0.00000  Uiso   1.00
C756   C     0.84154   0.82924   0.56775   0.00000  Uiso   1.00
C757   C     0.94424   0.87704   0.57850   0.00000  Uiso   1.00
C758   C     0.77889   0.83010   0.90301   0.00000  Uiso   1.00
C759   C     0.85683   0.98938   0.75241   0.00000  Uiso   1.00
C760   C     0.80000   0.83213   0.84713   0.00000  Uiso   1.00
C761   C     0.81033   0.67733   0.74663   0.00000  Uiso   1.00
C762   C     0.81838   0.73334   0.74817   0.00000  Uiso   1.00
C763   C     0.86676   0.83694   0.65314   0.00000  Uiso   1.00
C764   C     0.95585   0.89469   0.52911   0.00000  Uiso   1.00
C765   C     0.88619   0.84571   0.59845   0.00000  Uiso   1.00
C766   C     0.71860   0.80183   0.92244   0.00000  Uiso   1.00
C767   C     0.70057   0.79117   0.97390   0.00000  Uiso   1.00
C768   C     0.74321   0.80603   0.50622   0.00000  Uiso   1.00
Cu769  Cu    0.77377   0.82772   0.74436   0.00000  Uiso   1.00
Cu770  Cu    0.89290   0.83895   0.75565   0.00000  Uiso   1.00
H771   H     0.97925   0.89011   0.60185   0.00000  Uiso   1.00
H772   H     0.76575   0.98686   0.74066   0.00000  Uiso   1.00
H773   H     0.99646   0.79351   0.71024   0.00000  Uiso   1.00
H774   H     0.96256   0.93098   0.93823   0.00000  Uiso   1.00
H775   H     0.66715   0.92002   0.51457   0.00000  Uiso   1.00
H776   H     0.79899   0.80260   0.58377   0.00000  Uiso   1.00
H777   H     0.68577   0.78659   0.89755   0.00000  Uiso   1.00
H778   H     0.72614   0.79568   0.54546   0.00000  Uiso   1.00
H779   H     0.98711   0.76966   0.98856   0.00000  Uiso   1.00
H780   H     0.88428   0.90773   0.88569   0.00000  Uiso   1.00
H781   H     0.90154   0.67990   0.75809   0.00000  Uiso   1.00
N782   N     0.98241   0.84741   0.76416   0.00000  Uiso   1.00
N783   N     0.68426   0.81926   0.73584   0.00000  Uiso   1.00
O784   O     0.79464   0.90474   0.74633   0.00000  Uiso   1.00
O785   O     0.89524   0.91422   0.75587   0.00000  Uiso   1.00
O786   O     0.75848   0.82627   0.81840   0.00000  Uiso   1.00
O787   O     0.85908   0.83575   0.82793   0.00000  Uiso   1.00
O788   O     0.77142   0.75245   0.74414   0.00000  Uiso   1.00
O789   O     0.87203   0.76193   0.75367   0.00000  Uiso   1.00
O790   O     0.80758   0.83092   0.67207   0.00000  Uiso   1.00
O791   O     0.90819   0.84040   0.68161   0.00000  Uiso   1.00
I792   I     0.67685   0.90319   0.81964   0.00000  Uiso   1.00
loop_
_geom_bond_atom_site_label_1
_geom_bond_atom_site_label_2
_geom_bond_distance
_geom_bond_site_symmetry_2
_ccdc_geom_bond_type
C1     C11     1.429   .     S
C1     O37     1.291   .     A
C1     O36     1.296   .     A
C2     C3      1.418   .     A
C2     C400    1.425   .     S
C2     C416    1.418   .     S
C3     C7      1.408   .     A
C3     C10     1.418   .     A
C4     C8      1.402   .     A
C4     C398    1.425   1_554 S
C4     C401    1.420   1_554 S
C5     C6      1.392   .     A
C5     C400    1.420   .     S
C5     C412    1.404   .     S
C6     C7      1.388   .     A
C6     H26     1.084   .     S
C7     H32     1.080   .     S
C8     C17     1.398   .     A
C8     H28     1.077   .     S
C9     C17     1.398   .     A
C9     C16     1.393   .     A
C9     H23     1.083   .     S
C10    C12     1.476   .     S
C10    C18     1.403   .     A
C11    C145    1.329   .     S
C11    H165    1.088   .     S
C12    O39     1.305   .     A
C12    O38     1.304   .     A
C13    C14     1.428   .     S
C13    C275    1.329   1_545 S
C13    H288    1.087   1_545 S
C14    O41     1.295   .     A
C14    O40     1.291   .     A
C15    O42     1.299   .     A
C15    O43     1.305   .     A
C15    C17     1.462   .     S
C16    C401    1.404   1_554 S
C16    H71     1.084   .     S
C18    C19     1.388   .     A
C18    H29     1.083   .     S
C19    C416    1.392   .     S
C19    H119    1.083   1_455 S
C20    H30     1.077   .     S
C20    C398    1.418   1_554 S
C20    C415    1.392   1_554 S
Cu21   N35     2.031   .     S
Cu21   O36     1.955   .     S
Cu21   O40     1.951   .     S
Cu21   O42     1.930   .     S
Cu21   Cu22    2.702   .     S
Cu21   O38     1.945   .     S
Cu22   O39     1.930   .     S
Cu22   N34     2.031   .     S
Cu22   O41     1.955   .     S
Cu22   O37     1.951   .     S
Cu22   O43     1.945   .     S
H24    C145    1.087   .     S
H25    N79     1.029   .     S
H27    C104    1.084   1_455 S
H31    C63     1.083   .     S
H33    C275    1.088   1_545 S
N34    N79     1.287   .     S
N34    I88     2.078   .     S
N35    H113    1.029   1_455 S
N35    N122    1.287   1_455 S
I44    N122    2.078   1_455 S
C45    C55     1.429   .     S
C45    O81     1.291   .     A
C45    O80     1.296   .     A
C46    C47     1.418   .     A
C46    C444    1.425   .     S
C46    C460    1.418   .     S
C47    C51     1.408   .     A
C47    C54     1.418   .     A
C48    C52     1.402   .     A
C48    C442    1.425   1_554 S
C48    C445    1.420   1_554 S
C49    C50     1.392   .     A
C49    C444    1.420   .     S
C49    C456    1.404   .     S
C50    C51     1.388   .     A
C50    H70     1.084   .     S
C51    H76     1.080   .     S
C52    C61     1.398   .     A
C52    H72     1.077   .     S
C53    C61     1.398   .     A
C53    C60     1.393   .     A
C53    H67     1.083   .     S
C54    C56     1.476   .     S
C54    C62     1.403   .     A
C55    C189    1.329   .     S
C55    H209    1.088   .     S
C56    O83     1.305   .     A
C56    O82     1.304   .     A
C57    C58     1.428   .     S
C57    C319    1.329   1_545 S
C57    H332    1.087   1_545 S
C58    O85     1.295   .     A
C58    O84     1.291   .     A
C59    O86     1.299   .     A
C59    O87     1.305   .     A
C59    C61     1.462   .     S
C60    C445    1.404   1_554 S
C60    H115    1.084   .     S
C62    C63     1.388   .     A
C62    H73     1.083   .     S
C63    C460    1.392   .     S
C64    H74     1.077   .     S
C64    C442    1.418   1_554 S
C64    C459    1.392   1_554 S
Cu65   N79     2.031   .     S
Cu65   O80     1.955   .     S
Cu65   O84     1.951   .     S
Cu65   O86     1.930   .     S
Cu65   Cu66    2.702   .     S
Cu65   O82     1.945   .     S
Cu66   O83     1.930   .     S
Cu66   N78     2.031   .     S
Cu66   O85     1.955   .     S
Cu66   O81     1.951   .     S
Cu66   O87     1.945   .     S
H68    C189    1.087   .     S
H69    N123    1.029   .     S
H75    C107    1.083   .     S
H77    C319    1.088   1_545 S
N78    N123    1.287   .     S
N78    I132    2.078   .     S
C89    C99     1.429   .     S
C89    O125    1.291   .     A
C89    O124    1.296   .     A
C90    C91     1.418   .     A
C90    C488    1.425   .     S
C90    C504    1.418   .     S
C91    C95     1.408   .     A
C91    C98     1.418   .     A
C92    C96     1.402   .     A
C92    C486    1.425   1_554 S
C92    C489    1.420   1_554 S
C93    C94     1.392   .     A
C93    C488    1.420   .     S
C93    C500    1.404   .     S
C94    C95     1.388   .     A
C94    H114    1.084   .     S
C95    H120    1.080   .     S
C96    C105    1.398   .     A
C96    H116    1.077   .     S
C97    C105    1.398   .     A
C97    C104    1.393   .     A
C97    H111    1.083   .     S
C98    C100    1.476   .     S
C98    C106    1.403   .     A
C99    C233    1.329   .     S
C99    H253    1.088   .     S
C100   O127    1.305   .     A
C100   O126    1.304   .     A
C101   C102    1.428   .     S
C101   C363    1.329   1_545 S
C101   H376    1.087   1_545 S
C102   O129    1.295   .     A
C102   O128    1.291   .     A
C103   O130    1.299   .     A
C103   O131    1.305   .     A
C103   C105    1.462   .     S
C104   C489    1.404   1_554 S
C104   H27     1.084   1_655 S
C106   C107    1.388   .     A
C106   H117    1.083   .     S
C107   C504    1.392   .     S
C108   H118    1.077   .     S
C108   C486    1.418   1_554 S
C108   C503    1.392   1_554 S
Cu109  N123    2.031   .     S
Cu109  O124    1.955   .     S
Cu109  O128    1.951   .     S
Cu109  O130    1.930   .     S
Cu109  Cu110   2.702   .     S
Cu109  O126    1.945   .     S
Cu110  O127    1.930   .     S
Cu110  N122    2.031   .     S
Cu110  O129    1.955   .     S
Cu110  O125    1.951   .     S
Cu110  O131    1.945   .     S
H112   C233    1.087   .     S
H113   N35     1.029   1_655 S
H119   C19     1.083   1_655 S
H121   C363    1.088   1_545 S
N122   N35     1.287   1_655 S
N122   I44     2.078   1_655 S
C133   C143    1.429   .     S
C133   O169    1.291   .     A
C133   O168    1.296   .     A
C134   C135    1.418   .     A
C134   C532    1.425   .     S
C134   C548    1.418   .     S
C135   C139    1.408   .     A
C135   C142    1.418   .     A
C136   C140    1.402   .     A
C136   C530    1.425   1_554 S
C136   C533    1.420   1_554 S
C137   C138    1.392   .     A
C137   C532    1.420   .     S
C137   C544    1.404   .     S
C138   C139    1.388   .     A
C138   H158    1.084   .     S
C139   H164    1.080   .     S
C140   C149    1.398   .     A
C140   H160    1.077   .     S
C141   C149    1.398   .     A
C141   C148    1.393   .     A
C141   H155    1.083   .     S
C142   C144    1.476   .     S
C142   C150    1.403   .     A
C143   C277    1.329   .     S
C143   H297    1.088   .     S
C144   O171    1.305   .     A
C144   O170    1.304   .     A
C145   C146    1.428   .     S
C146   O173    1.295   .     A
C146   O172    1.291   .     A
C147   O174    1.299   .     A
C147   O175    1.305   .     A
C147   C149    1.462   .     S
C148   C533    1.404   1_554 S
C148   H203    1.084   .     S
C150   C151    1.388   .     A
C150   H161    1.083   .     S
C151   C548    1.392   .     S
C151   H251    1.083   1_455 S
C152   H162    1.077   .     S
C152   C530    1.418   1_554 S
C152   C547    1.392   1_554 S
Cu153  N167    2.031   .     S
Cu153  O168    1.955   .     S
Cu153  O172    1.951   .     S
Cu153  O174    1.930   .     S
Cu153  Cu154   2.702   .     S
Cu153  O170    1.945   .     S
Cu154  O171    1.930   .     S
Cu154  N166    2.031   .     S
Cu154  O173    1.955   .     S
Cu154  O169    1.951   .     S
Cu154  O175    1.945   .     S
H156   C277    1.087   .     S
H157   N211    1.029   .     S
H159   C236    1.084   1_455 S
H163   C195    1.083   .     S
N166   N211    1.287   .     S
N166   I220    2.078   .     S
N167   H245    1.029   1_455 S
N167   N254    1.287   1_455 S
I176   N254    2.078   1_455 S
C177   C187    1.429   .     S
C177   O213    1.291   .     A
C177   O212    1.296   .     A
C178   C179    1.418   .     A
C178   C576    1.425   .     S
C178   C592    1.418   .     S
C179   C183    1.408   .     A
C179   C186    1.418   .     A
C180   C184    1.402   .     A
C180   C574    1.425   1_554 S
C180   C577    1.420   1_554 S
C181   C182    1.392   .     A
C181   C576    1.420   .     S
C181   C588    1.404   .     S
C182   C183    1.388   .     A
C182   H202    1.084   .     S
C183   H208    1.080   .     S
C184   C193    1.398   .     A
C184   H204    1.077   .     S
C185   C193    1.398   .     A
C185   C192    1.393   .     A
C185   H199    1.083   .     S
C186   C188    1.476   .     S
C186   C194    1.403   .     A
C187   C321    1.329   .     S
C187   H341    1.088   .     S
C188   O215    1.305   .     A
C188   O214    1.304   .     A
C189   C190    1.428   .     S
C190   O217    1.295   .     A
C190   O216    1.291   .     A
C191   O218    1.299   .     A
C191   O219    1.305   .     A
C191   C193    1.462   .     S
C192   C577    1.404   1_554 S
C192   H247    1.084   .     S
C194   C195    1.388   .     A
C194   H205    1.083   .     S
C195   C592    1.392   .     S
C196   H206    1.077   .     S
C196   C574    1.418   1_554 S
C196   C591    1.392   1_554 S
Cu197  N211    2.031   .     S
Cu197  O212    1.955   .     S
Cu197  O216    1.951   .     S
Cu197  O218    1.930   .     S
Cu197  Cu198   2.702   .     S
Cu197  O214    1.945   .     S
Cu198  O215    1.930   .     S
Cu198  N210    2.031   .     S
Cu198  O217    1.955   .     S
Cu198  O213    1.951   .     S
Cu198  O219    1.945   .     S
H200   C321    1.087   .     S
H201   N255    1.029   .     S
H207   C239    1.083   .     S
N210   N255    1.287   .     S
N210   I264    2.078   .     S
C221   C231    1.429   .     S
C221   O257    1.291   .     A
C221   O256    1.296   .     A
C222   C223    1.418   .     A
C222   C620    1.425   .     S
C222   C636    1.418   .     S
C223   C227    1.408   .     A
C223   C230    1.418   .     A
C224   C228    1.402   .     A
C224   C618    1.425   1_554 S
C224   C621    1.420   1_554 S
C225   C226    1.392   .     A
C225   C620    1.420   .     S
C225   C632    1.404   .     S
C226   C227    1.388   .     A
C226   H246    1.084   .     S
C227   H252    1.080   .     S
C228   C237    1.398   .     A
C228   H248    1.077   .     S
C229   C237    1.398   .     A
C229   C236    1.393   .     A
C229   H243    1.083   .     S
C230   C232    1.476   .     S
C230   C238    1.403   .     A
C231   C365    1.329   .     S
C231   H385    1.088   .     S
C232   O259    1.305   .     A
C232   O258    1.304   .     A
C233   C234    1.428   .     S
C234   O261    1.295   .     A
C234   O260    1.291   .     A
C235   O262    1.299   .     A
C235   O263    1.305   .     A
C235   C237    1.462   .     S
C236   C621    1.404   1_554 S
C236   H159    1.084   1_655 S
C238   C239    1.388   .     A
C238   H249    1.083   .     S
C239   C636    1.392   .     S
C240   H250    1.077   .     S
C240   C618    1.418   1_554 S
C240   C635    1.392   1_554 S
Cu241  N255    2.031   .     S
Cu241  O256    1.955   .     S
Cu241  O260    1.951   .     S
Cu241  O262    1.930   .     S
Cu241  Cu242   2.702   .     S
Cu241  O258    1.945   .     S
Cu242  O259    1.930   .     S
Cu242  N254    2.031   .     S
Cu242  O261    1.955   .     S
Cu242  O257    1.951   .     S
Cu242  O263    1.945   .     S
H244   C365    1.087   .     S
H245   N167    1.029   1_655 S
H251   C151    1.083   1_655 S
N254   N167    1.287   1_655 S
N254   I176    2.078   1_655 S
C265   C275    1.429   .     S
C265   O301    1.291   .     A
C265   O300    1.296   .     A
C266   C267    1.418   .     A
C266   C664    1.425   .     S
C266   C680    1.418   .     S
C267   C271    1.408   .     A
C267   C274    1.418   .     A
C268   C272    1.402   .     A
C268   C662    1.425   1_554 S
C268   C665    1.420   1_554 S
C269   C270    1.392   .     A
C269   C664    1.420   .     S
C269   C676    1.404   .     S
C270   C271    1.388   .     A
C270   H290    1.084   .     S
C271   H296    1.080   .     S
C272   C281    1.398   .     A
C272   H292    1.077   .     S
C273   C281    1.398   .     A
C273   C280    1.393   .     A
C273   H287    1.083   .     S
C274   C276    1.476   .     S
C274   C282    1.403   .     A
C275   C13     1.329   1_565 S
C275   H33     1.088   1_565 S
C276   O303    1.305   .     A
C276   O302    1.304   .     A
C277   C278    1.428   .     S
C278   O305    1.295   .     A
C278   O304    1.291   .     A
C279   O306    1.299   .     A
C279   O307    1.305   .     A
C279   C281    1.462   .     S
C280   C665    1.404   1_554 S
C280   H335    1.084   .     S
C282   C283    1.388   .     A
C282   H293    1.083   .     S
C283   C680    1.392   .     S
C283   H383    1.083   1_455 S
C284   H294    1.077   .     S
C284   C662    1.418   1_554 S
C284   C679    1.392   1_554 S
Cu285  N299    2.031   .     S
Cu285  O300    1.955   .     S
Cu285  O304    1.951   .     S
Cu285  O306    1.930   .     S
Cu285  Cu286   2.702   .     S
Cu285  O302    1.945   .     S
Cu286  O303    1.930   .     S
Cu286  N298    2.031   .     S
Cu286  O305    1.955   .     S
Cu286  O301    1.951   .     S
Cu286  O307    1.945   .     S
H288   C13     1.087   1_565 S
H289   N343    1.029   .     S
H291   C368    1.084   1_455 S
H295   C327    1.083   .     S
N298   N343    1.287   .     S
N298   I352    2.078   .     S
N299   H377    1.029   1_455 S
N299   N386    1.287   1_455 S
I308   N386    2.078   1_455 S
C309   C319    1.429   .     S
C309   O345    1.291   .     A
C309   O344    1.296   .     A
C310   C311    1.418   .     A
C310   C708    1.425   .     S
C310   C724    1.418   .     S
C311   C315    1.408   .     A
C311   C318    1.418   .     A
C312   C316    1.402   .     A
C312   C706    1.425   1_554 S
C312   C709    1.420   1_554 S
C313   C314    1.392   .     A
C313   C708    1.420   .     S
C313   C720    1.404   .     S
C314   C315    1.388   .     A
C314   H334    1.084   .     S
C315   H340    1.080   .     S
C316   C325    1.398   .     A
C316   H336    1.077   .     S
C317   C325    1.398   .     A
C317   C324    1.393   .     A
C317   H331    1.083   .     S
C318   C320    1.476   .     S
C318   C326    1.403   .     A
C319   C57     1.329   1_565 S
C319   H77     1.088   1_565 S
C320   O347    1.305   .     A
C320   O346    1.304   .     A
C321   C322    1.428   .     S
C322   O349    1.295   .     A
C322   O348    1.291   .     A
C323   O350    1.299   .     A
C323   O351    1.305   .     A
C323   C325    1.462   .     S
C324   C709    1.404   1_554 S
C324   H379    1.084   .     S
C326   C327    1.388   .     A
C326   H337    1.083   .     S
C327   C724    1.392   .     S
C328   H338    1.077   .     S
C328   C706    1.418   1_554 S
C328   C723    1.392   1_554 S
Cu329  N343    2.031   .     S
Cu329  O344    1.955   .     S
Cu329  O348    1.951   .     S
Cu329  O350    1.930   .     S
Cu329  Cu330   2.702   .     S
Cu329  O346    1.945   .     S
Cu330  O347    1.930   .     S
Cu330  N342    2.031   .     S
Cu330  O349    1.955   .     S
Cu330  O345    1.951   .     S
Cu330  O351    1.945   .     S
H332   C57     1.087   1_565 S
H333   N387    1.029   .     S
H339   C371    1.083   .     S
N342   N387    1.287   .     S
N342   I396    2.078   .     S
C353   C363    1.429   .     S
C353   O389    1.291   .     A
C353   O388    1.296   .     A
C354   C355    1.418   .     A
C354   C752    1.425   .     S
C354   C768    1.418   .     S
C355   C359    1.408   .     A
C355   C362    1.418   .     A
C356   C360    1.402   .     A
C356   C750    1.425   1_554 S
C356   C753    1.420   1_554 S
C357   C358    1.392   .     A
C357   C752    1.420   .     S
C357   C764    1.404   .     S
C358   C359    1.388   .     A
C358   H378    1.084   .     S
C359   H384    1.080   .     S
C360   C369    1.398   .     A
C360   H380    1.077   .     S
C361   C369    1.398   .     A
C361   C368    1.393   .     A
C361   H375    1.083   .     S
C362   C364    1.476   .     S
C362   C370    1.403   .     A
C363   C101    1.329   1_565 S
C363   H121    1.088   1_565 S
C364   O391    1.305   .     A
C364   O390    1.304   .     A
C365   C366    1.428   .     S
C366   O393    1.295   .     A
C366   O392    1.291   .     A
C367   O394    1.299   .     A
C367   O395    1.305   .     A
C367   C369    1.462   .     S
C368   C753    1.404   1_554 S
C368   H291    1.084   1_655 S
C370   C371    1.388   .     A
C370   H381    1.083   .     S
C371   C768    1.392   .     S
C372   H382    1.077   .     S
C372   C750    1.418   1_554 S
C372   C767    1.392   1_554 S
Cu373  N387    2.031   .     S
Cu373  O388    1.955   .     S
Cu373  O392    1.951   .     S
Cu373  O394    1.930   .     S
Cu373  Cu374   2.702   .     S
Cu373  O390    1.945   .     S
Cu374  O391    1.930   .     S
Cu374  N386    2.031   .     S
Cu374  O393    1.955   .     S
Cu374  O389    1.951   .     S
Cu374  O395    1.945   .     S
H376   C101    1.087   1_565 S
H377   N299    1.029   1_655 S
H383   C283    1.083   1_655 S
N386   N299    1.287   1_655 S
N386   I308    2.078   1_655 S
C397   C407    1.429   .     S
C397   O433    1.291   .     A
C397   O432    1.296   .     A
C398   C399    1.418   .     A
C398   C4      1.425   1_556 S
C398   C20     1.418   1_556 S
C399   C403    1.408   .     A
C399   C406    1.418   .     A
C400   C404    1.402   .     A
C401   C402    1.392   .     A
C401   C4      1.420   1_556 S
C401   C16     1.404   1_556 S
C402   C403    1.388   .     A
C402   H422    1.084   .     S
C403   H428    1.080   .     S
C404   C413    1.398   .     A
C404   H424    1.077   .     S
C405   C413    1.398   .     A
C405   C412    1.393   .     A
C405   H419    1.083   .     S
C406   C408    1.476   .     S
C406   C414    1.403   .     A
C407   C541    1.329   .     S
C407   H561    1.088   .     S
C408   O435    1.305   .     A
C408   O434    1.304   .     A
C409   C410    1.428   .     S
C409   C671    1.329   1_545 S
C409   H684    1.087   1_545 S
C410   O437    1.295   .     A
C410   O436    1.291   .     A
C411   O438    1.299   .     A
C411   O439    1.305   .     A
C411   C413    1.462   .     S
C412   H467    1.084   .     S
C414   C415    1.388   .     A
C414   H425    1.083   .     S
C415   C20     1.392   1_556 S
C415   H515    1.083   1_455 S
C416   H426    1.077   .     S
Cu417  N431    2.031   .     S
Cu417  O432    1.955   .     S
Cu417  O436    1.951   .     S
Cu417  O438    1.930   .     S
Cu417  Cu418   2.702   .     S
Cu417  O434    1.945   .     S
Cu418  O435    1.930   .     S
Cu418  N430    2.031   .     S
Cu418  O437    1.955   .     S
Cu418  O433    1.951   .     S
Cu418  O439    1.945   .     S
H420   C541    1.087   .     S
H421   N475    1.029   .     S
H423   C500    1.084   1_455 S
H427   C459    1.083   .     S
H429   C671    1.088   1_545 S
N430   N475    1.287   .     S
N430   I484    2.078   .     S
N431   H509    1.029   1_455 S
N431   N518    1.287   1_455 S
I440   N518    2.078   1_455 S
C441   C451    1.429   .     S
C441   O477    1.291   .     A
C441   O476    1.296   .     A
C442   C443    1.418   .     A
C442   C48     1.425   1_556 S
C442   C64     1.418   1_556 S
C443   C447    1.408   .     A
C443   C450    1.418   .     A
C444   C448    1.402   .     A
C445   C446    1.392   .     A
C445   C48     1.420   1_556 S
C445   C60     1.404   1_556 S
C446   C447    1.388   .     A
C446   H466    1.084   .     S
C447   H472    1.080   .     S
C448   C457    1.398   .     A
C448   H468    1.077   .     S
C449   C457    1.398   .     A
C449   C456    1.393   .     A
C449   H463    1.083   .     S
C450   C452    1.476   .     S
C450   C458    1.403   .     A
C451   C585    1.329   .     S
C451   H605    1.088   .     S
C452   O479    1.305   .     A
C452   O478    1.304   .     A
C453   C454    1.428   .     S
C453   C715    1.329   1_545 S
C453   H728    1.087   1_545 S
C454   O481    1.295   .     A
C454   O480    1.291   .     A
C455   O482    1.299   .     A
C455   O483    1.305   .     A
C455   C457    1.462   .     S
C456   H511    1.084   .     S
C458   C459    1.388   .     A
C458   H469    1.083   .     S
C459   C64     1.392   1_556 S
C460   H470    1.077   .     S
Cu461  N475    2.031   .     S
Cu461  O476    1.955   .     S
Cu461  O480    1.951   .     S
Cu461  O482    1.930   .     S
Cu461  Cu462   2.702   .     S
Cu461  O478    1.945   .     S
Cu462  O479    1.930   .     S
Cu462  N474    2.031   .     S
Cu462  O481    1.955   .     S
Cu462  O477    1.951   .     S
Cu462  O483    1.945   .     S
H464   C585    1.087   .     S
H465   N519    1.029   .     S
H471   C503    1.083   .     S
H473   C715    1.088   1_545 S
N474   N519    1.287   .     S
N474   I528    2.078   .     S
C485   C495    1.429   .     S
C485   O521    1.291   .     A
C485   O520    1.296   .     A
C486   C487    1.418   .     A
C486   C92     1.425   1_556 S
C486   C108    1.418   1_556 S
C487   C491    1.408   .     A
C487   C494    1.418   .     A
C488   C492    1.402   .     A
C489   C490    1.392   .     A
C489   C92     1.420   1_556 S
C489   C104    1.404   1_556 S
C490   C491    1.388   .     A
C490   H510    1.084   .     S
C491   H516    1.080   .     S
C492   C501    1.398   .     A
C492   H512    1.077   .     S
C493   C501    1.398   .     A
C493   C500    1.393   .     A
C493   H507    1.083   .     S
C494   C496    1.476   .     S
C494   C502    1.403   .     A
C495   C629    1.329   .     S
C495   H649    1.088   .     S
C496   O523    1.305   .     A
C496   O522    1.304   .     A
C497   C498    1.428   .     S
C497   C759    1.329   1_545 S
C497   H772    1.087   1_545 S
C498   O525    1.295   .     A
C498   O524    1.291   .     A
C499   O526    1.299   .     A
C499   O527    1.305   .     A
C499   C501    1.462   .     S
C500   H423    1.084   1_655 S
C502   C503    1.388   .     A
C502   H513    1.083   .     S
C503   C108    1.392   1_556 S
C504   H514    1.077   .     S
Cu505  N519    2.031   .     S
Cu505  O520    1.955   .     S
Cu505  O524    1.951   .     S
Cu505  O526    1.930   .     S
Cu505  Cu506   2.702   .     S
Cu505  O522    1.945   .     S
Cu506  O523    1.930   .     S
Cu506  N518    2.031   .     S
Cu506  O525    1.955   .     S
Cu506  O521    1.951   .     S
Cu506  O527    1.945   .     S
H508   C629    1.087   .     S
H509   N431    1.029   1_655 S
H515   C415    1.083   1_655 S
H517   C759    1.088   1_545 S
N518   N431    1.287   1_655 S
N518   I440    2.078   1_655 S
C529   C539    1.429   .     S
C529   O565    1.291   .     A
C529   O564    1.296   .     A
C530   C531    1.418   .     A
C530   C136    1.425   1_556 S
C530   C152    1.418   1_556 S
C531   C535    1.408   .     A
C531   C538    1.418   .     A
C532   C536    1.402   .     A
C533   C534    1.392   .     A
C533   C136    1.420   1_556 S
C533   C148    1.404   1_556 S
C534   C535    1.388   .     A
C534   H554    1.084   .     S
C535   H560    1.080   .     S
C536   C545    1.398   .     A
C536   H556    1.077   .     S
C537   C545    1.398   .     A
C537   C544    1.393   .     A
C537   H551    1.083   .     S
C538   C540    1.476   .     S
C538   C546    1.403   .     A
C539   C673    1.329   .     S
C539   H693    1.088   .     S
C540   O567    1.305   .     A
C540   O566    1.304   .     A
C541   C542    1.428   .     S
C542   O569    1.295   .     A
C542   O568    1.291   .     A
C543   O570    1.299   .     A
C543   O571    1.305   .     A
C543   C545    1.462   .     S
C544   H599    1.084   .     S
C546   C547    1.388   .     A
C546   H557    1.083   .     S
C547   C152    1.392   1_556 S
C547   H647    1.083   1_455 S
C548   H558    1.077   .     S
Cu549  N563    2.031   .     S
Cu549  O564    1.955   .     S
Cu549  O568    1.951   .     S
Cu549  O570    1.930   .     S
Cu549  Cu550   2.702   .     S
Cu549  O566    1.945   .     S
Cu550  O567    1.930   .     S
Cu550  N562    2.031   .     S
Cu550  O569    1.955   .     S
Cu550  O565    1.951   .     S
Cu550  O571    1.945   .     S
H552   C673    1.087   .     S
H553   N607    1.029   .     S
H555   C632    1.084   1_455 S
H559   C591    1.083   .     S
N562   N607    1.287   .     S
N562   I616    2.078   .     S
N563   H641    1.029   1_455 S
N563   N650    1.287   1_455 S
I572   N650    2.078   1_455 S
C573   C583    1.429   .     S
C573   O609    1.291   .     A
C573   O608    1.296   .     A
C574   C575    1.418   .     A
C574   C180    1.425   1_556 S
C574   C196    1.418   1_556 S
C575   C579    1.408   .     A
C575   C582    1.418   .     A
C576   C580    1.402   .     A
C577   C578    1.392   .     A
C577   C180    1.420   1_556 S
C577   C192    1.404   1_556 S
C578   C579    1.388   .     A
C578   H598    1.084   .     S
C579   H604    1.080   .     S
C580   C589    1.398   .     A
C580   H600    1.077   .     S
C581   C589    1.398   .     A
C581   C588    1.393   .     A
C581   H595    1.083   .     S
C582   C584    1.476   .     S
C582   C590    1.403   .     A
C583   C717    1.329   .     S
C583   H737    1.088   .     S
C584   O611    1.305   .     A
C584   O610    1.304   .     A
C585   C586    1.428   .     S
C586   O613    1.295   .     A
C586   O612    1.291   .     A
C587   O614    1.299   .     A
C587   O615    1.305   .     A
C587   C589    1.462   .     S
C588   H643    1.084   .     S
C590   C591    1.388   .     A
C590   H601    1.083   .     S
C591   C196    1.392   1_556 S
C592   H602    1.077   .     S
Cu593  N607    2.031   .     S
Cu593  O608    1.955   .     S
Cu593  O612    1.951   .     S
Cu593  O614    1.930   .     S
Cu593  Cu594   2.702   .     S
Cu593  O610    1.945   .     S
Cu594  O611    1.930   .     S
Cu594  N606    2.031   .     S
Cu594  O613    1.955   .     S
Cu594  O609    1.951   .     S
Cu594  O615    1.945   .     S
H596   C717    1.087   .     S
H597   N651    1.029   .     S
H603   C635    1.083   .     S
N606   N651    1.287   .     S
N606   I660    2.078   .     S
C617   C627    1.429   .     S
C617   O653    1.291   .     A
C617   O652    1.296   .     A
C618   C619    1.418   .     A
C618   C224    1.425   1_556 S
C618   C240    1.418   1_556 S
C619   C623    1.408   .     A
C619   C626    1.418   .     A
C620   C624    1.402   .     A
C621   C622    1.392   .     A
C621   C224    1.420   1_556 S
C621   C236    1.404   1_556 S
C622   C623    1.388   .     A
C622   H642    1.084   .     S
C623   H648    1.080   .     S
C624   C633    1.398   .     A
C624   H644    1.077   .     S
C625   C633    1.398   .     A
C625   C632    1.393   .     A
C625   H639    1.083   .     S
C626   C628    1.476   .     S
C626   C634    1.403   .     A
C627   C761    1.329   .     S
C627   H781    1.088   .     S
C628   O655    1.305   .     A
C628   O654    1.304   .     A
C629   C630    1.428   .     S
C630   O657    1.295   .     A
C630   O656    1.291   .     A
C631   O658    1.299   .     A
C631   O659    1.305   .     A
C631   C633    1.462   .     S
C632   H555    1.084   1_655 S
C634   C635    1.388   .     A
C634   H645    1.083   .     S
C635   C240    1.392   1_556 S
C636   H646    1.077   .     S
Cu637  N651    2.031   .     S
Cu637  O652    1.955   .     S
Cu637  O656    1.951   .     S
Cu637  O658    1.930   .     S
Cu637  Cu638   2.702   .     S
Cu637  O654    1.945   .     S
Cu638  O655    1.930   .     S
Cu638  N650    2.031   .     S
Cu638  O657    1.955   .     S
Cu638  O653    1.951   .     S
Cu638  O659    1.945   .     S
H640   C761    1.087   .     S
H641   N563    1.029   1_655 S
H647   C547    1.083   1_655 S
N650   N563    1.287   1_655 S
N650   I572    2.078   1_655 S
C661   C671    1.429   .     S
C661   O697    1.291   .     A
C661   O696    1.296   .     A
C662   C663    1.418   .     A
C662   C268    1.425   1_556 S
C662   C284    1.418   1_556 S
C663   C667    1.408   .     A
C663   C670    1.418   .     A
C664   C668    1.402   .     A
C665   C666    1.392   .     A
C665   C268    1.420   1_556 S
C665   C280    1.404   1_556 S
C666   C667    1.388   .     A
C666   H686    1.084   .     S
C667   H692    1.080   .     S
C668   C677    1.398   .     A
C668   H688    1.077   .     S
C669   C677    1.398   .     A
C669   C676    1.393   .     A
C669   H683    1.083   .     S
C670   C672    1.476   .     S
C670   C678    1.403   .     A
C671   C409    1.329   1_565 S
C671   H429    1.088   1_565 S
C672   O699    1.305   .     A
C672   O698    1.304   .     A
C673   C674    1.428   .     S
C674   O701    1.295   .     A
C674   O700    1.291   .     A
C675   O702    1.299   .     A
C675   O703    1.305   .     A
C675   C677    1.462   .     S
C676   H731    1.084   .     S
C678   C679    1.388   .     A
C678   H689    1.083   .     S
C679   C284    1.392   1_556 S
C679   H779    1.083   1_455 S
C680   H690    1.077   .     S
Cu681  N695    2.031   .     S
Cu681  O696    1.955   .     S
Cu681  O700    1.951   .     S
Cu681  O702    1.930   .     S
Cu681  Cu682   2.702   .     S
Cu681  O698    1.945   .     S
Cu682  O699    1.930   .     S
Cu682  N694    2.031   .     S
Cu682  O701    1.955   .     S
Cu682  O697    1.951   .     S
Cu682  O703    1.945   .     S
H684   C409    1.087   1_565 S
H685   N739    1.029   .     S
H687   C764    1.084   1_455 S
H691   C723    1.083   .     S
N694   N739    1.287   .     S
N694   I748    2.078   .     S
N695   H773    1.029   1_455 S
N695   N782    1.287   1_455 S
I704   N782    2.078   1_455 S
C705   C715    1.429   .     S
C705   O741    1.291   .     A
C705   O740    1.296   .     A
C706   C707    1.418   .     A
C706   C312    1.425   1_556 S
C706   C328    1.418   1_556 S
C707   C711    1.408   .     A
C707   C714    1.418   .     A
C708   C712    1.402   .     A
C709   C710    1.392   .     A
C709   C312    1.420   1_556 S
C709   C324    1.404   1_556 S
C710   C711    1.388   .     A
C710   H730    1.084   .     S
C711   H736    1.080   .     S
C712   C721    1.398   .     A
C712   H732    1.077   .     S
C713   C721    1.398   .     A
C713   C720    1.393   .     A
C713   H727    1.083   .     S
C714   C716    1.476   .     S
C714   C722    1.403   .     A
C715   C453    1.329   1_565 S
C715   H473    1.088   1_565 S
C716   O743    1.305   .     A
C716   O742    1.304   .     A
C717   C718    1.428   .     S
C718   O745    1.295   .     A
C718   O744    1.291   .     A
C719   O746    1.299   .     A
C719   O747    1.305   .     A
C719   C721    1.462   .     S
C720   H775    1.084   .     S
C722   C723    1.388   .     A
C722   H733    1.083   .     S
C723   C328    1.392   1_556 S
C724   H734    1.077   .     S
Cu725  N739    2.031   .     S
Cu725  O740    1.955   .     S
Cu725  O744    1.951   .     S
Cu725  O746    1.930   .     S
Cu725  Cu726   2.702   .     S
Cu725  O742    1.945   .     S
Cu726  O743    1.930   .     S
Cu726  N738    2.031   .     S
Cu726  O745    1.955   .     S
Cu726  O741    1.951   .     S
Cu726  O747    1.945   .     S
H728   C453    1.087   1_565 S
H729   N783    1.029   .     S
H735   C767    1.083   .     S
N738   N783    1.287   .     S
N738   I792    2.078   .     S
C749   C759    1.429   .     S
C749   O785    1.291   .     A
C749   O784    1.296   .     A
C750   C751    1.418   .     A
C750   C356    1.425   1_556 S
C750   C372    1.418   1_556 S
C751   C755    1.408   .     A
C751   C758    1.418   .     A
C752   C756    1.402   .     A
C753   C754    1.392   .     A
C753   C356    1.420   1_556 S
C753   C368    1.404   1_556 S
C754   C755    1.388   .     A
C754   H774    1.084   .     S
C755   H780    1.080   .     S
C756   C765    1.398   .     A
C756   H776    1.077   .     S
C757   C765    1.398   .     A
C757   C764    1.393   .     A
C757   H771    1.083   .     S
C758   C760    1.476   .     S
C758   C766    1.403   .     A
C759   C497    1.329   1_565 S
C759   H517    1.088   1_565 S
C760   O787    1.305   .     A
C760   O786    1.304   .     A
C761   C762    1.428   .     S
C762   O789    1.295   .     A
C762   O788    1.291   .     A
C763   O790    1.299   .     A
C763   O791    1.305   .     A
C763   C765    1.462   .     S
C764   H687    1.084   1_655 S
C766   C767    1.388   .     A
C766   H777    1.083   .     S
C767   C372    1.392   1_556 S
C768   H778    1.077   .     S
Cu769  N783    2.031   .     S
Cu769  O784    1.955   .     S
Cu769  O788    1.951   .     S
Cu769  O790    1.930   .     S
Cu769  Cu770   2.702   .     S
Cu769  O786    1.945   .     S
Cu770  O787    1.930   .     S
Cu770  N782    2.031   .     S
Cu770  O789    1.955   .     S
Cu770  O785    1.951   .     S
Cu770  O791    1.945   .     S
H772   C497    1.087   1_565 S
H773   N695    1.029   1_655 S
H779   C679    1.083   1_655 S
N782   N695    1.287   1_655 S
N782   I704    2.078   1_655 S
