data_str_m3_o1_o1_pcu_sym.42
_audit_creation_date              2020-01-03
_audit_creation_method            'Materials Studio'
_symmetry_space_group_name_H-M    'P1'
_symmetry_Int_Tables_number       1
_symmetry_cell_setting            triclinic
loop_
_symmetry_equiv_pos_as_xyz
  x,y,z
_cell_length_a                    30.2539
_cell_length_b                    29.7544
_cell_length_c                    29.8144
_cell_angle_alpha                 90.4352
_cell_angle_beta                  89.8887
_cell_angle_gamma                 89.6927
loop_
_atom_site_label
_atom_site_type_symbol
_atom_site_fract_x
_atom_site_fract_y
_atom_site_fract_z
_atom_site_U_iso_or_equiv
_atom_site_adp_type
_atom_site_occupancy
C1     C     0.05965   0.18991   0.16654   0.00000  Uiso   1.00
C2     C     0.49326   0.21104   0.30902   0.00000  Uiso   1.00
C3     C     0.49457   0.21086   0.02371   0.00000  Uiso   1.00
C4     C     0.00425   0.28936   0.30952   0.00000  Uiso   1.00
C5     C     0.25482   0.03934   0.02450   0.00000  Uiso   1.00
C6     C     0.24326   0.46104   0.30902   0.00000  Uiso   1.00
C7     C     0.24459   0.46086   0.02371   0.00000  Uiso   1.00
C8     C     0.25424   0.03936   0.30952   0.00000  Uiso   1.00
C9     C     0.41289   0.11825   0.14029   0.00000  Uiso   1.00
C10    C     0.08713   0.38169   0.19301   0.00000  Uiso   1.00
C11    C     0.13042   0.33617   0.14018   0.00000  Uiso   1.00
C12    C     0.44044   0.31011   0.16678   0.00000  Uiso   1.00
C13    C     0.36968   0.16369   0.19324   0.00000  Uiso   1.00
C14    C     0.08070   0.11171   0.16616   0.00000  Uiso   1.00
C15    C     0.41956   0.38817   0.16672   0.00000  Uiso   1.00
C16    C     0.36335   0.32944   0.16652   0.00000  Uiso   1.00
C17    C     0.13689   0.17051   0.16663   0.00000  Uiso   1.00
C18    C     0.16289   0.36825   0.14028   0.00000  Uiso   1.00
C19    C     0.33712   0.13169   0.19300   0.00000  Uiso   1.00
C20    C     0.38042   0.08617   0.14019   0.00000  Uiso   1.00
C21    C     0.11968   0.41368   0.19324   0.00000  Uiso   1.00
C22    C     0.33070   0.36171   0.16614   0.00000  Uiso   1.00
C23    C     0.44034   0.18988   0.16662   0.00000  Uiso   1.00
C24    C     0.16956   0.13818   0.16669   0.00000  Uiso   1.00
C25    C     0.11335   0.07943   0.16654   0.00000  Uiso   1.00
C26    C     0.38689   0.42051   0.16665   0.00000  Uiso   1.00
C27    C     0.09292   0.34306   0.16675   0.00000  Uiso   1.00
C28    C     0.40719   0.15681   0.16667   0.00000  Uiso   1.00
C29    C     0.40731   0.34309   0.16695   0.00000  Uiso   1.00
C30    C     0.09286   0.15688   0.16633   0.00000  Uiso   1.00
C31    C     0.34291   0.09306   0.16675   0.00000  Uiso   1.00
C32    C     0.15719   0.40681   0.16667   0.00000  Uiso   1.00
C33    C     0.15732   0.09309   0.16695   0.00000  Uiso   1.00
C34    C     0.05972   0.31005   0.16672   0.00000  Uiso   1.00
C35    C     0.34286   0.40688   0.16633   0.00000  Uiso   1.00
C36    C     0.04773   0.35609   0.04609   0.00000  Uiso   1.00
C37    C     0.01469   0.13977   0.27325   0.00000  Uiso   1.00
C38    C     0.03019   0.14388   0.05271   0.00000  Uiso   1.00
C39    C     0.46717   0.35762   0.28551   0.00000  Uiso   1.00
C40    C     0.29770   0.10609   0.04611   0.00000  Uiso   1.00
C41    C     0.26462   0.38977   0.27319   0.00000  Uiso   1.00
C42    C     0.28034   0.39394   0.05269   0.00000  Uiso   1.00
C43    C     0.21717   0.10762   0.28550   0.00000  Uiso   1.00
C44    C     0.30965   0.43991   0.16654   0.00000  Uiso   1.00
C45    C     0.19044   0.06011   0.16678   0.00000  Uiso   1.00
C46    C     0.19034   0.43988   0.16662   0.00000  Uiso   1.00
C47    C     0.30972   0.06005   0.16672   0.00000  Uiso   1.00
C48    C     0.00484   0.28933   0.02450   0.00000  Uiso   1.00
F49    F     0.45032   0.11109   0.11612   0.00000  Uiso   1.00
F50    F     0.29946   0.13904   0.21677   0.00000  Uiso   1.00
F51    F     0.38577   0.04821   0.11508   0.00000  Uiso   1.00
F52    F     0.11429   0.45168   0.21827   0.00000  Uiso   1.00
F53    F     0.28762   0.34917   0.16528   0.00000  Uiso   1.00
F54    F     0.21276   0.15042   0.16634   0.00000  Uiso   1.00
F55    F     0.10246   0.03520   0.16617   0.00000  Uiso   1.00
F56    F     0.39780   0.46474   0.16690   0.00000  Uiso   1.00
F57    F     0.04947   0.38904   0.21678   0.00000  Uiso   1.00
F58    F     0.13576   0.29822   0.11507   0.00000  Uiso   1.00
F59    F     0.36428   0.20169   0.21826   0.00000  Uiso   1.00
F60    F     0.03762   0.09916   0.16532   0.00000  Uiso   1.00
F61    F     0.46276   0.40042   0.16639   0.00000  Uiso   1.00
F62    F     0.35246   0.28520   0.16612   0.00000  Uiso   1.00
F63    F     0.14780   0.21474   0.16685   0.00000  Uiso   1.00
F64    F     0.20032   0.36110   0.11610   0.00000  Uiso   1.00
H65    H     0.47864   0.34835   0.05227   0.00000  Uiso   1.00
H66    H     0.03108   0.11521   0.02888   0.00000  Uiso   1.00
H67    H     0.03083   0.12955   0.08676   0.00000  Uiso   1.00
H68    H     0.06027   0.16467   0.04795   0.00000  Uiso   1.00
H69    H     0.03552   0.34775   0.29000   0.00000  Uiso   1.00
H70    H     0.46558   0.37868   0.31629   0.00000  Uiso   1.00
H71    H     0.43701   0.33654   0.28321   0.00000  Uiso   1.00
H72    H     0.46780   0.38038   0.25625   0.00000  Uiso   1.00
H73    H     0.22860   0.09837   0.05222   0.00000  Uiso   1.00
H74    H     0.29257   0.13512   0.02352   0.00000  Uiso   1.00
H75    H     0.32584   0.08514   0.03384   0.00000  Uiso   1.00
H76    H     0.04258   0.38513   0.02352   0.00000  Uiso   1.00
H77    H     0.30624   0.11978   0.07965   0.00000  Uiso   1.00
H78    H     0.20124   0.40741   0.29568   0.00000  Uiso   1.00
H79    H     0.25920   0.35757   0.29082   0.00000  Uiso   1.00
H80    H     0.29821   0.40265   0.28101   0.00000  Uiso   1.00
H81    H     0.26230   0.38239   0.23691   0.00000  Uiso   1.00
H82    H     0.21320   0.40074   0.03818   0.00000  Uiso   1.00
H83    H     0.28141   0.36545   0.02866   0.00000  Uiso   1.00
H84    H     0.28090   0.37939   0.08665   0.00000  Uiso   1.00
H85    H     0.31037   0.41487   0.04819   0.00000  Uiso   1.00
H86    H     0.28552   0.09775   0.29000   0.00000  Uiso   1.00
H87    H     0.07586   0.33515   0.03378   0.00000  Uiso   1.00
H88    H     0.21561   0.12874   0.31624   0.00000  Uiso   1.00
H89    H     0.18701   0.08654   0.28327   0.00000  Uiso   1.00
H90    H     0.21778   0.13033   0.25619   0.00000  Uiso   1.00
H91    H     0.05630   0.36976   0.07963   0.00000  Uiso   1.00
H92    H     0.45127   0.15739   0.29565   0.00000  Uiso   1.00
H93    H     0.00926   0.10758   0.29088   0.00000  Uiso   1.00
H94    H     0.04826   0.15266   0.28112   0.00000  Uiso   1.00
H95    H     0.01243   0.13238   0.23697   0.00000  Uiso   1.00
H96    H     0.46306   0.15081   0.03819   0.00000  Uiso   1.00
N97    N     0.00000   0.25000   0.28573   0.00000  Uiso   1.00
N98    N     0.23036   0.42177   0.28513   0.00000  Uiso   1.00
N99    N     0.24004   0.41989   0.04732   0.00000  Uiso   1.00
N100   N     0.25676   0.08007   0.28523   0.00000  Uiso   1.00
N101   N     0.00000   0.25000   0.04760   0.00000  Uiso   1.00
N102   N     0.25000   0.00000   0.28573   0.00000  Uiso   1.00
N103   N     0.25000   0.00000   0.04760   0.00000  Uiso   1.00
N104   N     0.00755   0.33009   0.04951   0.00000  Uiso   1.00
N105   N     0.48040   0.17176   0.28513   0.00000  Uiso   1.00
N106   N     0.48994   0.16990   0.04732   0.00000  Uiso   1.00
N107   N     0.00676   0.33007   0.28523   0.00000  Uiso   1.00
N108   N     0.25751   0.08010   0.04951   0.00000  Uiso   1.00
O109   O     0.04580   0.20419   0.20487   0.00000  Uiso   1.00
O110   O     0.20419   0.04581   0.12846   0.00000  Uiso   1.00
O111   O     0.20419   0.04581   0.20487   0.00000  Uiso   1.00
O112   O     0.29580   0.45419   0.12846   0.00000  Uiso   1.00
O113   O     0.20419   0.45419   0.12846   0.00000  Uiso   1.00
O114   O     0.29580   0.04581   0.20487   0.00000  Uiso   1.00
O115   O     0.29580   0.04581   0.12846   0.00000  Uiso   1.00
O116   O     0.20419   0.45419   0.20487   0.00000  Uiso   1.00
O117   O     0.45419   0.29581   0.12846   0.00000  Uiso   1.00
O118   O     0.45419   0.29581   0.20487   0.00000  Uiso   1.00
O119   O     0.04580   0.20419   0.12846   0.00000  Uiso   1.00
O120   O     0.45419   0.20419   0.12846   0.00000  Uiso   1.00
O121   O     0.04580   0.29581   0.20487   0.00000  Uiso   1.00
O122   O     0.04580   0.29581   0.12846   0.00000  Uiso   1.00
O123   O     0.45419   0.20419   0.20487   0.00000  Uiso   1.00
O124   O     0.29580   0.45419   0.20487   0.00000  Uiso   1.00
Zn125  Zn    0.00000   0.25000   0.21771   0.00000  Uiso   1.00
Zn126  Zn    0.00000   0.25000   0.11563   0.00000  Uiso   1.00
Zn127  Zn    0.25000   0.00000   0.21771   0.00000  Uiso   1.00
Zn128  Zn    0.25000   0.00000   0.11563   0.00000  Uiso   1.00
C129   C     0.55965   0.18991   0.16654   0.00000  Uiso   1.00
C130   C     0.99326   0.21104   0.30902   0.00000  Uiso   1.00
C131   C     0.99457   0.21086   0.02371   0.00000  Uiso   1.00
C132   C     0.50425   0.28936   0.30952   0.00000  Uiso   1.00
C133   C     0.75482   0.03934   0.02450   0.00000  Uiso   1.00
C134   C     0.74326   0.46104   0.30902   0.00000  Uiso   1.00
C135   C     0.74459   0.46086   0.02371   0.00000  Uiso   1.00
C136   C     0.75424   0.03936   0.30952   0.00000  Uiso   1.00
C137   C     0.91289   0.11825   0.14029   0.00000  Uiso   1.00
C138   C     0.58713   0.38169   0.19301   0.00000  Uiso   1.00
C139   C     0.63042   0.33617   0.14018   0.00000  Uiso   1.00
C140   C     0.94044   0.31011   0.16678   0.00000  Uiso   1.00
C141   C     0.86968   0.16369   0.19324   0.00000  Uiso   1.00
C142   C     0.58070   0.11171   0.16616   0.00000  Uiso   1.00
C143   C     0.91956   0.38817   0.16672   0.00000  Uiso   1.00
C144   C     0.86335   0.32944   0.16652   0.00000  Uiso   1.00
C145   C     0.63689   0.17051   0.16663   0.00000  Uiso   1.00
C146   C     0.66289   0.36825   0.14028   0.00000  Uiso   1.00
C147   C     0.83712   0.13169   0.19300   0.00000  Uiso   1.00
C148   C     0.88042   0.08617   0.14019   0.00000  Uiso   1.00
C149   C     0.61968   0.41368   0.19324   0.00000  Uiso   1.00
C150   C     0.83070   0.36171   0.16614   0.00000  Uiso   1.00
C151   C     0.94034   0.18988   0.16662   0.00000  Uiso   1.00
C152   C     0.66956   0.13818   0.16669   0.00000  Uiso   1.00
C153   C     0.61335   0.07943   0.16654   0.00000  Uiso   1.00
C154   C     0.88689   0.42051   0.16665   0.00000  Uiso   1.00
C155   C     0.59292   0.34306   0.16675   0.00000  Uiso   1.00
C156   C     0.90719   0.15681   0.16667   0.00000  Uiso   1.00
C157   C     0.90731   0.34309   0.16695   0.00000  Uiso   1.00
C158   C     0.59286   0.15688   0.16633   0.00000  Uiso   1.00
C159   C     0.84291   0.09306   0.16675   0.00000  Uiso   1.00
C160   C     0.65719   0.40681   0.16667   0.00000  Uiso   1.00
C161   C     0.65732   0.09309   0.16695   0.00000  Uiso   1.00
C162   C     0.55972   0.31005   0.16672   0.00000  Uiso   1.00
C163   C     0.84286   0.40688   0.16633   0.00000  Uiso   1.00
C164   C     0.54773   0.35609   0.04609   0.00000  Uiso   1.00
C165   C     0.51469   0.13977   0.27325   0.00000  Uiso   1.00
C166   C     0.53019   0.14388   0.05271   0.00000  Uiso   1.00
C167   C     0.96717   0.35762   0.28551   0.00000  Uiso   1.00
C168   C     0.79770   0.10609   0.04611   0.00000  Uiso   1.00
C169   C     0.76462   0.38977   0.27319   0.00000  Uiso   1.00
C170   C     0.78034   0.39394   0.05269   0.00000  Uiso   1.00
C171   C     0.71717   0.10762   0.28550   0.00000  Uiso   1.00
C172   C     0.80965   0.43991   0.16654   0.00000  Uiso   1.00
C173   C     0.69044   0.06011   0.16678   0.00000  Uiso   1.00
C174   C     0.69034   0.43988   0.16662   0.00000  Uiso   1.00
C175   C     0.80972   0.06005   0.16672   0.00000  Uiso   1.00
C176   C     0.50484   0.28933   0.02450   0.00000  Uiso   1.00
F177   F     0.95032   0.11109   0.11612   0.00000  Uiso   1.00
F178   F     0.79946   0.13904   0.21677   0.00000  Uiso   1.00
F179   F     0.88577   0.04821   0.11508   0.00000  Uiso   1.00
F180   F     0.61429   0.45168   0.21827   0.00000  Uiso   1.00
F181   F     0.78762   0.34917   0.16528   0.00000  Uiso   1.00
F182   F     0.71276   0.15042   0.16634   0.00000  Uiso   1.00
F183   F     0.60246   0.03520   0.16617   0.00000  Uiso   1.00
F184   F     0.89780   0.46474   0.16690   0.00000  Uiso   1.00
F185   F     0.54947   0.38904   0.21678   0.00000  Uiso   1.00
F186   F     0.63576   0.29822   0.11507   0.00000  Uiso   1.00
F187   F     0.86428   0.20169   0.21826   0.00000  Uiso   1.00
F188   F     0.53762   0.09916   0.16532   0.00000  Uiso   1.00
F189   F     0.96276   0.40042   0.16639   0.00000  Uiso   1.00
F190   F     0.85246   0.28520   0.16612   0.00000  Uiso   1.00
F191   F     0.64780   0.21474   0.16685   0.00000  Uiso   1.00
F192   F     0.70032   0.36110   0.11610   0.00000  Uiso   1.00
H193   H     0.97864   0.34835   0.05227   0.00000  Uiso   1.00
H194   H     0.53108   0.11521   0.02888   0.00000  Uiso   1.00
H195   H     0.53083   0.12955   0.08676   0.00000  Uiso   1.00
H196   H     0.56027   0.16467   0.04795   0.00000  Uiso   1.00
H197   H     0.53552   0.34775   0.29000   0.00000  Uiso   1.00
H198   H     0.96558   0.37868   0.31629   0.00000  Uiso   1.00
H199   H     0.93701   0.33654   0.28321   0.00000  Uiso   1.00
H200   H     0.96780   0.38038   0.25625   0.00000  Uiso   1.00
H201   H     0.72860   0.09837   0.05222   0.00000  Uiso   1.00
H202   H     0.79257   0.13512   0.02352   0.00000  Uiso   1.00
H203   H     0.82584   0.08514   0.03384   0.00000  Uiso   1.00
H204   H     0.54258   0.38513   0.02352   0.00000  Uiso   1.00
H205   H     0.80624   0.11978   0.07965   0.00000  Uiso   1.00
H206   H     0.70124   0.40741   0.29568   0.00000  Uiso   1.00
H207   H     0.75920   0.35757   0.29082   0.00000  Uiso   1.00
H208   H     0.79821   0.40265   0.28101   0.00000  Uiso   1.00
H209   H     0.76230   0.38239   0.23691   0.00000  Uiso   1.00
H210   H     0.71320   0.40074   0.03818   0.00000  Uiso   1.00
H211   H     0.78141   0.36545   0.02866   0.00000  Uiso   1.00
H212   H     0.78090   0.37939   0.08665   0.00000  Uiso   1.00
H213   H     0.81037   0.41487   0.04819   0.00000  Uiso   1.00
H214   H     0.78552   0.09775   0.29000   0.00000  Uiso   1.00
H215   H     0.57586   0.33515   0.03378   0.00000  Uiso   1.00
H216   H     0.71561   0.12874   0.31624   0.00000  Uiso   1.00
H217   H     0.68701   0.08654   0.28327   0.00000  Uiso   1.00
H218   H     0.71778   0.13033   0.25619   0.00000  Uiso   1.00
H219   H     0.55630   0.36976   0.07963   0.00000  Uiso   1.00
H220   H     0.95127   0.15739   0.29565   0.00000  Uiso   1.00
H221   H     0.50926   0.10758   0.29088   0.00000  Uiso   1.00
H222   H     0.54826   0.15266   0.28112   0.00000  Uiso   1.00
H223   H     0.51243   0.13238   0.23697   0.00000  Uiso   1.00
H224   H     0.96306   0.15081   0.03819   0.00000  Uiso   1.00
N225   N     0.50000   0.25000   0.28573   0.00000  Uiso   1.00
N226   N     0.73036   0.42177   0.28513   0.00000  Uiso   1.00
N227   N     0.74004   0.41989   0.04732   0.00000  Uiso   1.00
N228   N     0.75676   0.08007   0.28523   0.00000  Uiso   1.00
N229   N     0.50000   0.25000   0.04760   0.00000  Uiso   1.00
N230   N     0.75000   0.00000   0.28573   0.00000  Uiso   1.00
N231   N     0.75000   0.00000   0.04760   0.00000  Uiso   1.00
N232   N     0.50755   0.33009   0.04951   0.00000  Uiso   1.00
N233   N     0.98040   0.17176   0.28513   0.00000  Uiso   1.00
N234   N     0.98994   0.16990   0.04732   0.00000  Uiso   1.00
N235   N     0.50676   0.33007   0.28523   0.00000  Uiso   1.00
N236   N     0.75751   0.08010   0.04951   0.00000  Uiso   1.00
O237   O     0.54580   0.20419   0.20487   0.00000  Uiso   1.00
O238   O     0.70419   0.04581   0.12846   0.00000  Uiso   1.00
O239   O     0.70419   0.04581   0.20487   0.00000  Uiso   1.00
O240   O     0.79580   0.45419   0.12846   0.00000  Uiso   1.00
O241   O     0.70419   0.45419   0.12846   0.00000  Uiso   1.00
O242   O     0.79580   0.04581   0.20487   0.00000  Uiso   1.00
O243   O     0.79580   0.04581   0.12846   0.00000  Uiso   1.00
O244   O     0.70419   0.45419   0.20487   0.00000  Uiso   1.00
O245   O     0.95419   0.29581   0.12846   0.00000  Uiso   1.00
O246   O     0.95419   0.29581   0.20487   0.00000  Uiso   1.00
O247   O     0.54580   0.20419   0.12846   0.00000  Uiso   1.00
O248   O     0.95419   0.20419   0.12846   0.00000  Uiso   1.00
O249   O     0.54580   0.29581   0.20487   0.00000  Uiso   1.00
O250   O     0.54580   0.29581   0.12846   0.00000  Uiso   1.00
O251   O     0.95419   0.20419   0.20487   0.00000  Uiso   1.00
O252   O     0.79580   0.45419   0.20487   0.00000  Uiso   1.00
Zn253  Zn    0.50000   0.25000   0.21771   0.00000  Uiso   1.00
Zn254  Zn    0.50000   0.25000   0.11563   0.00000  Uiso   1.00
Zn255  Zn    0.75000   0.00000   0.21771   0.00000  Uiso   1.00
Zn256  Zn    0.75000   0.00000   0.11563   0.00000  Uiso   1.00
C257   C     0.05965   0.68991   0.16654   0.00000  Uiso   1.00
C258   C     0.49326   0.71104   0.30902   0.00000  Uiso   1.00
C259   C     0.49457   0.71086   0.02371   0.00000  Uiso   1.00
C260   C     0.00425   0.78936   0.30952   0.00000  Uiso   1.00
C261   C     0.25482   0.53934   0.02450   0.00000  Uiso   1.00
C262   C     0.24326   0.96104   0.30902   0.00000  Uiso   1.00
C263   C     0.24459   0.96086   0.02371   0.00000  Uiso   1.00
C264   C     0.25424   0.53936   0.30952   0.00000  Uiso   1.00
C265   C     0.41289   0.61825   0.14029   0.00000  Uiso   1.00
C266   C     0.08713   0.88169   0.19301   0.00000  Uiso   1.00
C267   C     0.13042   0.83617   0.14018   0.00000  Uiso   1.00
C268   C     0.44044   0.81011   0.16678   0.00000  Uiso   1.00
C269   C     0.36968   0.66369   0.19324   0.00000  Uiso   1.00
C270   C     0.08070   0.61171   0.16616   0.00000  Uiso   1.00
C271   C     0.41956   0.88817   0.16672   0.00000  Uiso   1.00
C272   C     0.36335   0.82944   0.16652   0.00000  Uiso   1.00
C273   C     0.13689   0.67051   0.16663   0.00000  Uiso   1.00
C274   C     0.16289   0.86825   0.14028   0.00000  Uiso   1.00
C275   C     0.33712   0.63169   0.19300   0.00000  Uiso   1.00
C276   C     0.38042   0.58617   0.14019   0.00000  Uiso   1.00
C277   C     0.11968   0.91368   0.19324   0.00000  Uiso   1.00
C278   C     0.33070   0.86171   0.16614   0.00000  Uiso   1.00
C279   C     0.44034   0.68988   0.16662   0.00000  Uiso   1.00
C280   C     0.16956   0.63818   0.16669   0.00000  Uiso   1.00
C281   C     0.11335   0.57943   0.16654   0.00000  Uiso   1.00
C282   C     0.38689   0.92051   0.16665   0.00000  Uiso   1.00
C283   C     0.09292   0.84306   0.16675   0.00000  Uiso   1.00
C284   C     0.40719   0.65681   0.16667   0.00000  Uiso   1.00
C285   C     0.40731   0.84309   0.16695   0.00000  Uiso   1.00
C286   C     0.09286   0.65688   0.16633   0.00000  Uiso   1.00
C287   C     0.34291   0.59306   0.16675   0.00000  Uiso   1.00
C288   C     0.15719   0.90681   0.16667   0.00000  Uiso   1.00
C289   C     0.15732   0.59309   0.16695   0.00000  Uiso   1.00
C290   C     0.05972   0.81005   0.16672   0.00000  Uiso   1.00
C291   C     0.34286   0.90688   0.16633   0.00000  Uiso   1.00
C292   C     0.04773   0.85609   0.04609   0.00000  Uiso   1.00
C293   C     0.01469   0.63977   0.27325   0.00000  Uiso   1.00
C294   C     0.03019   0.64388   0.05271   0.00000  Uiso   1.00
C295   C     0.46717   0.85762   0.28551   0.00000  Uiso   1.00
C296   C     0.29770   0.60609   0.04611   0.00000  Uiso   1.00
C297   C     0.26462   0.88977   0.27319   0.00000  Uiso   1.00
C298   C     0.28034   0.89394   0.05269   0.00000  Uiso   1.00
C299   C     0.21717   0.60762   0.28550   0.00000  Uiso   1.00
C300   C     0.30965   0.93991   0.16654   0.00000  Uiso   1.00
C301   C     0.19044   0.56011   0.16678   0.00000  Uiso   1.00
C302   C     0.19034   0.93988   0.16662   0.00000  Uiso   1.00
C303   C     0.30972   0.56005   0.16672   0.00000  Uiso   1.00
C304   C     0.00484   0.78933   0.02450   0.00000  Uiso   1.00
F305   F     0.45032   0.61109   0.11612   0.00000  Uiso   1.00
F306   F     0.29946   0.63904   0.21677   0.00000  Uiso   1.00
F307   F     0.38577   0.54821   0.11508   0.00000  Uiso   1.00
F308   F     0.11429   0.95168   0.21827   0.00000  Uiso   1.00
F309   F     0.28762   0.84917   0.16528   0.00000  Uiso   1.00
F310   F     0.21276   0.65042   0.16634   0.00000  Uiso   1.00
F311   F     0.10246   0.53520   0.16617   0.00000  Uiso   1.00
F312   F     0.39780   0.96474   0.16690   0.00000  Uiso   1.00
F313   F     0.04947   0.88904   0.21678   0.00000  Uiso   1.00
F314   F     0.13576   0.79822   0.11507   0.00000  Uiso   1.00
F315   F     0.36428   0.70169   0.21826   0.00000  Uiso   1.00
F316   F     0.03762   0.59916   0.16532   0.00000  Uiso   1.00
F317   F     0.46276   0.90042   0.16639   0.00000  Uiso   1.00
F318   F     0.35246   0.78520   0.16612   0.00000  Uiso   1.00
F319   F     0.14780   0.71474   0.16685   0.00000  Uiso   1.00
F320   F     0.20032   0.86110   0.11610   0.00000  Uiso   1.00
H321   H     0.47864   0.84835   0.05227   0.00000  Uiso   1.00
H322   H     0.03108   0.61521   0.02888   0.00000  Uiso   1.00
H323   H     0.03083   0.62955   0.08676   0.00000  Uiso   1.00
H324   H     0.06027   0.66467   0.04795   0.00000  Uiso   1.00
H325   H     0.03552   0.84775   0.29000   0.00000  Uiso   1.00
H326   H     0.46558   0.87868   0.31629   0.00000  Uiso   1.00
H327   H     0.43701   0.83654   0.28321   0.00000  Uiso   1.00
H328   H     0.46780   0.88038   0.25625   0.00000  Uiso   1.00
H329   H     0.22860   0.59837   0.05222   0.00000  Uiso   1.00
H330   H     0.29257   0.63512   0.02352   0.00000  Uiso   1.00
H331   H     0.32584   0.58514   0.03384   0.00000  Uiso   1.00
H332   H     0.04258   0.88513   0.02352   0.00000  Uiso   1.00
H333   H     0.30624   0.61978   0.07965   0.00000  Uiso   1.00
H334   H     0.20124   0.90741   0.29568   0.00000  Uiso   1.00
H335   H     0.25920   0.85757   0.29082   0.00000  Uiso   1.00
H336   H     0.29821   0.90265   0.28101   0.00000  Uiso   1.00
H337   H     0.26230   0.88239   0.23691   0.00000  Uiso   1.00
H338   H     0.21320   0.90074   0.03818   0.00000  Uiso   1.00
H339   H     0.28141   0.86545   0.02866   0.00000  Uiso   1.00
H340   H     0.28090   0.87939   0.08665   0.00000  Uiso   1.00
H341   H     0.31037   0.91487   0.04819   0.00000  Uiso   1.00
H342   H     0.28552   0.59775   0.29000   0.00000  Uiso   1.00
H343   H     0.07586   0.83515   0.03378   0.00000  Uiso   1.00
H344   H     0.21561   0.62874   0.31624   0.00000  Uiso   1.00
H345   H     0.18701   0.58654   0.28327   0.00000  Uiso   1.00
H346   H     0.21778   0.63033   0.25619   0.00000  Uiso   1.00
H347   H     0.05630   0.86976   0.07963   0.00000  Uiso   1.00
H348   H     0.45127   0.65739   0.29565   0.00000  Uiso   1.00
H349   H     0.00926   0.60758   0.29088   0.00000  Uiso   1.00
H350   H     0.04826   0.65266   0.28112   0.00000  Uiso   1.00
H351   H     0.01243   0.63238   0.23697   0.00000  Uiso   1.00
H352   H     0.46306   0.65081   0.03819   0.00000  Uiso   1.00
N353   N     0.00000   0.75000   0.28573   0.00000  Uiso   1.00
N354   N     0.23036   0.92177   0.28513   0.00000  Uiso   1.00
N355   N     0.24004   0.91989   0.04732   0.00000  Uiso   1.00
N356   N     0.25676   0.58007   0.28523   0.00000  Uiso   1.00
N357   N     0.00000   0.75000   0.04760   0.00000  Uiso   1.00
N358   N     0.25000   0.50000   0.28573   0.00000  Uiso   1.00
N359   N     0.25000   0.50000   0.04760   0.00000  Uiso   1.00
N360   N     0.00755   0.83009   0.04951   0.00000  Uiso   1.00
N361   N     0.48040   0.67176   0.28513   0.00000  Uiso   1.00
N362   N     0.48994   0.66990   0.04732   0.00000  Uiso   1.00
N363   N     0.00676   0.83007   0.28523   0.00000  Uiso   1.00
N364   N     0.25751   0.58010   0.04951   0.00000  Uiso   1.00
O365   O     0.04580   0.70419   0.20487   0.00000  Uiso   1.00
O366   O     0.20419   0.54581   0.12846   0.00000  Uiso   1.00
O367   O     0.20419   0.54581   0.20487   0.00000  Uiso   1.00
O368   O     0.29580   0.95419   0.12846   0.00000  Uiso   1.00
O369   O     0.20419   0.95419   0.12846   0.00000  Uiso   1.00
O370   O     0.29580   0.54581   0.20487   0.00000  Uiso   1.00
O371   O     0.29580   0.54581   0.12846   0.00000  Uiso   1.00
O372   O     0.20419   0.95419   0.20487   0.00000  Uiso   1.00
O373   O     0.45419   0.79581   0.12846   0.00000  Uiso   1.00
O374   O     0.45419   0.79581   0.20487   0.00000  Uiso   1.00
O375   O     0.04580   0.70419   0.12846   0.00000  Uiso   1.00
O376   O     0.45419   0.70419   0.12846   0.00000  Uiso   1.00
O377   O     0.04580   0.79581   0.20487   0.00000  Uiso   1.00
O378   O     0.04580   0.79581   0.12846   0.00000  Uiso   1.00
O379   O     0.45419   0.70419   0.20487   0.00000  Uiso   1.00
O380   O     0.29580   0.95419   0.20487   0.00000  Uiso   1.00
Zn381  Zn    0.00000   0.75000   0.21771   0.00000  Uiso   1.00
Zn382  Zn    0.00000   0.75000   0.11563   0.00000  Uiso   1.00
Zn383  Zn    0.25000   0.50000   0.21771   0.00000  Uiso   1.00
Zn384  Zn    0.25000   0.50000   0.11563   0.00000  Uiso   1.00
C385   C     0.55965   0.68991   0.16654   0.00000  Uiso   1.00
C386   C     0.99326   0.71104   0.30902   0.00000  Uiso   1.00
C387   C     0.99457   0.71086   0.02371   0.00000  Uiso   1.00
C388   C     0.50425   0.78936   0.30952   0.00000  Uiso   1.00
C389   C     0.75482   0.53934   0.02450   0.00000  Uiso   1.00
C390   C     0.74326   0.96104   0.30902   0.00000  Uiso   1.00
C391   C     0.74459   0.96086   0.02371   0.00000  Uiso   1.00
C392   C     0.75424   0.53936   0.30952   0.00000  Uiso   1.00
C393   C     0.91289   0.61825   0.14029   0.00000  Uiso   1.00
C394   C     0.58713   0.88169   0.19301   0.00000  Uiso   1.00
C395   C     0.63042   0.83617   0.14018   0.00000  Uiso   1.00
C396   C     0.94044   0.81011   0.16678   0.00000  Uiso   1.00
C397   C     0.86968   0.66369   0.19324   0.00000  Uiso   1.00
C398   C     0.58070   0.61171   0.16616   0.00000  Uiso   1.00
C399   C     0.91956   0.88817   0.16672   0.00000  Uiso   1.00
C400   C     0.86335   0.82944   0.16652   0.00000  Uiso   1.00
C401   C     0.63689   0.67051   0.16663   0.00000  Uiso   1.00
C402   C     0.66289   0.86825   0.14028   0.00000  Uiso   1.00
C403   C     0.83712   0.63169   0.19300   0.00000  Uiso   1.00
C404   C     0.88042   0.58617   0.14019   0.00000  Uiso   1.00
C405   C     0.61968   0.91368   0.19324   0.00000  Uiso   1.00
C406   C     0.83070   0.86171   0.16614   0.00000  Uiso   1.00
C407   C     0.94034   0.68988   0.16662   0.00000  Uiso   1.00
C408   C     0.66956   0.63818   0.16669   0.00000  Uiso   1.00
C409   C     0.61335   0.57943   0.16654   0.00000  Uiso   1.00
C410   C     0.88689   0.92051   0.16665   0.00000  Uiso   1.00
C411   C     0.59292   0.84306   0.16675   0.00000  Uiso   1.00
C412   C     0.90719   0.65681   0.16667   0.00000  Uiso   1.00
C413   C     0.90731   0.84309   0.16695   0.00000  Uiso   1.00
C414   C     0.59286   0.65688   0.16633   0.00000  Uiso   1.00
C415   C     0.84291   0.59306   0.16675   0.00000  Uiso   1.00
C416   C     0.65719   0.90681   0.16667   0.00000  Uiso   1.00
C417   C     0.65732   0.59309   0.16695   0.00000  Uiso   1.00
C418   C     0.55972   0.81005   0.16672   0.00000  Uiso   1.00
C419   C     0.84286   0.90688   0.16633   0.00000  Uiso   1.00
C420   C     0.54773   0.85609   0.04609   0.00000  Uiso   1.00
C421   C     0.51469   0.63977   0.27325   0.00000  Uiso   1.00
C422   C     0.53019   0.64388   0.05271   0.00000  Uiso   1.00
C423   C     0.96717   0.85762   0.28551   0.00000  Uiso   1.00
C424   C     0.79770   0.60609   0.04611   0.00000  Uiso   1.00
C425   C     0.76462   0.88977   0.27319   0.00000  Uiso   1.00
C426   C     0.78034   0.89394   0.05269   0.00000  Uiso   1.00
C427   C     0.71717   0.60762   0.28550   0.00000  Uiso   1.00
C428   C     0.80965   0.93991   0.16654   0.00000  Uiso   1.00
C429   C     0.69044   0.56011   0.16678   0.00000  Uiso   1.00
C430   C     0.69034   0.93988   0.16662   0.00000  Uiso   1.00
C431   C     0.80972   0.56005   0.16672   0.00000  Uiso   1.00
C432   C     0.50484   0.78933   0.02450   0.00000  Uiso   1.00
F433   F     0.95032   0.61109   0.11612   0.00000  Uiso   1.00
F434   F     0.79946   0.63904   0.21677   0.00000  Uiso   1.00
F435   F     0.88577   0.54821   0.11508   0.00000  Uiso   1.00
F436   F     0.61429   0.95168   0.21827   0.00000  Uiso   1.00
F437   F     0.78762   0.84917   0.16528   0.00000  Uiso   1.00
F438   F     0.71276   0.65042   0.16634   0.00000  Uiso   1.00
F439   F     0.60246   0.53520   0.16617   0.00000  Uiso   1.00
F440   F     0.89780   0.96474   0.16690   0.00000  Uiso   1.00
F441   F     0.54947   0.88904   0.21678   0.00000  Uiso   1.00
F442   F     0.63576   0.79822   0.11507   0.00000  Uiso   1.00
F443   F     0.86428   0.70169   0.21826   0.00000  Uiso   1.00
F444   F     0.53762   0.59916   0.16532   0.00000  Uiso   1.00
F445   F     0.96276   0.90042   0.16639   0.00000  Uiso   1.00
F446   F     0.85246   0.78520   0.16612   0.00000  Uiso   1.00
F447   F     0.64780   0.71474   0.16685   0.00000  Uiso   1.00
F448   F     0.70032   0.86110   0.11610   0.00000  Uiso   1.00
H449   H     0.97864   0.84835   0.05227   0.00000  Uiso   1.00
H450   H     0.53108   0.61521   0.02888   0.00000  Uiso   1.00
H451   H     0.53083   0.62955   0.08676   0.00000  Uiso   1.00
H452   H     0.56027   0.66467   0.04795   0.00000  Uiso   1.00
H453   H     0.53552   0.84775   0.29000   0.00000  Uiso   1.00
H454   H     0.96558   0.87868   0.31629   0.00000  Uiso   1.00
H455   H     0.93701   0.83654   0.28321   0.00000  Uiso   1.00
H456   H     0.96780   0.88038   0.25625   0.00000  Uiso   1.00
H457   H     0.72860   0.59837   0.05222   0.00000  Uiso   1.00
H458   H     0.79257   0.63512   0.02352   0.00000  Uiso   1.00
H459   H     0.82584   0.58514   0.03384   0.00000  Uiso   1.00
H460   H     0.54258   0.88513   0.02352   0.00000  Uiso   1.00
H461   H     0.80624   0.61978   0.07965   0.00000  Uiso   1.00
H462   H     0.70124   0.90741   0.29568   0.00000  Uiso   1.00
H463   H     0.75920   0.85757   0.29082   0.00000  Uiso   1.00
H464   H     0.79821   0.90265   0.28101   0.00000  Uiso   1.00
H465   H     0.76230   0.88239   0.23691   0.00000  Uiso   1.00
H466   H     0.71320   0.90074   0.03818   0.00000  Uiso   1.00
H467   H     0.78141   0.86545   0.02866   0.00000  Uiso   1.00
H468   H     0.78090   0.87939   0.08665   0.00000  Uiso   1.00
H469   H     0.81037   0.91487   0.04819   0.00000  Uiso   1.00
H470   H     0.78552   0.59775   0.29000   0.00000  Uiso   1.00
H471   H     0.57586   0.83515   0.03378   0.00000  Uiso   1.00
H472   H     0.71561   0.62874   0.31624   0.00000  Uiso   1.00
H473   H     0.68701   0.58654   0.28327   0.00000  Uiso   1.00
H474   H     0.71778   0.63033   0.25619   0.00000  Uiso   1.00
H475   H     0.55630   0.86976   0.07963   0.00000  Uiso   1.00
H476   H     0.95127   0.65739   0.29565   0.00000  Uiso   1.00
H477   H     0.50926   0.60758   0.29088   0.00000  Uiso   1.00
H478   H     0.54826   0.65266   0.28112   0.00000  Uiso   1.00
H479   H     0.51243   0.63238   0.23697   0.00000  Uiso   1.00
H480   H     0.96306   0.65081   0.03819   0.00000  Uiso   1.00
N481   N     0.50000   0.75000   0.28573   0.00000  Uiso   1.00
N482   N     0.73036   0.92177   0.28513   0.00000  Uiso   1.00
N483   N     0.74004   0.91989   0.04732   0.00000  Uiso   1.00
N484   N     0.75676   0.58007   0.28523   0.00000  Uiso   1.00
N485   N     0.50000   0.75000   0.04760   0.00000  Uiso   1.00
N486   N     0.75000   0.50000   0.28573   0.00000  Uiso   1.00
N487   N     0.75000   0.50000   0.04760   0.00000  Uiso   1.00
N488   N     0.50755   0.83009   0.04951   0.00000  Uiso   1.00
N489   N     0.98040   0.67176   0.28513   0.00000  Uiso   1.00
N490   N     0.98994   0.66990   0.04732   0.00000  Uiso   1.00
N491   N     0.50676   0.83007   0.28523   0.00000  Uiso   1.00
N492   N     0.75751   0.58010   0.04951   0.00000  Uiso   1.00
O493   O     0.54580   0.70419   0.20487   0.00000  Uiso   1.00
O494   O     0.70419   0.54581   0.12846   0.00000  Uiso   1.00
O495   O     0.70419   0.54581   0.20487   0.00000  Uiso   1.00
O496   O     0.79580   0.95419   0.12846   0.00000  Uiso   1.00
O497   O     0.70419   0.95419   0.12846   0.00000  Uiso   1.00
O498   O     0.79580   0.54581   0.20487   0.00000  Uiso   1.00
O499   O     0.79580   0.54581   0.12846   0.00000  Uiso   1.00
O500   O     0.70419   0.95419   0.20487   0.00000  Uiso   1.00
O501   O     0.95419   0.79581   0.12846   0.00000  Uiso   1.00
O502   O     0.95419   0.79581   0.20487   0.00000  Uiso   1.00
O503   O     0.54580   0.70419   0.12846   0.00000  Uiso   1.00
O504   O     0.95419   0.70419   0.12846   0.00000  Uiso   1.00
O505   O     0.54580   0.79581   0.20487   0.00000  Uiso   1.00
O506   O     0.54580   0.79581   0.12846   0.00000  Uiso   1.00
O507   O     0.95419   0.70419   0.20487   0.00000  Uiso   1.00
O508   O     0.79580   0.95419   0.20487   0.00000  Uiso   1.00
Zn509  Zn    0.50000   0.75000   0.21771   0.00000  Uiso   1.00
Zn510  Zn    0.50000   0.75000   0.11563   0.00000  Uiso   1.00
Zn511  Zn    0.75000   0.50000   0.21771   0.00000  Uiso   1.00
Zn512  Zn    0.75000   0.50000   0.11563   0.00000  Uiso   1.00
C513   C     0.05965   0.18991   0.49988   0.00000  Uiso   1.00
C514   C     0.49326   0.21104   0.64235   0.00000  Uiso   1.00
C515   C     0.49457   0.21086   0.35705   0.00000  Uiso   1.00
C516   C     0.00425   0.28936   0.64285   0.00000  Uiso   1.00
C517   C     0.25482   0.03934   0.35783   0.00000  Uiso   1.00
C518   C     0.24326   0.46104   0.64235   0.00000  Uiso   1.00
C519   C     0.24459   0.46086   0.35705   0.00000  Uiso   1.00
C520   C     0.25424   0.03936   0.64285   0.00000  Uiso   1.00
C521   C     0.41289   0.11825   0.47362   0.00000  Uiso   1.00
C522   C     0.08713   0.38169   0.52634   0.00000  Uiso   1.00
C523   C     0.13042   0.33617   0.47352   0.00000  Uiso   1.00
C524   C     0.44044   0.31011   0.50012   0.00000  Uiso   1.00
C525   C     0.36968   0.16369   0.52657   0.00000  Uiso   1.00
C526   C     0.08070   0.11171   0.49950   0.00000  Uiso   1.00
C527   C     0.41956   0.38817   0.50005   0.00000  Uiso   1.00
C528   C     0.36335   0.32944   0.49985   0.00000  Uiso   1.00
C529   C     0.13689   0.17051   0.49996   0.00000  Uiso   1.00
C530   C     0.16289   0.36825   0.47361   0.00000  Uiso   1.00
C531   C     0.33712   0.13169   0.52634   0.00000  Uiso   1.00
C532   C     0.38042   0.08617   0.47352   0.00000  Uiso   1.00
C533   C     0.11968   0.41368   0.52658   0.00000  Uiso   1.00
C534   C     0.33070   0.36171   0.49948   0.00000  Uiso   1.00
C535   C     0.44034   0.18988   0.49996   0.00000  Uiso   1.00
C536   C     0.16956   0.13818   0.50003   0.00000  Uiso   1.00
C537   C     0.11335   0.07943   0.49987   0.00000  Uiso   1.00
C538   C     0.38689   0.42051   0.49998   0.00000  Uiso   1.00
C539   C     0.09292   0.34306   0.50009   0.00000  Uiso   1.00
C540   C     0.40719   0.15681   0.50000   0.00000  Uiso   1.00
C541   C     0.40731   0.34309   0.50029   0.00000  Uiso   1.00
C542   C     0.09286   0.15688   0.49966   0.00000  Uiso   1.00
C543   C     0.34291   0.09306   0.50009   0.00000  Uiso   1.00
C544   C     0.15719   0.40681   0.50000   0.00000  Uiso   1.00
C545   C     0.15732   0.09309   0.50029   0.00000  Uiso   1.00
C546   C     0.05972   0.31005   0.50006   0.00000  Uiso   1.00
C547   C     0.34286   0.40688   0.49966   0.00000  Uiso   1.00
C548   C     0.04773   0.35609   0.37942   0.00000  Uiso   1.00
C549   C     0.01469   0.13977   0.60658   0.00000  Uiso   1.00
C550   C     0.03019   0.14388   0.38604   0.00000  Uiso   1.00
C551   C     0.46717   0.35762   0.61884   0.00000  Uiso   1.00
C552   C     0.29770   0.10609   0.37944   0.00000  Uiso   1.00
C553   C     0.26462   0.38977   0.60653   0.00000  Uiso   1.00
C554   C     0.28034   0.39394   0.38602   0.00000  Uiso   1.00
C555   C     0.21717   0.10762   0.61883   0.00000  Uiso   1.00
C556   C     0.30965   0.43991   0.49988   0.00000  Uiso   1.00
C557   C     0.19044   0.06011   0.50012   0.00000  Uiso   1.00
C558   C     0.19034   0.43988   0.49996   0.00000  Uiso   1.00
C559   C     0.30972   0.06005   0.50006   0.00000  Uiso   1.00
C560   C     0.00484   0.28933   0.35783   0.00000  Uiso   1.00
F561   F     0.45032   0.11109   0.44945   0.00000  Uiso   1.00
F562   F     0.29946   0.13904   0.55010   0.00000  Uiso   1.00
F563   F     0.38577   0.04821   0.44842   0.00000  Uiso   1.00
F564   F     0.11429   0.45168   0.55161   0.00000  Uiso   1.00
F565   F     0.28762   0.34917   0.49862   0.00000  Uiso   1.00
F566   F     0.21276   0.15042   0.49967   0.00000  Uiso   1.00
F567   F     0.10246   0.03520   0.49950   0.00000  Uiso   1.00
F568   F     0.39780   0.46474   0.50023   0.00000  Uiso   1.00
F569   F     0.04947   0.38904   0.55011   0.00000  Uiso   1.00
F570   F     0.13576   0.29822   0.44840   0.00000  Uiso   1.00
F571   F     0.36428   0.20169   0.55159   0.00000  Uiso   1.00
F572   F     0.03762   0.09916   0.49865   0.00000  Uiso   1.00
F573   F     0.46276   0.40042   0.49972   0.00000  Uiso   1.00
F574   F     0.35246   0.28520   0.49946   0.00000  Uiso   1.00
F575   F     0.14780   0.21474   0.50019   0.00000  Uiso   1.00
F576   F     0.20032   0.36110   0.44944   0.00000  Uiso   1.00
H577   H     0.47864   0.34835   0.38561   0.00000  Uiso   1.00
H578   H     0.03108   0.11521   0.36221   0.00000  Uiso   1.00
H579   H     0.03083   0.12955   0.42009   0.00000  Uiso   1.00
H580   H     0.06027   0.16467   0.38128   0.00000  Uiso   1.00
H581   H     0.03552   0.34775   0.62333   0.00000  Uiso   1.00
H582   H     0.46558   0.37868   0.64962   0.00000  Uiso   1.00
H583   H     0.43701   0.33654   0.61655   0.00000  Uiso   1.00
H584   H     0.46780   0.38038   0.58958   0.00000  Uiso   1.00
H585   H     0.22860   0.09837   0.38555   0.00000  Uiso   1.00
H586   H     0.29257   0.13512   0.35686   0.00000  Uiso   1.00
H587   H     0.32584   0.08514   0.36718   0.00000  Uiso   1.00
H588   H     0.04258   0.38513   0.35685   0.00000  Uiso   1.00
H589   H     0.30624   0.11978   0.41299   0.00000  Uiso   1.00
H590   H     0.20124   0.40741   0.62901   0.00000  Uiso   1.00
H591   H     0.25920   0.35757   0.62415   0.00000  Uiso   1.00
H592   H     0.29821   0.40265   0.61435   0.00000  Uiso   1.00
H593   H     0.26230   0.38239   0.57024   0.00000  Uiso   1.00
H594   H     0.21320   0.40074   0.37151   0.00000  Uiso   1.00
H595   H     0.28141   0.36545   0.36200   0.00000  Uiso   1.00
H596   H     0.28090   0.37939   0.41998   0.00000  Uiso   1.00
H597   H     0.31037   0.41487   0.38152   0.00000  Uiso   1.00
H598   H     0.28552   0.09775   0.62333   0.00000  Uiso   1.00
H599   H     0.07586   0.33515   0.36712   0.00000  Uiso   1.00
H600   H     0.21561   0.12874   0.64957   0.00000  Uiso   1.00
H601   H     0.18701   0.08654   0.61660   0.00000  Uiso   1.00
H602   H     0.21778   0.13033   0.58952   0.00000  Uiso   1.00
H603   H     0.05630   0.36976   0.41296   0.00000  Uiso   1.00
H604   H     0.45127   0.15739   0.62898   0.00000  Uiso   1.00
H605   H     0.00926   0.10758   0.62421   0.00000  Uiso   1.00
H606   H     0.04826   0.15266   0.61445   0.00000  Uiso   1.00
H607   H     0.01243   0.13238   0.57030   0.00000  Uiso   1.00
H608   H     0.46306   0.15081   0.37153   0.00000  Uiso   1.00
N609   N     0.00000   0.25000   0.61907   0.00000  Uiso   1.00
N610   N     0.23036   0.42177   0.61847   0.00000  Uiso   1.00
N611   N     0.24004   0.41989   0.38065   0.00000  Uiso   1.00
N612   N     0.25676   0.08007   0.61856   0.00000  Uiso   1.00
N613   N     0.00000   0.25000   0.38093   0.00000  Uiso   1.00
N614   N     0.25000   0.00000   0.61907   0.00000  Uiso   1.00
N615   N     0.25000   0.00000   0.38093   0.00000  Uiso   1.00
N616   N     0.00755   0.33009   0.38284   0.00000  Uiso   1.00
N617   N     0.48040   0.17176   0.61846   0.00000  Uiso   1.00
N618   N     0.48994   0.16990   0.38065   0.00000  Uiso   1.00
N619   N     0.00676   0.33007   0.61856   0.00000  Uiso   1.00
N620   N     0.25751   0.08010   0.38284   0.00000  Uiso   1.00
O621   O     0.04580   0.20419   0.53821   0.00000  Uiso   1.00
O622   O     0.20419   0.04581   0.46179   0.00000  Uiso   1.00
O623   O     0.20419   0.04581   0.53821   0.00000  Uiso   1.00
O624   O     0.29580   0.45419   0.46179   0.00000  Uiso   1.00
O625   O     0.20419   0.45419   0.46179   0.00000  Uiso   1.00
O626   O     0.29580   0.04581   0.53821   0.00000  Uiso   1.00
O627   O     0.29580   0.04581   0.46179   0.00000  Uiso   1.00
O628   O     0.20419   0.45419   0.53821   0.00000  Uiso   1.00
O629   O     0.45419   0.29581   0.46179   0.00000  Uiso   1.00
O630   O     0.45419   0.29581   0.53821   0.00000  Uiso   1.00
O631   O     0.04580   0.20419   0.46179   0.00000  Uiso   1.00
O632   O     0.45419   0.20419   0.46179   0.00000  Uiso   1.00
O633   O     0.04580   0.29581   0.53821   0.00000  Uiso   1.00
O634   O     0.04580   0.29581   0.46179   0.00000  Uiso   1.00
O635   O     0.45419   0.20419   0.53821   0.00000  Uiso   1.00
O636   O     0.29580   0.45419   0.53821   0.00000  Uiso   1.00
Zn637  Zn    0.00000   0.25000   0.55104   0.00000  Uiso   1.00
Zn638  Zn    0.00000   0.25000   0.44896   0.00000  Uiso   1.00
Zn639  Zn    0.25000   0.00000   0.55104   0.00000  Uiso   1.00
Zn640  Zn    0.25000   0.00000   0.44896   0.00000  Uiso   1.00
C641   C     0.55965   0.18991   0.49988   0.00000  Uiso   1.00
C642   C     0.99326   0.21104   0.64235   0.00000  Uiso   1.00
C643   C     0.99457   0.21086   0.35705   0.00000  Uiso   1.00
C644   C     0.50425   0.28936   0.64285   0.00000  Uiso   1.00
C645   C     0.75482   0.03934   0.35783   0.00000  Uiso   1.00
C646   C     0.74326   0.46104   0.64235   0.00000  Uiso   1.00
C647   C     0.74459   0.46086   0.35705   0.00000  Uiso   1.00
C648   C     0.75424   0.03936   0.64285   0.00000  Uiso   1.00
C649   C     0.91289   0.11825   0.47362   0.00000  Uiso   1.00
C650   C     0.58713   0.38169   0.52634   0.00000  Uiso   1.00
C651   C     0.63042   0.33617   0.47352   0.00000  Uiso   1.00
C652   C     0.94044   0.31011   0.50012   0.00000  Uiso   1.00
C653   C     0.86968   0.16369   0.52657   0.00000  Uiso   1.00
C654   C     0.58070   0.11171   0.49950   0.00000  Uiso   1.00
C655   C     0.91956   0.38817   0.50005   0.00000  Uiso   1.00
C656   C     0.86335   0.32944   0.49985   0.00000  Uiso   1.00
C657   C     0.63689   0.17051   0.49996   0.00000  Uiso   1.00
C658   C     0.66289   0.36825   0.47361   0.00000  Uiso   1.00
C659   C     0.83712   0.13169   0.52634   0.00000  Uiso   1.00
C660   C     0.88042   0.08617   0.47352   0.00000  Uiso   1.00
C661   C     0.61968   0.41368   0.52658   0.00000  Uiso   1.00
C662   C     0.83070   0.36171   0.49948   0.00000  Uiso   1.00
C663   C     0.94034   0.18988   0.49996   0.00000  Uiso   1.00
C664   C     0.66956   0.13818   0.50003   0.00000  Uiso   1.00
C665   C     0.61335   0.07943   0.49987   0.00000  Uiso   1.00
C666   C     0.88689   0.42051   0.49998   0.00000  Uiso   1.00
C667   C     0.59292   0.34306   0.50009   0.00000  Uiso   1.00
C668   C     0.90719   0.15681   0.50000   0.00000  Uiso   1.00
C669   C     0.90731   0.34309   0.50029   0.00000  Uiso   1.00
C670   C     0.59286   0.15688   0.49966   0.00000  Uiso   1.00
C671   C     0.84291   0.09306   0.50009   0.00000  Uiso   1.00
C672   C     0.65719   0.40681   0.50000   0.00000  Uiso   1.00
C673   C     0.65732   0.09309   0.50029   0.00000  Uiso   1.00
C674   C     0.55972   0.31005   0.50006   0.00000  Uiso   1.00
C675   C     0.84286   0.40688   0.49966   0.00000  Uiso   1.00
C676   C     0.54773   0.35609   0.37942   0.00000  Uiso   1.00
C677   C     0.51469   0.13977   0.60658   0.00000  Uiso   1.00
C678   C     0.53019   0.14388   0.38604   0.00000  Uiso   1.00
C679   C     0.96717   0.35762   0.61884   0.00000  Uiso   1.00
C680   C     0.79770   0.10609   0.37944   0.00000  Uiso   1.00
C681   C     0.76462   0.38977   0.60653   0.00000  Uiso   1.00
C682   C     0.78034   0.39394   0.38602   0.00000  Uiso   1.00
C683   C     0.71717   0.10762   0.61883   0.00000  Uiso   1.00
C684   C     0.80965   0.43991   0.49988   0.00000  Uiso   1.00
C685   C     0.69044   0.06011   0.50012   0.00000  Uiso   1.00
C686   C     0.69034   0.43988   0.49996   0.00000  Uiso   1.00
C687   C     0.80972   0.06005   0.50006   0.00000  Uiso   1.00
C688   C     0.50484   0.28933   0.35783   0.00000  Uiso   1.00
F689   F     0.95032   0.11109   0.44945   0.00000  Uiso   1.00
F690   F     0.79946   0.13904   0.55010   0.00000  Uiso   1.00
F691   F     0.88577   0.04821   0.44842   0.00000  Uiso   1.00
F692   F     0.61429   0.45168   0.55161   0.00000  Uiso   1.00
F693   F     0.78762   0.34917   0.49862   0.00000  Uiso   1.00
F694   F     0.71276   0.15042   0.49967   0.00000  Uiso   1.00
F695   F     0.60246   0.03520   0.49950   0.00000  Uiso   1.00
F696   F     0.89780   0.46474   0.50023   0.00000  Uiso   1.00
F697   F     0.54947   0.38904   0.55011   0.00000  Uiso   1.00
F698   F     0.63576   0.29822   0.44840   0.00000  Uiso   1.00
F699   F     0.86428   0.20169   0.55159   0.00000  Uiso   1.00
F700   F     0.53762   0.09916   0.49865   0.00000  Uiso   1.00
F701   F     0.96276   0.40042   0.49972   0.00000  Uiso   1.00
F702   F     0.85246   0.28520   0.49946   0.00000  Uiso   1.00
F703   F     0.64780   0.21474   0.50019   0.00000  Uiso   1.00
F704   F     0.70032   0.36110   0.44944   0.00000  Uiso   1.00
H705   H     0.97864   0.34835   0.38561   0.00000  Uiso   1.00
H706   H     0.53108   0.11521   0.36221   0.00000  Uiso   1.00
H707   H     0.53083   0.12955   0.42009   0.00000  Uiso   1.00
H708   H     0.56027   0.16467   0.38128   0.00000  Uiso   1.00
H709   H     0.53552   0.34775   0.62333   0.00000  Uiso   1.00
H710   H     0.96558   0.37868   0.64962   0.00000  Uiso   1.00
H711   H     0.93701   0.33654   0.61655   0.00000  Uiso   1.00
H712   H     0.96780   0.38038   0.58958   0.00000  Uiso   1.00
H713   H     0.72860   0.09837   0.38555   0.00000  Uiso   1.00
H714   H     0.79257   0.13512   0.35686   0.00000  Uiso   1.00
H715   H     0.82584   0.08514   0.36718   0.00000  Uiso   1.00
H716   H     0.54258   0.38513   0.35685   0.00000  Uiso   1.00
H717   H     0.80624   0.11978   0.41299   0.00000  Uiso   1.00
H718   H     0.70124   0.40741   0.62901   0.00000  Uiso   1.00
H719   H     0.75920   0.35757   0.62415   0.00000  Uiso   1.00
H720   H     0.79821   0.40265   0.61435   0.00000  Uiso   1.00
H721   H     0.76230   0.38239   0.57024   0.00000  Uiso   1.00
H722   H     0.71320   0.40074   0.37151   0.00000  Uiso   1.00
H723   H     0.78141   0.36545   0.36200   0.00000  Uiso   1.00
H724   H     0.78090   0.37939   0.41998   0.00000  Uiso   1.00
H725   H     0.81037   0.41487   0.38152   0.00000  Uiso   1.00
H726   H     0.78552   0.09775   0.62333   0.00000  Uiso   1.00
H727   H     0.57586   0.33515   0.36712   0.00000  Uiso   1.00
H728   H     0.71561   0.12874   0.64957   0.00000  Uiso   1.00
H729   H     0.68701   0.08654   0.61660   0.00000  Uiso   1.00
H730   H     0.71778   0.13033   0.58952   0.00000  Uiso   1.00
H731   H     0.55630   0.36976   0.41296   0.00000  Uiso   1.00
H732   H     0.95127   0.15739   0.62898   0.00000  Uiso   1.00
H733   H     0.50926   0.10758   0.62421   0.00000  Uiso   1.00
H734   H     0.54826   0.15266   0.61445   0.00000  Uiso   1.00
H735   H     0.51243   0.13238   0.57030   0.00000  Uiso   1.00
H736   H     0.96306   0.15081   0.37153   0.00000  Uiso   1.00
N737   N     0.50000   0.25000   0.61907   0.00000  Uiso   1.00
N738   N     0.73036   0.42177   0.61847   0.00000  Uiso   1.00
N739   N     0.74004   0.41989   0.38065   0.00000  Uiso   1.00
N740   N     0.75676   0.08007   0.61856   0.00000  Uiso   1.00
N741   N     0.50000   0.25000   0.38093   0.00000  Uiso   1.00
N742   N     0.75000   0.00000   0.61907   0.00000  Uiso   1.00
N743   N     0.75000   0.00000   0.38093   0.00000  Uiso   1.00
N744   N     0.50755   0.33009   0.38284   0.00000  Uiso   1.00
N745   N     0.98040   0.17176   0.61846   0.00000  Uiso   1.00
N746   N     0.98994   0.16990   0.38065   0.00000  Uiso   1.00
N747   N     0.50676   0.33007   0.61856   0.00000  Uiso   1.00
N748   N     0.75751   0.08010   0.38284   0.00000  Uiso   1.00
O749   O     0.54580   0.20419   0.53821   0.00000  Uiso   1.00
O750   O     0.70419   0.04581   0.46179   0.00000  Uiso   1.00
O751   O     0.70419   0.04581   0.53821   0.00000  Uiso   1.00
O752   O     0.79580   0.45419   0.46179   0.00000  Uiso   1.00
O753   O     0.70419   0.45419   0.46179   0.00000  Uiso   1.00
O754   O     0.79580   0.04581   0.53821   0.00000  Uiso   1.00
O755   O     0.79580   0.04581   0.46179   0.00000  Uiso   1.00
O756   O     0.70419   0.45419   0.53821   0.00000  Uiso   1.00
O757   O     0.95419   0.29581   0.46179   0.00000  Uiso   1.00
O758   O     0.95419   0.29581   0.53821   0.00000  Uiso   1.00
O759   O     0.54580   0.20419   0.46179   0.00000  Uiso   1.00
O760   O     0.95419   0.20419   0.46179   0.00000  Uiso   1.00
O761   O     0.54580   0.29581   0.53821   0.00000  Uiso   1.00
O762   O     0.54580   0.29581   0.46179   0.00000  Uiso   1.00
O763   O     0.95419   0.20419   0.53821   0.00000  Uiso   1.00
O764   O     0.79580   0.45419   0.53821   0.00000  Uiso   1.00
Zn765  Zn    0.50000   0.25000   0.55104   0.00000  Uiso   1.00
Zn766  Zn    0.50000   0.25000   0.44896   0.00000  Uiso   1.00
Zn767  Zn    0.75000   0.00000   0.55104   0.00000  Uiso   1.00
Zn768  Zn    0.75000   0.00000   0.44896   0.00000  Uiso   1.00
C769   C     0.05965   0.68991   0.49988   0.00000  Uiso   1.00
C770   C     0.49326   0.71104   0.64235   0.00000  Uiso   1.00
C771   C     0.49457   0.71086   0.35705   0.00000  Uiso   1.00
C772   C     0.00425   0.78936   0.64285   0.00000  Uiso   1.00
C773   C     0.25482   0.53934   0.35783   0.00000  Uiso   1.00
C774   C     0.24326   0.96104   0.64235   0.00000  Uiso   1.00
C775   C     0.24459   0.96086   0.35705   0.00000  Uiso   1.00
C776   C     0.25424   0.53936   0.64285   0.00000  Uiso   1.00
C777   C     0.41289   0.61825   0.47362   0.00000  Uiso   1.00
C778   C     0.08713   0.88169   0.52634   0.00000  Uiso   1.00
C779   C     0.13042   0.83617   0.47352   0.00000  Uiso   1.00
C780   C     0.44044   0.81011   0.50012   0.00000  Uiso   1.00
C781   C     0.36968   0.66369   0.52657   0.00000  Uiso   1.00
C782   C     0.08070   0.61171   0.49950   0.00000  Uiso   1.00
C783   C     0.41956   0.88817   0.50005   0.00000  Uiso   1.00
C784   C     0.36335   0.82944   0.49985   0.00000  Uiso   1.00
C785   C     0.13689   0.67051   0.49996   0.00000  Uiso   1.00
C786   C     0.16289   0.86825   0.47361   0.00000  Uiso   1.00
C787   C     0.33712   0.63169   0.52634   0.00000  Uiso   1.00
C788   C     0.38042   0.58617   0.47352   0.00000  Uiso   1.00
C789   C     0.11968   0.91368   0.52658   0.00000  Uiso   1.00
C790   C     0.33070   0.86171   0.49948   0.00000  Uiso   1.00
C791   C     0.44034   0.68988   0.49996   0.00000  Uiso   1.00
C792   C     0.16956   0.63818   0.50003   0.00000  Uiso   1.00
C793   C     0.11335   0.57943   0.49987   0.00000  Uiso   1.00
C794   C     0.38689   0.92051   0.49998   0.00000  Uiso   1.00
C795   C     0.09292   0.84306   0.50009   0.00000  Uiso   1.00
C796   C     0.40719   0.65681   0.50000   0.00000  Uiso   1.00
C797   C     0.40731   0.84309   0.50029   0.00000  Uiso   1.00
C798   C     0.09286   0.65688   0.49966   0.00000  Uiso   1.00
C799   C     0.34291   0.59306   0.50009   0.00000  Uiso   1.00
C800   C     0.15719   0.90681   0.50000   0.00000  Uiso   1.00
C801   C     0.15732   0.59309   0.50029   0.00000  Uiso   1.00
C802   C     0.05972   0.81005   0.50006   0.00000  Uiso   1.00
C803   C     0.34286   0.90688   0.49966   0.00000  Uiso   1.00
C804   C     0.04773   0.85609   0.37942   0.00000  Uiso   1.00
C805   C     0.01469   0.63977   0.60658   0.00000  Uiso   1.00
C806   C     0.03019   0.64388   0.38604   0.00000  Uiso   1.00
C807   C     0.46717   0.85762   0.61884   0.00000  Uiso   1.00
C808   C     0.29770   0.60609   0.37944   0.00000  Uiso   1.00
C809   C     0.26462   0.88977   0.60653   0.00000  Uiso   1.00
C810   C     0.28034   0.89394   0.38602   0.00000  Uiso   1.00
C811   C     0.21717   0.60762   0.61883   0.00000  Uiso   1.00
C812   C     0.30965   0.93991   0.49988   0.00000  Uiso   1.00
C813   C     0.19044   0.56011   0.50012   0.00000  Uiso   1.00
C814   C     0.19034   0.93988   0.49996   0.00000  Uiso   1.00
C815   C     0.30972   0.56005   0.50006   0.00000  Uiso   1.00
C816   C     0.00484   0.78933   0.35783   0.00000  Uiso   1.00
F817   F     0.45032   0.61109   0.44945   0.00000  Uiso   1.00
F818   F     0.29946   0.63904   0.55010   0.00000  Uiso   1.00
F819   F     0.38577   0.54821   0.44842   0.00000  Uiso   1.00
F820   F     0.11429   0.95168   0.55161   0.00000  Uiso   1.00
F821   F     0.28762   0.84917   0.49862   0.00000  Uiso   1.00
F822   F     0.21276   0.65042   0.49967   0.00000  Uiso   1.00
F823   F     0.10246   0.53520   0.49950   0.00000  Uiso   1.00
F824   F     0.39780   0.96474   0.50023   0.00000  Uiso   1.00
F825   F     0.04947   0.88904   0.55011   0.00000  Uiso   1.00
F826   F     0.13576   0.79822   0.44840   0.00000  Uiso   1.00
F827   F     0.36428   0.70169   0.55159   0.00000  Uiso   1.00
F828   F     0.03762   0.59916   0.49865   0.00000  Uiso   1.00
F829   F     0.46276   0.90042   0.49972   0.00000  Uiso   1.00
F830   F     0.35246   0.78520   0.49946   0.00000  Uiso   1.00
F831   F     0.14780   0.71474   0.50019   0.00000  Uiso   1.00
F832   F     0.20032   0.86110   0.44944   0.00000  Uiso   1.00
H833   H     0.47864   0.84835   0.38561   0.00000  Uiso   1.00
H834   H     0.03108   0.61521   0.36221   0.00000  Uiso   1.00
H835   H     0.03083   0.62955   0.42009   0.00000  Uiso   1.00
H836   H     0.06027   0.66467   0.38128   0.00000  Uiso   1.00
H837   H     0.03552   0.84775   0.62333   0.00000  Uiso   1.00
H838   H     0.46558   0.87868   0.64962   0.00000  Uiso   1.00
H839   H     0.43701   0.83654   0.61655   0.00000  Uiso   1.00
H840   H     0.46780   0.88038   0.58958   0.00000  Uiso   1.00
H841   H     0.22860   0.59837   0.38555   0.00000  Uiso   1.00
H842   H     0.29257   0.63512   0.35686   0.00000  Uiso   1.00
H843   H     0.32584   0.58514   0.36718   0.00000  Uiso   1.00
H844   H     0.04258   0.88513   0.35685   0.00000  Uiso   1.00
H845   H     0.30624   0.61978   0.41299   0.00000  Uiso   1.00
H846   H     0.20124   0.90741   0.62901   0.00000  Uiso   1.00
H847   H     0.25920   0.85757   0.62415   0.00000  Uiso   1.00
H848   H     0.29821   0.90265   0.61435   0.00000  Uiso   1.00
H849   H     0.26230   0.88239   0.57024   0.00000  Uiso   1.00
H850   H     0.21320   0.90074   0.37151   0.00000  Uiso   1.00
H851   H     0.28141   0.86545   0.36200   0.00000  Uiso   1.00
H852   H     0.28090   0.87939   0.41998   0.00000  Uiso   1.00
H853   H     0.31037   0.91487   0.38152   0.00000  Uiso   1.00
H854   H     0.28552   0.59775   0.62333   0.00000  Uiso   1.00
H855   H     0.07586   0.83515   0.36712   0.00000  Uiso   1.00
H856   H     0.21561   0.62874   0.64957   0.00000  Uiso   1.00
H857   H     0.18701   0.58654   0.61660   0.00000  Uiso   1.00
H858   H     0.21778   0.63033   0.58952   0.00000  Uiso   1.00
H859   H     0.05630   0.86976   0.41296   0.00000  Uiso   1.00
H860   H     0.45127   0.65739   0.62898   0.00000  Uiso   1.00
H861   H     0.00926   0.60758   0.62421   0.00000  Uiso   1.00
H862   H     0.04826   0.65266   0.61445   0.00000  Uiso   1.00
H863   H     0.01243   0.63238   0.57030   0.00000  Uiso   1.00
H864   H     0.46306   0.65081   0.37153   0.00000  Uiso   1.00
N865   N     0.00000   0.75000   0.61907   0.00000  Uiso   1.00
N866   N     0.23036   0.92177   0.61847   0.00000  Uiso   1.00
N867   N     0.24004   0.91989   0.38065   0.00000  Uiso   1.00
N868   N     0.25676   0.58007   0.61856   0.00000  Uiso   1.00
N869   N     0.00000   0.75000   0.38093   0.00000  Uiso   1.00
N870   N     0.25000   0.50000   0.61907   0.00000  Uiso   1.00
N871   N     0.25000   0.50000   0.38093   0.00000  Uiso   1.00
N872   N     0.00755   0.83009   0.38284   0.00000  Uiso   1.00
N873   N     0.48040   0.67176   0.61846   0.00000  Uiso   1.00
N874   N     0.48994   0.66990   0.38065   0.00000  Uiso   1.00
N875   N     0.00676   0.83007   0.61856   0.00000  Uiso   1.00
N876   N     0.25751   0.58010   0.38284   0.00000  Uiso   1.00
O877   O     0.04580   0.70419   0.53821   0.00000  Uiso   1.00
O878   O     0.20419   0.54581   0.46179   0.00000  Uiso   1.00
O879   O     0.20419   0.54581   0.53821   0.00000  Uiso   1.00
O880   O     0.29580   0.95419   0.46179   0.00000  Uiso   1.00
O881   O     0.20419   0.95419   0.46179   0.00000  Uiso   1.00
O882   O     0.29580   0.54581   0.53821   0.00000  Uiso   1.00
O883   O     0.29580   0.54581   0.46179   0.00000  Uiso   1.00
O884   O     0.20419   0.95419   0.53821   0.00000  Uiso   1.00
O885   O     0.45419   0.79581   0.46179   0.00000  Uiso   1.00
O886   O     0.45419   0.79581   0.53821   0.00000  Uiso   1.00
O887   O     0.04580   0.70419   0.46179   0.00000  Uiso   1.00
O888   O     0.45419   0.70419   0.46179   0.00000  Uiso   1.00
O889   O     0.04580   0.79581   0.53821   0.00000  Uiso   1.00
O890   O     0.04580   0.79581   0.46179   0.00000  Uiso   1.00
O891   O     0.45419   0.70419   0.53821   0.00000  Uiso   1.00
O892   O     0.29580   0.95419   0.53821   0.00000  Uiso   1.00
Zn893  Zn    0.00000   0.75000   0.55104   0.00000  Uiso   1.00
Zn894  Zn    0.00000   0.75000   0.44896   0.00000  Uiso   1.00
Zn895  Zn    0.25000   0.50000   0.55104   0.00000  Uiso   1.00
Zn896  Zn    0.25000   0.50000   0.44896   0.00000  Uiso   1.00
C897   C     0.55965   0.68991   0.49988   0.00000  Uiso   1.00
C898   C     0.99326   0.71104   0.64235   0.00000  Uiso   1.00
C899   C     0.99457   0.71086   0.35705   0.00000  Uiso   1.00
C900   C     0.50425   0.78936   0.64285   0.00000  Uiso   1.00
C901   C     0.75482   0.53934   0.35783   0.00000  Uiso   1.00
C902   C     0.74326   0.96104   0.64235   0.00000  Uiso   1.00
C903   C     0.74459   0.96086   0.35705   0.00000  Uiso   1.00
C904   C     0.75424   0.53936   0.64285   0.00000  Uiso   1.00
C905   C     0.91289   0.61825   0.47362   0.00000  Uiso   1.00
C906   C     0.58713   0.88169   0.52634   0.00000  Uiso   1.00
C907   C     0.63042   0.83617   0.47352   0.00000  Uiso   1.00
C908   C     0.94044   0.81011   0.50012   0.00000  Uiso   1.00
C909   C     0.86968   0.66369   0.52657   0.00000  Uiso   1.00
C910   C     0.58070   0.61171   0.49950   0.00000  Uiso   1.00
C911   C     0.91956   0.88817   0.50005   0.00000  Uiso   1.00
C912   C     0.86335   0.82944   0.49985   0.00000  Uiso   1.00
C913   C     0.63689   0.67051   0.49996   0.00000  Uiso   1.00
C914   C     0.66289   0.86825   0.47361   0.00000  Uiso   1.00
C915   C     0.83712   0.63169   0.52634   0.00000  Uiso   1.00
C916   C     0.88042   0.58617   0.47352   0.00000  Uiso   1.00
C917   C     0.61968   0.91368   0.52658   0.00000  Uiso   1.00
C918   C     0.83070   0.86171   0.49948   0.00000  Uiso   1.00
C919   C     0.94034   0.68988   0.49996   0.00000  Uiso   1.00
C920   C     0.66956   0.63818   0.50003   0.00000  Uiso   1.00
C921   C     0.61335   0.57943   0.49987   0.00000  Uiso   1.00
C922   C     0.88689   0.92051   0.49998   0.00000  Uiso   1.00
C923   C     0.59292   0.84306   0.50009   0.00000  Uiso   1.00
C924   C     0.90719   0.65681   0.50000   0.00000  Uiso   1.00
C925   C     0.90731   0.84309   0.50029   0.00000  Uiso   1.00
C926   C     0.59286   0.65688   0.49966   0.00000  Uiso   1.00
C927   C     0.84291   0.59306   0.50009   0.00000  Uiso   1.00
C928   C     0.65719   0.90681   0.50000   0.00000  Uiso   1.00
C929   C     0.65732   0.59309   0.50029   0.00000  Uiso   1.00
C930   C     0.55972   0.81005   0.50006   0.00000  Uiso   1.00
C931   C     0.84286   0.90688   0.49966   0.00000  Uiso   1.00
C932   C     0.54773   0.85609   0.37942   0.00000  Uiso   1.00
C933   C     0.51469   0.63977   0.60658   0.00000  Uiso   1.00
C934   C     0.53019   0.64388   0.38604   0.00000  Uiso   1.00
C935   C     0.96717   0.85762   0.61884   0.00000  Uiso   1.00
C936   C     0.79770   0.60609   0.37944   0.00000  Uiso   1.00
C937   C     0.76462   0.88977   0.60653   0.00000  Uiso   1.00
C938   C     0.78034   0.89394   0.38602   0.00000  Uiso   1.00
C939   C     0.71717   0.60762   0.61883   0.00000  Uiso   1.00
C940   C     0.80965   0.93991   0.49988   0.00000  Uiso   1.00
C941   C     0.69044   0.56011   0.50012   0.00000  Uiso   1.00
C942   C     0.69034   0.93988   0.49996   0.00000  Uiso   1.00
C943   C     0.80972   0.56005   0.50006   0.00000  Uiso   1.00
C944   C     0.50484   0.78933   0.35783   0.00000  Uiso   1.00
F945   F     0.95032   0.61109   0.44945   0.00000  Uiso   1.00
F946   F     0.79946   0.63904   0.55010   0.00000  Uiso   1.00
F947   F     0.88577   0.54821   0.44842   0.00000  Uiso   1.00
F948   F     0.61429   0.95168   0.55161   0.00000  Uiso   1.00
F949   F     0.78762   0.84917   0.49862   0.00000  Uiso   1.00
F950   F     0.71276   0.65042   0.49967   0.00000  Uiso   1.00
F951   F     0.60246   0.53520   0.49950   0.00000  Uiso   1.00
F952   F     0.89780   0.96474   0.50023   0.00000  Uiso   1.00
F953   F     0.54947   0.88904   0.55011   0.00000  Uiso   1.00
F954   F     0.63576   0.79822   0.44840   0.00000  Uiso   1.00
F955   F     0.86428   0.70169   0.55159   0.00000  Uiso   1.00
F956   F     0.53762   0.59916   0.49865   0.00000  Uiso   1.00
F957   F     0.96276   0.90042   0.49972   0.00000  Uiso   1.00
F958   F     0.85246   0.78520   0.49946   0.00000  Uiso   1.00
F959   F     0.64780   0.71474   0.50019   0.00000  Uiso   1.00
F960   F     0.70032   0.86110   0.44944   0.00000  Uiso   1.00
H961   H     0.97864   0.84835   0.38561   0.00000  Uiso   1.00
H962   H     0.53108   0.61521   0.36221   0.00000  Uiso   1.00
H963   H     0.53083   0.62955   0.42009   0.00000  Uiso   1.00
H964   H     0.56027   0.66467   0.38128   0.00000  Uiso   1.00
H965   H     0.53552   0.84775   0.62333   0.00000  Uiso   1.00
H966   H     0.96558   0.87868   0.64962   0.00000  Uiso   1.00
H967   H     0.93701   0.83654   0.61655   0.00000  Uiso   1.00
H968   H     0.96780   0.88038   0.58958   0.00000  Uiso   1.00
H969   H     0.72860   0.59837   0.38555   0.00000  Uiso   1.00
H970   H     0.79257   0.63512   0.35686   0.00000  Uiso   1.00
H971   H     0.82584   0.58514   0.36718   0.00000  Uiso   1.00
H972   H     0.54258   0.88513   0.35685   0.00000  Uiso   1.00
H973   H     0.80624   0.61978   0.41299   0.00000  Uiso   1.00
H974   H     0.70124   0.90741   0.62901   0.00000  Uiso   1.00
H975   H     0.75920   0.85757   0.62415   0.00000  Uiso   1.00
H976   H     0.79821   0.90265   0.61435   0.00000  Uiso   1.00
H977   H     0.76230   0.88239   0.57024   0.00000  Uiso   1.00
H978   H     0.71320   0.90074   0.37151   0.00000  Uiso   1.00
H979   H     0.78141   0.86545   0.36200   0.00000  Uiso   1.00
H980   H     0.78090   0.87939   0.41998   0.00000  Uiso   1.00
H981   H     0.81037   0.91487   0.38152   0.00000  Uiso   1.00
H982   H     0.78552   0.59775   0.62333   0.00000  Uiso   1.00
H983   H     0.57586   0.83515   0.36712   0.00000  Uiso   1.00
H984   H     0.71561   0.62874   0.64957   0.00000  Uiso   1.00
H985   H     0.68701   0.58654   0.61660   0.00000  Uiso   1.00
H986   H     0.71778   0.63033   0.58952   0.00000  Uiso   1.00
H987   H     0.55630   0.86976   0.41296   0.00000  Uiso   1.00
H988   H     0.95127   0.65739   0.62898   0.00000  Uiso   1.00
H989   H     0.50926   0.60758   0.62421   0.00000  Uiso   1.00
H990   H     0.54826   0.65266   0.61445   0.00000  Uiso   1.00
H991   H     0.51243   0.63238   0.57030   0.00000  Uiso   1.00
H992   H     0.96306   0.65081   0.37153   0.00000  Uiso   1.00
N993   N     0.50000   0.75000   0.61907   0.00000  Uiso   1.00
N994   N     0.73036   0.92177   0.61847   0.00000  Uiso   1.00
N995   N     0.74004   0.91989   0.38065   0.00000  Uiso   1.00
N996   N     0.75676   0.58007   0.61856   0.00000  Uiso   1.00
N997   N     0.50000   0.75000   0.38093   0.00000  Uiso   1.00
N998   N     0.75000   0.50000   0.61907   0.00000  Uiso   1.00
N999   N     0.75000   0.50000   0.38093   0.00000  Uiso   1.00
N1000  N     0.50755   0.83009   0.38284   0.00000  Uiso   1.00
N1001  N     0.98040   0.67176   0.61846   0.00000  Uiso   1.00
N1002  N     0.98994   0.66990   0.38065   0.00000  Uiso   1.00
N1003  N     0.50676   0.83007   0.61856   0.00000  Uiso   1.00
N1004  N     0.75751   0.58010   0.38284   0.00000  Uiso   1.00
O1005  O     0.54580   0.70419   0.53821   0.00000  Uiso   1.00
O1006  O     0.70419   0.54581   0.46179   0.00000  Uiso   1.00
O1007  O     0.70419   0.54581   0.53821   0.00000  Uiso   1.00
O1008  O     0.79580   0.95419   0.46179   0.00000  Uiso   1.00
O1009  O     0.70419   0.95419   0.46179   0.00000  Uiso   1.00
O1010  O     0.79580   0.54581   0.53821   0.00000  Uiso   1.00
O1011  O     0.79580   0.54581   0.46179   0.00000  Uiso   1.00
O1012  O     0.70419   0.95419   0.53821   0.00000  Uiso   1.00
O1013  O     0.95419   0.79581   0.46179   0.00000  Uiso   1.00
O1014  O     0.95419   0.79581   0.53821   0.00000  Uiso   1.00
O1015  O     0.54580   0.70419   0.46179   0.00000  Uiso   1.00
O1016  O     0.95419   0.70419   0.46179   0.00000  Uiso   1.00
O1017  O     0.54580   0.79581   0.53821   0.00000  Uiso   1.00
O1018  O     0.54580   0.79581   0.46179   0.00000  Uiso   1.00
O1019  O     0.95419   0.70419   0.53821   0.00000  Uiso   1.00
O1020  O     0.79580   0.95419   0.53821   0.00000  Uiso   1.00
Zn1021 Zn    0.50000   0.75000   0.55104   0.00000  Uiso   1.00
Zn1022 Zn    0.50000   0.75000   0.44896   0.00000  Uiso   1.00
Zn1023 Zn    0.75000   0.50000   0.55104   0.00000  Uiso   1.00
Zn1024 Zn    0.75000   0.50000   0.44896   0.00000  Uiso   1.00
C1025  C     0.05965   0.18991   0.83321   0.00000  Uiso   1.00
C1026  C     0.49326   0.21104   0.97569   0.00000  Uiso   1.00
C1027  C     0.49457   0.21086   0.69038   0.00000  Uiso   1.00
C1028  C     0.00425   0.28936   0.97618   0.00000  Uiso   1.00
C1029  C     0.25482   0.03934   0.69117   0.00000  Uiso   1.00
C1030  C     0.24326   0.46104   0.97569   0.00000  Uiso   1.00
C1031  C     0.24459   0.46086   0.69038   0.00000  Uiso   1.00
C1032  C     0.25424   0.03936   0.97618   0.00000  Uiso   1.00
C1033  C     0.41289   0.11825   0.80695   0.00000  Uiso   1.00
C1034  C     0.08713   0.38169   0.85967   0.00000  Uiso   1.00
C1035  C     0.13042   0.33617   0.80685   0.00000  Uiso   1.00
C1036  C     0.44044   0.31011   0.83345   0.00000  Uiso   1.00
C1037  C     0.36968   0.16369   0.85990   0.00000  Uiso   1.00
C1038  C     0.08070   0.11171   0.83283   0.00000  Uiso   1.00
C1039  C     0.41956   0.38817   0.83338   0.00000  Uiso   1.00
C1040  C     0.36335   0.32944   0.83319   0.00000  Uiso   1.00
C1041  C     0.13689   0.17051   0.83329   0.00000  Uiso   1.00
C1042  C     0.16289   0.36825   0.80695   0.00000  Uiso   1.00
C1043  C     0.33712   0.13169   0.85967   0.00000  Uiso   1.00
C1044  C     0.38042   0.08617   0.80686   0.00000  Uiso   1.00
C1045  C     0.11968   0.41368   0.85991   0.00000  Uiso   1.00
C1046  C     0.33070   0.36171   0.83281   0.00000  Uiso   1.00
C1047  C     0.44034   0.18988   0.83329   0.00000  Uiso   1.00
C1048  C     0.16956   0.13818   0.83336   0.00000  Uiso   1.00
C1049  C     0.11335   0.07943   0.83321   0.00000  Uiso   1.00
C1050  C     0.38689   0.42051   0.83332   0.00000  Uiso   1.00
C1051  C     0.09292   0.34306   0.83342   0.00000  Uiso   1.00
C1052  C     0.40719   0.15681   0.83333   0.00000  Uiso   1.00
C1053  C     0.40731   0.34309   0.83362   0.00000  Uiso   1.00
C1054  C     0.09286   0.15688   0.83299   0.00000  Uiso   1.00
C1055  C     0.34291   0.09306   0.83342   0.00000  Uiso   1.00
C1056  C     0.15719   0.40681   0.83333   0.00000  Uiso   1.00
C1057  C     0.15732   0.09309   0.83362   0.00000  Uiso   1.00
C1058  C     0.05972   0.31005   0.83339   0.00000  Uiso   1.00
C1059  C     0.34286   0.40688   0.83299   0.00000  Uiso   1.00
C1060  C     0.04773   0.35609   0.71275   0.00000  Uiso   1.00
C1061  C     0.01469   0.13977   0.93992   0.00000  Uiso   1.00
C1062  C     0.03019   0.14388   0.71937   0.00000  Uiso   1.00
C1063  C     0.46717   0.35762   0.95218   0.00000  Uiso   1.00
C1064  C     0.29770   0.10609   0.71277   0.00000  Uiso   1.00
C1065  C     0.26462   0.38977   0.93986   0.00000  Uiso   1.00
C1066  C     0.28034   0.39394   0.71935   0.00000  Uiso   1.00
C1067  C     0.21717   0.10762   0.95216   0.00000  Uiso   1.00
C1068  C     0.30965   0.43991   0.83321   0.00000  Uiso   1.00
C1069  C     0.19044   0.06011   0.83345   0.00000  Uiso   1.00
C1070  C     0.19034   0.43988   0.83329   0.00000  Uiso   1.00
C1071  C     0.30972   0.06005   0.83339   0.00000  Uiso   1.00
C1072  C     0.00484   0.28933   0.69117   0.00000  Uiso   1.00
F1073  F     0.45032   0.11109   0.78279   0.00000  Uiso   1.00
F1074  F     0.29946   0.13904   0.88343   0.00000  Uiso   1.00
F1075  F     0.38577   0.04821   0.78175   0.00000  Uiso   1.00
F1076  F     0.11429   0.45168   0.88494   0.00000  Uiso   1.00
F1077  F     0.28762   0.34917   0.83195   0.00000  Uiso   1.00
F1078  F     0.21276   0.15042   0.83301   0.00000  Uiso   1.00
F1079  F     0.10246   0.03520   0.83283   0.00000  Uiso   1.00
F1080  F     0.39780   0.46474   0.83356   0.00000  Uiso   1.00
F1081  F     0.04947   0.38904   0.88344   0.00000  Uiso   1.00
F1082  F     0.13576   0.29822   0.78174   0.00000  Uiso   1.00
F1083  F     0.36428   0.20169   0.88493   0.00000  Uiso   1.00
F1084  F     0.03762   0.09916   0.83199   0.00000  Uiso   1.00
F1085  F     0.46276   0.40042   0.83305   0.00000  Uiso   1.00
F1086  F     0.35246   0.28520   0.83279   0.00000  Uiso   1.00
F1087  F     0.14780   0.21474   0.83352   0.00000  Uiso   1.00
F1088  F     0.20032   0.36110   0.78277   0.00000  Uiso   1.00
H1089  H     0.47864   0.34835   0.71894   0.00000  Uiso   1.00
H1090  H     0.03108   0.11521   0.69555   0.00000  Uiso   1.00
H1091  H     0.03083   0.12955   0.75343   0.00000  Uiso   1.00
H1092  H     0.06027   0.16467   0.71461   0.00000  Uiso   1.00
H1093  H     0.03552   0.34775   0.95666   0.00000  Uiso   1.00
H1094  H     0.46558   0.37868   0.98296   0.00000  Uiso   1.00
H1095  H     0.43701   0.33654   0.94988   0.00000  Uiso   1.00
H1096  H     0.46780   0.38038   0.92291   0.00000  Uiso   1.00
H1097  H     0.22860   0.09837   0.71888   0.00000  Uiso   1.00
H1098  H     0.29257   0.13512   0.69019   0.00000  Uiso   1.00
H1099  H     0.32584   0.08514   0.70051   0.00000  Uiso   1.00
H1100  H     0.04258   0.38513   0.69019   0.00000  Uiso   1.00
H1101  H     0.30624   0.11978   0.74632   0.00000  Uiso   1.00
H1102  H     0.20124   0.40741   0.96235   0.00000  Uiso   1.00
H1103  H     0.25920   0.35757   0.95749   0.00000  Uiso   1.00
H1104  H     0.29821   0.40265   0.94768   0.00000  Uiso   1.00
H1105  H     0.26230   0.38239   0.90358   0.00000  Uiso   1.00
H1106  H     0.21320   0.40074   0.70484   0.00000  Uiso   1.00
H1107  H     0.28141   0.36545   0.69533   0.00000  Uiso   1.00
H1108  H     0.28090   0.37939   0.75331   0.00000  Uiso   1.00
H1109  H     0.31037   0.41487   0.71485   0.00000  Uiso   1.00
H1110  H     0.28552   0.09775   0.95666   0.00000  Uiso   1.00
H1111  H     0.07586   0.33515   0.70045   0.00000  Uiso   1.00
H1112  H     0.21561   0.12874   0.98290   0.00000  Uiso   1.00
H1113  H     0.18701   0.08654   0.94993   0.00000  Uiso   1.00
H1114  H     0.21778   0.13033   0.92286   0.00000  Uiso   1.00
H1115  H     0.05630   0.36976   0.74629   0.00000  Uiso   1.00
H1116  H     0.45127   0.15739   0.96231   0.00000  Uiso   1.00
H1117  H     0.00926   0.10758   0.95754   0.00000  Uiso   1.00
H1118  H     0.04826   0.15266   0.94779   0.00000  Uiso   1.00
H1119  H     0.01243   0.13238   0.90363   0.00000  Uiso   1.00
H1120  H     0.46306   0.15081   0.70486   0.00000  Uiso   1.00
N1121  N     0.00000   0.25000   0.95240   0.00000  Uiso   1.00
N1122  N     0.23036   0.42177   0.95180   0.00000  Uiso   1.00
N1123  N     0.24004   0.41989   0.71399   0.00000  Uiso   1.00
N1124  N     0.25676   0.08007   0.95190   0.00000  Uiso   1.00
N1125  N     0.00000   0.25000   0.71427   0.00000  Uiso   1.00
N1126  N     0.25000   0.00000   0.95240   0.00000  Uiso   1.00
N1127  N     0.25000   0.00000   0.71427   0.00000  Uiso   1.00
N1128  N     0.00755   0.33009   0.71618   0.00000  Uiso   1.00
N1129  N     0.48040   0.17176   0.95179   0.00000  Uiso   1.00
N1130  N     0.48994   0.16990   0.71399   0.00000  Uiso   1.00
N1131  N     0.00676   0.33007   0.95190   0.00000  Uiso   1.00
N1132  N     0.25751   0.08010   0.71617   0.00000  Uiso   1.00
O1133  O     0.04580   0.20419   0.87154   0.00000  Uiso   1.00
O1134  O     0.20419   0.04581   0.79513   0.00000  Uiso   1.00
O1135  O     0.20419   0.04581   0.87154   0.00000  Uiso   1.00
O1136  O     0.29580   0.45419   0.79513   0.00000  Uiso   1.00
O1137  O     0.20419   0.45419   0.79513   0.00000  Uiso   1.00
O1138  O     0.29580   0.04581   0.87154   0.00000  Uiso   1.00
O1139  O     0.29580   0.04581   0.79513   0.00000  Uiso   1.00
O1140  O     0.20419   0.45419   0.87154   0.00000  Uiso   1.00
O1141  O     0.45419   0.29581   0.79513   0.00000  Uiso   1.00
O1142  O     0.45419   0.29581   0.87154   0.00000  Uiso   1.00
O1143  O     0.04580   0.20419   0.79513   0.00000  Uiso   1.00
O1144  O     0.45419   0.20419   0.79513   0.00000  Uiso   1.00
O1145  O     0.04580   0.29581   0.87154   0.00000  Uiso   1.00
O1146  O     0.04580   0.29581   0.79513   0.00000  Uiso   1.00
O1147  O     0.45419   0.20419   0.87154   0.00000  Uiso   1.00
O1148  O     0.29580   0.45419   0.87154   0.00000  Uiso   1.00
Zn1149 Zn    0.00000   0.25000   0.88437   0.00000  Uiso   1.00
Zn1150 Zn    0.00000   0.25000   0.78229   0.00000  Uiso   1.00
Zn1151 Zn    0.25000   0.00000   0.88437   0.00000  Uiso   1.00
Zn1152 Zn    0.25000   0.00000   0.78229   0.00000  Uiso   1.00
C1153  C     0.55965   0.18991   0.83321   0.00000  Uiso   1.00
C1154  C     0.99326   0.21104   0.97569   0.00000  Uiso   1.00
C1155  C     0.99457   0.21086   0.69038   0.00000  Uiso   1.00
C1156  C     0.50425   0.28936   0.97618   0.00000  Uiso   1.00
C1157  C     0.75482   0.03934   0.69117   0.00000  Uiso   1.00
C1158  C     0.74326   0.46104   0.97569   0.00000  Uiso   1.00
C1159  C     0.74459   0.46086   0.69038   0.00000  Uiso   1.00
C1160  C     0.75424   0.03936   0.97618   0.00000  Uiso   1.00
C1161  C     0.91289   0.11825   0.80695   0.00000  Uiso   1.00
C1162  C     0.58713   0.38169   0.85967   0.00000  Uiso   1.00
C1163  C     0.63042   0.33617   0.80685   0.00000  Uiso   1.00
C1164  C     0.94044   0.31011   0.83345   0.00000  Uiso   1.00
C1165  C     0.86968   0.16369   0.85990   0.00000  Uiso   1.00
C1166  C     0.58070   0.11171   0.83283   0.00000  Uiso   1.00
C1167  C     0.91956   0.38817   0.83338   0.00000  Uiso   1.00
C1168  C     0.86335   0.32944   0.83319   0.00000  Uiso   1.00
C1169  C     0.63689   0.17051   0.83329   0.00000  Uiso   1.00
C1170  C     0.66289   0.36825   0.80695   0.00000  Uiso   1.00
C1171  C     0.83712   0.13169   0.85967   0.00000  Uiso   1.00
C1172  C     0.88042   0.08617   0.80686   0.00000  Uiso   1.00
C1173  C     0.61968   0.41368   0.85991   0.00000  Uiso   1.00
C1174  C     0.83070   0.36171   0.83281   0.00000  Uiso   1.00
C1175  C     0.94034   0.18988   0.83329   0.00000  Uiso   1.00
C1176  C     0.66956   0.13818   0.83336   0.00000  Uiso   1.00
C1177  C     0.61335   0.07943   0.83321   0.00000  Uiso   1.00
C1178  C     0.88689   0.42051   0.83332   0.00000  Uiso   1.00
C1179  C     0.59292   0.34306   0.83342   0.00000  Uiso   1.00
C1180  C     0.90719   0.15681   0.83333   0.00000  Uiso   1.00
C1181  C     0.90731   0.34309   0.83362   0.00000  Uiso   1.00
C1182  C     0.59286   0.15688   0.83299   0.00000  Uiso   1.00
C1183  C     0.84291   0.09306   0.83342   0.00000  Uiso   1.00
C1184  C     0.65719   0.40681   0.83333   0.00000  Uiso   1.00
C1185  C     0.65732   0.09309   0.83362   0.00000  Uiso   1.00
C1186  C     0.55972   0.31005   0.83339   0.00000  Uiso   1.00
C1187  C     0.84286   0.40688   0.83299   0.00000  Uiso   1.00
C1188  C     0.54773   0.35609   0.71275   0.00000  Uiso   1.00
C1189  C     0.51469   0.13977   0.93992   0.00000  Uiso   1.00
C1190  C     0.53019   0.14388   0.71937   0.00000  Uiso   1.00
C1191  C     0.96717   0.35762   0.95218   0.00000  Uiso   1.00
C1192  C     0.79770   0.10609   0.71277   0.00000  Uiso   1.00
C1193  C     0.76462   0.38977   0.93986   0.00000  Uiso   1.00
C1194  C     0.78034   0.39394   0.71935   0.00000  Uiso   1.00
C1195  C     0.71717   0.10762   0.95216   0.00000  Uiso   1.00
C1196  C     0.80965   0.43991   0.83321   0.00000  Uiso   1.00
C1197  C     0.69044   0.06011   0.83345   0.00000  Uiso   1.00
C1198  C     0.69034   0.43988   0.83329   0.00000  Uiso   1.00
C1199  C     0.80972   0.06005   0.83339   0.00000  Uiso   1.00
C1200  C     0.50484   0.28933   0.69117   0.00000  Uiso   1.00
F1201  F     0.95032   0.11109   0.78279   0.00000  Uiso   1.00
F1202  F     0.79946   0.13904   0.88343   0.00000  Uiso   1.00
F1203  F     0.88577   0.04821   0.78175   0.00000  Uiso   1.00
F1204  F     0.61429   0.45168   0.88494   0.00000  Uiso   1.00
F1205  F     0.78762   0.34917   0.83195   0.00000  Uiso   1.00
F1206  F     0.71276   0.15042   0.83301   0.00000  Uiso   1.00
F1207  F     0.60246   0.03520   0.83283   0.00000  Uiso   1.00
F1208  F     0.89780   0.46474   0.83356   0.00000  Uiso   1.00
F1209  F     0.54947   0.38904   0.88344   0.00000  Uiso   1.00
F1210  F     0.63576   0.29822   0.78174   0.00000  Uiso   1.00
F1211  F     0.86428   0.20169   0.88493   0.00000  Uiso   1.00
F1212  F     0.53762   0.09916   0.83199   0.00000  Uiso   1.00
F1213  F     0.96276   0.40042   0.83305   0.00000  Uiso   1.00
F1214  F     0.85246   0.28520   0.83279   0.00000  Uiso   1.00
F1215  F     0.64780   0.21474   0.83352   0.00000  Uiso   1.00
F1216  F     0.70032   0.36110   0.78277   0.00000  Uiso   1.00
H1217  H     0.97864   0.34835   0.71894   0.00000  Uiso   1.00
H1218  H     0.53108   0.11521   0.69555   0.00000  Uiso   1.00
H1219  H     0.53083   0.12955   0.75343   0.00000  Uiso   1.00
H1220  H     0.56027   0.16467   0.71461   0.00000  Uiso   1.00
H1221  H     0.53552   0.34775   0.95666   0.00000  Uiso   1.00
H1222  H     0.96558   0.37868   0.98296   0.00000  Uiso   1.00
H1223  H     0.93701   0.33654   0.94988   0.00000  Uiso   1.00
H1224  H     0.96780   0.38038   0.92291   0.00000  Uiso   1.00
H1225  H     0.72860   0.09837   0.71888   0.00000  Uiso   1.00
H1226  H     0.79257   0.13512   0.69019   0.00000  Uiso   1.00
H1227  H     0.82584   0.08514   0.70051   0.00000  Uiso   1.00
H1228  H     0.54258   0.38513   0.69019   0.00000  Uiso   1.00
H1229  H     0.80624   0.11978   0.74632   0.00000  Uiso   1.00
H1230  H     0.70124   0.40741   0.96235   0.00000  Uiso   1.00
H1231  H     0.75920   0.35757   0.95749   0.00000  Uiso   1.00
H1232  H     0.79821   0.40265   0.94768   0.00000  Uiso   1.00
H1233  H     0.76230   0.38239   0.90358   0.00000  Uiso   1.00
H1234  H     0.71320   0.40074   0.70484   0.00000  Uiso   1.00
H1235  H     0.78141   0.36545   0.69533   0.00000  Uiso   1.00
H1236  H     0.78090   0.37939   0.75331   0.00000  Uiso   1.00
H1237  H     0.81037   0.41487   0.71485   0.00000  Uiso   1.00
H1238  H     0.78552   0.09775   0.95666   0.00000  Uiso   1.00
H1239  H     0.57586   0.33515   0.70045   0.00000  Uiso   1.00
H1240  H     0.71561   0.12874   0.98290   0.00000  Uiso   1.00
H1241  H     0.68701   0.08654   0.94993   0.00000  Uiso   1.00
H1242  H     0.71778   0.13033   0.92286   0.00000  Uiso   1.00
H1243  H     0.55630   0.36976   0.74629   0.00000  Uiso   1.00
H1244  H     0.95127   0.15739   0.96231   0.00000  Uiso   1.00
H1245  H     0.50926   0.10758   0.95754   0.00000  Uiso   1.00
H1246  H     0.54826   0.15266   0.94779   0.00000  Uiso   1.00
H1247  H     0.51243   0.13238   0.90363   0.00000  Uiso   1.00
H1248  H     0.96306   0.15081   0.70486   0.00000  Uiso   1.00
N1249  N     0.50000   0.25000   0.95240   0.00000  Uiso   1.00
N1250  N     0.73036   0.42177   0.95180   0.00000  Uiso   1.00
N1251  N     0.74004   0.41989   0.71399   0.00000  Uiso   1.00
N1252  N     0.75676   0.08007   0.95190   0.00000  Uiso   1.00
N1253  N     0.50000   0.25000   0.71427   0.00000  Uiso   1.00
N1254  N     0.75000   0.00000   0.95240   0.00000  Uiso   1.00
N1255  N     0.75000   0.00000   0.71427   0.00000  Uiso   1.00
N1256  N     0.50755   0.33009   0.71618   0.00000  Uiso   1.00
N1257  N     0.98040   0.17176   0.95179   0.00000  Uiso   1.00
N1258  N     0.98994   0.16990   0.71399   0.00000  Uiso   1.00
N1259  N     0.50676   0.33007   0.95190   0.00000  Uiso   1.00
N1260  N     0.75751   0.08010   0.71617   0.00000  Uiso   1.00
O1261  O     0.54580   0.20419   0.87154   0.00000  Uiso   1.00
O1262  O     0.70419   0.04581   0.79513   0.00000  Uiso   1.00
O1263  O     0.70419   0.04581   0.87154   0.00000  Uiso   1.00
O1264  O     0.79580   0.45419   0.79513   0.00000  Uiso   1.00
O1265  O     0.70419   0.45419   0.79513   0.00000  Uiso   1.00
O1266  O     0.79580   0.04581   0.87154   0.00000  Uiso   1.00
O1267  O     0.79580   0.04581   0.79513   0.00000  Uiso   1.00
O1268  O     0.70419   0.45419   0.87154   0.00000  Uiso   1.00
O1269  O     0.95419   0.29581   0.79513   0.00000  Uiso   1.00
O1270  O     0.95419   0.29581   0.87154   0.00000  Uiso   1.00
O1271  O     0.54580   0.20419   0.79513   0.00000  Uiso   1.00
O1272  O     0.95419   0.20419   0.79513   0.00000  Uiso   1.00
O1273  O     0.54580   0.29581   0.87154   0.00000  Uiso   1.00
O1274  O     0.54580   0.29581   0.79513   0.00000  Uiso   1.00
O1275  O     0.95419   0.20419   0.87154   0.00000  Uiso   1.00
O1276  O     0.79580   0.45419   0.87154   0.00000  Uiso   1.00
Zn1277 Zn    0.50000   0.25000   0.88437   0.00000  Uiso   1.00
Zn1278 Zn    0.50000   0.25000   0.78229   0.00000  Uiso   1.00
Zn1279 Zn    0.75000   0.00000   0.88437   0.00000  Uiso   1.00
Zn1280 Zn    0.75000   0.00000   0.78229   0.00000  Uiso   1.00
C1281  C     0.05965   0.68991   0.83321   0.00000  Uiso   1.00
C1282  C     0.49326   0.71104   0.97569   0.00000  Uiso   1.00
C1283  C     0.49457   0.71086   0.69038   0.00000  Uiso   1.00
C1284  C     0.00425   0.78936   0.97618   0.00000  Uiso   1.00
C1285  C     0.25482   0.53934   0.69117   0.00000  Uiso   1.00
C1286  C     0.24326   0.96104   0.97569   0.00000  Uiso   1.00
C1287  C     0.24459   0.96086   0.69038   0.00000  Uiso   1.00
C1288  C     0.25424   0.53936   0.97618   0.00000  Uiso   1.00
C1289  C     0.41289   0.61825   0.80695   0.00000  Uiso   1.00
C1290  C     0.08713   0.88169   0.85967   0.00000  Uiso   1.00
C1291  C     0.13042   0.83617   0.80685   0.00000  Uiso   1.00
C1292  C     0.44044   0.81011   0.83345   0.00000  Uiso   1.00
C1293  C     0.36968   0.66369   0.85990   0.00000  Uiso   1.00
C1294  C     0.08070   0.61171   0.83283   0.00000  Uiso   1.00
C1295  C     0.41956   0.88817   0.83338   0.00000  Uiso   1.00
C1296  C     0.36335   0.82944   0.83319   0.00000  Uiso   1.00
C1297  C     0.13689   0.67051   0.83329   0.00000  Uiso   1.00
C1298  C     0.16289   0.86825   0.80695   0.00000  Uiso   1.00
C1299  C     0.33712   0.63169   0.85967   0.00000  Uiso   1.00
C1300  C     0.38042   0.58617   0.80686   0.00000  Uiso   1.00
C1301  C     0.11968   0.91368   0.85991   0.00000  Uiso   1.00
C1302  C     0.33070   0.86171   0.83281   0.00000  Uiso   1.00
C1303  C     0.44034   0.68988   0.83329   0.00000  Uiso   1.00
C1304  C     0.16956   0.63818   0.83336   0.00000  Uiso   1.00
C1305  C     0.11335   0.57943   0.83321   0.00000  Uiso   1.00
C1306  C     0.38689   0.92051   0.83332   0.00000  Uiso   1.00
C1307  C     0.09292   0.84306   0.83342   0.00000  Uiso   1.00
C1308  C     0.40719   0.65681   0.83333   0.00000  Uiso   1.00
C1309  C     0.40731   0.84309   0.83362   0.00000  Uiso   1.00
C1310  C     0.09286   0.65688   0.83299   0.00000  Uiso   1.00
C1311  C     0.34291   0.59306   0.83342   0.00000  Uiso   1.00
C1312  C     0.15719   0.90681   0.83333   0.00000  Uiso   1.00
C1313  C     0.15732   0.59309   0.83362   0.00000  Uiso   1.00
C1314  C     0.05972   0.81005   0.83339   0.00000  Uiso   1.00
C1315  C     0.34286   0.90688   0.83299   0.00000  Uiso   1.00
C1316  C     0.04773   0.85609   0.71275   0.00000  Uiso   1.00
C1317  C     0.01469   0.63977   0.93992   0.00000  Uiso   1.00
C1318  C     0.03019   0.64388   0.71937   0.00000  Uiso   1.00
C1319  C     0.46717   0.85762   0.95218   0.00000  Uiso   1.00
C1320  C     0.29770   0.60609   0.71277   0.00000  Uiso   1.00
C1321  C     0.26462   0.88977   0.93986   0.00000  Uiso   1.00
C1322  C     0.28034   0.89394   0.71935   0.00000  Uiso   1.00
C1323  C     0.21717   0.60762   0.95216   0.00000  Uiso   1.00
C1324  C     0.30965   0.93991   0.83321   0.00000  Uiso   1.00
C1325  C     0.19044   0.56011   0.83345   0.00000  Uiso   1.00
C1326  C     0.19034   0.93988   0.83329   0.00000  Uiso   1.00
C1327  C     0.30972   0.56005   0.83339   0.00000  Uiso   1.00
C1328  C     0.00484   0.78933   0.69117   0.00000  Uiso   1.00
F1329  F     0.45032   0.61109   0.78279   0.00000  Uiso   1.00
F1330  F     0.29946   0.63904   0.88343   0.00000  Uiso   1.00
F1331  F     0.38577   0.54821   0.78175   0.00000  Uiso   1.00
F1332  F     0.11429   0.95168   0.88494   0.00000  Uiso   1.00
F1333  F     0.28762   0.84917   0.83195   0.00000  Uiso   1.00
F1334  F     0.21276   0.65042   0.83301   0.00000  Uiso   1.00
F1335  F     0.10246   0.53520   0.83283   0.00000  Uiso   1.00
F1336  F     0.39780   0.96474   0.83356   0.00000  Uiso   1.00
F1337  F     0.04947   0.88904   0.88344   0.00000  Uiso   1.00
F1338  F     0.13576   0.79822   0.78174   0.00000  Uiso   1.00
F1339  F     0.36428   0.70169   0.88493   0.00000  Uiso   1.00
F1340  F     0.03762   0.59916   0.83199   0.00000  Uiso   1.00
F1341  F     0.46276   0.90042   0.83305   0.00000  Uiso   1.00
F1342  F     0.35246   0.78520   0.83279   0.00000  Uiso   1.00
F1343  F     0.14780   0.71474   0.83352   0.00000  Uiso   1.00
F1344  F     0.20032   0.86110   0.78277   0.00000  Uiso   1.00
H1345  H     0.47864   0.84835   0.71894   0.00000  Uiso   1.00
H1346  H     0.03108   0.61521   0.69555   0.00000  Uiso   1.00
H1347  H     0.03083   0.62955   0.75343   0.00000  Uiso   1.00
H1348  H     0.06027   0.66467   0.71461   0.00000  Uiso   1.00
H1349  H     0.03552   0.84775   0.95666   0.00000  Uiso   1.00
H1350  H     0.46558   0.87868   0.98296   0.00000  Uiso   1.00
H1351  H     0.43701   0.83654   0.94988   0.00000  Uiso   1.00
H1352  H     0.46780   0.88038   0.92291   0.00000  Uiso   1.00
H1353  H     0.22860   0.59837   0.71888   0.00000  Uiso   1.00
H1354  H     0.29257   0.63512   0.69019   0.00000  Uiso   1.00
H1355  H     0.32584   0.58514   0.70051   0.00000  Uiso   1.00
H1356  H     0.04258   0.88513   0.69019   0.00000  Uiso   1.00
H1357  H     0.30624   0.61978   0.74632   0.00000  Uiso   1.00
H1358  H     0.20124   0.90741   0.96235   0.00000  Uiso   1.00
H1359  H     0.25920   0.85757   0.95749   0.00000  Uiso   1.00
H1360  H     0.29821   0.90265   0.94768   0.00000  Uiso   1.00
H1361  H     0.26230   0.88239   0.90358   0.00000  Uiso   1.00
H1362  H     0.21320   0.90074   0.70484   0.00000  Uiso   1.00
H1363  H     0.28141   0.86545   0.69533   0.00000  Uiso   1.00
H1364  H     0.28090   0.87939   0.75331   0.00000  Uiso   1.00
H1365  H     0.31037   0.91487   0.71485   0.00000  Uiso   1.00
H1366  H     0.28552   0.59775   0.95666   0.00000  Uiso   1.00
H1367  H     0.07586   0.83515   0.70045   0.00000  Uiso   1.00
H1368  H     0.21561   0.62874   0.98290   0.00000  Uiso   1.00
H1369  H     0.18701   0.58654   0.94993   0.00000  Uiso   1.00
H1370  H     0.21778   0.63033   0.92286   0.00000  Uiso   1.00
H1371  H     0.05630   0.86976   0.74629   0.00000  Uiso   1.00
H1372  H     0.45127   0.65739   0.96231   0.00000  Uiso   1.00
H1373  H     0.00926   0.60758   0.95754   0.00000  Uiso   1.00
H1374  H     0.04826   0.65266   0.94779   0.00000  Uiso   1.00
H1375  H     0.01243   0.63238   0.90363   0.00000  Uiso   1.00
H1376  H     0.46306   0.65081   0.70486   0.00000  Uiso   1.00
N1377  N     0.00000   0.75000   0.95240   0.00000  Uiso   1.00
N1378  N     0.23036   0.92177   0.95180   0.00000  Uiso   1.00
N1379  N     0.24004   0.91989   0.71399   0.00000  Uiso   1.00
N1380  N     0.25676   0.58007   0.95190   0.00000  Uiso   1.00
N1381  N     0.00000   0.75000   0.71427   0.00000  Uiso   1.00
N1382  N     0.25000   0.50000   0.95240   0.00000  Uiso   1.00
N1383  N     0.25000   0.50000   0.71427   0.00000  Uiso   1.00
N1384  N     0.00755   0.83009   0.71618   0.00000  Uiso   1.00
N1385  N     0.48040   0.67176   0.95179   0.00000  Uiso   1.00
N1386  N     0.48994   0.66990   0.71399   0.00000  Uiso   1.00
N1387  N     0.00676   0.83007   0.95190   0.00000  Uiso   1.00
N1388  N     0.25751   0.58010   0.71617   0.00000  Uiso   1.00
O1389  O     0.04580   0.70419   0.87154   0.00000  Uiso   1.00
O1390  O     0.20419   0.54581   0.79513   0.00000  Uiso   1.00
O1391  O     0.20419   0.54581   0.87154   0.00000  Uiso   1.00
O1392  O     0.29580   0.95419   0.79513   0.00000  Uiso   1.00
O1393  O     0.20419   0.95419   0.79513   0.00000  Uiso   1.00
O1394  O     0.29580   0.54581   0.87154   0.00000  Uiso   1.00
O1395  O     0.29580   0.54581   0.79513   0.00000  Uiso   1.00
O1396  O     0.20419   0.95419   0.87154   0.00000  Uiso   1.00
O1397  O     0.45419   0.79581   0.79513   0.00000  Uiso   1.00
O1398  O     0.45419   0.79581   0.87154   0.00000  Uiso   1.00
O1399  O     0.04580   0.70419   0.79513   0.00000  Uiso   1.00
O1400  O     0.45419   0.70419   0.79513   0.00000  Uiso   1.00
O1401  O     0.04580   0.79581   0.87154   0.00000  Uiso   1.00
O1402  O     0.04580   0.79581   0.79513   0.00000  Uiso   1.00
O1403  O     0.45419   0.70419   0.87154   0.00000  Uiso   1.00
O1404  O     0.29580   0.95419   0.87154   0.00000  Uiso   1.00
Zn1405 Zn    0.00000   0.75000   0.88437   0.00000  Uiso   1.00
Zn1406 Zn    0.00000   0.75000   0.78229   0.00000  Uiso   1.00
Zn1407 Zn    0.25000   0.50000   0.88437   0.00000  Uiso   1.00
Zn1408 Zn    0.25000   0.50000   0.78229   0.00000  Uiso   1.00
C1409  C     0.55965   0.68991   0.83321   0.00000  Uiso   1.00
C1410  C     0.99326   0.71104   0.97569   0.00000  Uiso   1.00
C1411  C     0.99457   0.71086   0.69038   0.00000  Uiso   1.00
C1412  C     0.50425   0.78936   0.97618   0.00000  Uiso   1.00
C1413  C     0.75482   0.53934   0.69117   0.00000  Uiso   1.00
C1414  C     0.74326   0.96104   0.97569   0.00000  Uiso   1.00
C1415  C     0.74459   0.96086   0.69038   0.00000  Uiso   1.00
C1416  C     0.75424   0.53936   0.97618   0.00000  Uiso   1.00
C1417  C     0.91289   0.61825   0.80695   0.00000  Uiso   1.00
C1418  C     0.58713   0.88169   0.85967   0.00000  Uiso   1.00
C1419  C     0.63042   0.83617   0.80685   0.00000  Uiso   1.00
C1420  C     0.94044   0.81011   0.83345   0.00000  Uiso   1.00
C1421  C     0.86968   0.66369   0.85990   0.00000  Uiso   1.00
C1422  C     0.58070   0.61171   0.83283   0.00000  Uiso   1.00
C1423  C     0.91956   0.88817   0.83338   0.00000  Uiso   1.00
C1424  C     0.86335   0.82944   0.83319   0.00000  Uiso   1.00
C1425  C     0.63689   0.67051   0.83329   0.00000  Uiso   1.00
C1426  C     0.66289   0.86825   0.80695   0.00000  Uiso   1.00
C1427  C     0.83712   0.63169   0.85967   0.00000  Uiso   1.00
C1428  C     0.88042   0.58617   0.80686   0.00000  Uiso   1.00
C1429  C     0.61968   0.91368   0.85991   0.00000  Uiso   1.00
C1430  C     0.83070   0.86171   0.83281   0.00000  Uiso   1.00
C1431  C     0.94034   0.68988   0.83329   0.00000  Uiso   1.00
C1432  C     0.66956   0.63818   0.83336   0.00000  Uiso   1.00
C1433  C     0.61335   0.57943   0.83321   0.00000  Uiso   1.00
C1434  C     0.88689   0.92051   0.83332   0.00000  Uiso   1.00
C1435  C     0.59292   0.84306   0.83342   0.00000  Uiso   1.00
C1436  C     0.90719   0.65681   0.83333   0.00000  Uiso   1.00
C1437  C     0.90731   0.84309   0.83362   0.00000  Uiso   1.00
C1438  C     0.59286   0.65688   0.83299   0.00000  Uiso   1.00
C1439  C     0.84291   0.59306   0.83342   0.00000  Uiso   1.00
C1440  C     0.65719   0.90681   0.83333   0.00000  Uiso   1.00
C1441  C     0.65732   0.59309   0.83362   0.00000  Uiso   1.00
C1442  C     0.55972   0.81005   0.83339   0.00000  Uiso   1.00
C1443  C     0.84286   0.90688   0.83299   0.00000  Uiso   1.00
C1444  C     0.54773   0.85609   0.71275   0.00000  Uiso   1.00
C1445  C     0.51469   0.63977   0.93992   0.00000  Uiso   1.00
C1446  C     0.53019   0.64388   0.71937   0.00000  Uiso   1.00
C1447  C     0.96717   0.85762   0.95218   0.00000  Uiso   1.00
C1448  C     0.79770   0.60609   0.71277   0.00000  Uiso   1.00
C1449  C     0.76462   0.88977   0.93986   0.00000  Uiso   1.00
C1450  C     0.78034   0.89394   0.71935   0.00000  Uiso   1.00
C1451  C     0.71717   0.60762   0.95216   0.00000  Uiso   1.00
C1452  C     0.80965   0.93991   0.83321   0.00000  Uiso   1.00
C1453  C     0.69044   0.56011   0.83345   0.00000  Uiso   1.00
C1454  C     0.69034   0.93988   0.83329   0.00000  Uiso   1.00
C1455  C     0.80972   0.56005   0.83339   0.00000  Uiso   1.00
C1456  C     0.50484   0.78933   0.69117   0.00000  Uiso   1.00
F1457  F     0.95032   0.61109   0.78279   0.00000  Uiso   1.00
F1458  F     0.79946   0.63904   0.88343   0.00000  Uiso   1.00
F1459  F     0.88577   0.54821   0.78175   0.00000  Uiso   1.00
F1460  F     0.61429   0.95168   0.88494   0.00000  Uiso   1.00
F1461  F     0.78762   0.84917   0.83195   0.00000  Uiso   1.00
F1462  F     0.71276   0.65042   0.83301   0.00000  Uiso   1.00
F1463  F     0.60246   0.53520   0.83283   0.00000  Uiso   1.00
F1464  F     0.89780   0.96474   0.83356   0.00000  Uiso   1.00
F1465  F     0.54947   0.88904   0.88344   0.00000  Uiso   1.00
F1466  F     0.63576   0.79822   0.78174   0.00000  Uiso   1.00
F1467  F     0.86428   0.70169   0.88493   0.00000  Uiso   1.00
F1468  F     0.53762   0.59916   0.83199   0.00000  Uiso   1.00
F1469  F     0.96276   0.90042   0.83305   0.00000  Uiso   1.00
F1470  F     0.85246   0.78520   0.83279   0.00000  Uiso   1.00
F1471  F     0.64780   0.71474   0.83352   0.00000  Uiso   1.00
F1472  F     0.70032   0.86110   0.78277   0.00000  Uiso   1.00
H1473  H     0.97864   0.84835   0.71894   0.00000  Uiso   1.00
H1474  H     0.53108   0.61521   0.69555   0.00000  Uiso   1.00
H1475  H     0.53083   0.62955   0.75343   0.00000  Uiso   1.00
H1476  H     0.56027   0.66467   0.71461   0.00000  Uiso   1.00
H1477  H     0.53552   0.84775   0.95666   0.00000  Uiso   1.00
H1478  H     0.96558   0.87868   0.98296   0.00000  Uiso   1.00
H1479  H     0.93701   0.83654   0.94988   0.00000  Uiso   1.00
H1480  H     0.96780   0.88038   0.92291   0.00000  Uiso   1.00
H1481  H     0.72860   0.59837   0.71888   0.00000  Uiso   1.00
H1482  H     0.79257   0.63512   0.69019   0.00000  Uiso   1.00
H1483  H     0.82584   0.58514   0.70051   0.00000  Uiso   1.00
H1484  H     0.54258   0.88513   0.69019   0.00000  Uiso   1.00
H1485  H     0.80624   0.61978   0.74632   0.00000  Uiso   1.00
H1486  H     0.70124   0.90741   0.96235   0.00000  Uiso   1.00
H1487  H     0.75920   0.85757   0.95749   0.00000  Uiso   1.00
H1488  H     0.79821   0.90265   0.94768   0.00000  Uiso   1.00
H1489  H     0.76230   0.88239   0.90358   0.00000  Uiso   1.00
H1490  H     0.71320   0.90074   0.70484   0.00000  Uiso   1.00
H1491  H     0.78141   0.86545   0.69533   0.00000  Uiso   1.00
H1492  H     0.78090   0.87939   0.75331   0.00000  Uiso   1.00
H1493  H     0.81037   0.91487   0.71485   0.00000  Uiso   1.00
H1494  H     0.78552   0.59775   0.95666   0.00000  Uiso   1.00
H1495  H     0.57586   0.83515   0.70045   0.00000  Uiso   1.00
H1496  H     0.71561   0.62874   0.98290   0.00000  Uiso   1.00
H1497  H     0.68701   0.58654   0.94993   0.00000  Uiso   1.00
H1498  H     0.71778   0.63033   0.92286   0.00000  Uiso   1.00
H1499  H     0.55630   0.86976   0.74629   0.00000  Uiso   1.00
H1500  H     0.95127   0.65739   0.96231   0.00000  Uiso   1.00
H1501  H     0.50926   0.60758   0.95754   0.00000  Uiso   1.00
H1502  H     0.54826   0.65266   0.94779   0.00000  Uiso   1.00
H1503  H     0.51243   0.63238   0.90363   0.00000  Uiso   1.00
H1504  H     0.96306   0.65081   0.70486   0.00000  Uiso   1.00
N1505  N     0.50000   0.75000   0.95240   0.00000  Uiso   1.00
N1506  N     0.73036   0.92177   0.95180   0.00000  Uiso   1.00
N1507  N     0.74004   0.91989   0.71399   0.00000  Uiso   1.00
N1508  N     0.75676   0.58007   0.95190   0.00000  Uiso   1.00
N1509  N     0.50000   0.75000   0.71427   0.00000  Uiso   1.00
N1510  N     0.75000   0.50000   0.95240   0.00000  Uiso   1.00
N1511  N     0.75000   0.50000   0.71427   0.00000  Uiso   1.00
N1512  N     0.50755   0.83009   0.71618   0.00000  Uiso   1.00
N1513  N     0.98040   0.67176   0.95179   0.00000  Uiso   1.00
N1514  N     0.98994   0.66990   0.71399   0.00000  Uiso   1.00
N1515  N     0.50676   0.83007   0.95190   0.00000  Uiso   1.00
N1516  N     0.75751   0.58010   0.71617   0.00000  Uiso   1.00
O1517  O     0.54580   0.70419   0.87154   0.00000  Uiso   1.00
O1518  O     0.70419   0.54581   0.79513   0.00000  Uiso   1.00
O1519  O     0.70419   0.54581   0.87154   0.00000  Uiso   1.00
O1520  O     0.79580   0.95419   0.79513   0.00000  Uiso   1.00
O1521  O     0.70419   0.95419   0.79513   0.00000  Uiso   1.00
O1522  O     0.79580   0.54581   0.87154   0.00000  Uiso   1.00
O1523  O     0.79580   0.54581   0.79513   0.00000  Uiso   1.00
O1524  O     0.70419   0.95419   0.87154   0.00000  Uiso   1.00
O1525  O     0.95419   0.79581   0.79513   0.00000  Uiso   1.00
O1526  O     0.95419   0.79581   0.87154   0.00000  Uiso   1.00
O1527  O     0.54580   0.70419   0.79513   0.00000  Uiso   1.00
O1528  O     0.95419   0.70419   0.79513   0.00000  Uiso   1.00
O1529  O     0.54580   0.79581   0.87154   0.00000  Uiso   1.00
O1530  O     0.54580   0.79581   0.79513   0.00000  Uiso   1.00
O1531  O     0.95419   0.70419   0.87154   0.00000  Uiso   1.00
O1532  O     0.79580   0.95419   0.87154   0.00000  Uiso   1.00
Zn1533 Zn    0.50000   0.75000   0.88437   0.00000  Uiso   1.00
Zn1534 Zn    0.50000   0.75000   0.78229   0.00000  Uiso   1.00
Zn1535 Zn    0.75000   0.50000   0.88437   0.00000  Uiso   1.00
Zn1536 Zn    0.75000   0.50000   0.78229   0.00000  Uiso   1.00
loop_
_geom_bond_atom_site_label_1
_geom_bond_atom_site_label_2
_geom_bond_distance
_geom_bond_site_symmetry_2
_ccdc_geom_bond_type
C1     O119    1.285   .     A
C1     O109    1.285   .     A
C1     C30     1.402   .     S
C2     N105    1.421   .     S
C2     C515    1.433   .     S
C2     N225    1.372   .     S
C3     N106    1.419   .     S
C3     C1026   1.433   1_554 S
C3     N229    1.371   .     S
C4     N97     1.371   .     A
C4     N107    1.418   .     S
C4     C560    1.441   .     S
C5     N103    1.371   .     A
C5     N108    1.422   .     S
C5     C1032   1.441   1_554 S
C6     N98     1.421   .     S
C6     C519    1.433   .     S
C6     N358    1.372   .     S
C7     N99     1.419   .     S
C7     C1030   1.433   1_554 S
C7     N359    1.371   .     S
C8     N100    1.418   .     S
C8     N102    1.371   .     A
C8     C517    1.441   .     S
C9     C20     1.373   .     A
C9     F49     1.356   .     S
C9     C28     1.396   .     A
C10    C27     1.396   .     A
C10    F57     1.357   .     S
C10    C21     1.373   .     A
C11    C18     1.373   .     A
C11    F58     1.359   .     S
C11    C27     1.396   .     A
C12    C29     1.399   .     S
C12    O118    1.285   .     A
C12    O117    1.284   .     A
C13    C28     1.396   .     A
C13    C19     1.373   .     A
C13    F59     1.359   .     S
C14    C30     1.395   .     A
C14    F60     1.358   .     S
C14    C25     1.374   .     A
C15    C29     1.394   .     A
C15    C26     1.376   .     A
C15    F61     1.359   .     S
C16    F62     1.359   .     S
C16    C22     1.374   .     A
C16    C29     1.393   .     A
C17    C30     1.394   .     A
C17    C24     1.376   .     A
C17    F63     1.358   .     S
C18    C32     1.396   .     A
C18    F64     1.356   .     S
C19    C31     1.396   .     A
C19    F50     1.357   .     S
C20    F51     1.359   .     S
C20    C31     1.396   .     A
C21    C32     1.396   .     A
C21    F52     1.359   .     S
C22    C35     1.395   .     A
C22    F53     1.358   .     S
C23    O120    1.288   .     A
C23    O123    1.286   .     A
C23    C28     1.409   .     S
C24    F54     1.359   .     S
C24    C33     1.394   .     A
C25    F55     1.359   .     S
C25    C33     1.393   .     A
C26    C35     1.394   .     A
C26    F56     1.358   .     S
C27    C34     1.409   .     S
C31    C47     1.409   .     S
C32    C46     1.409   .     S
C33    C45     1.399   .     S
C34    O121    1.288   .     A
C34    O122    1.286   .     A
C35    C44     1.402   .     S
C36    H76     1.110   .     S
C36    H87     1.112   .     S
C36    H91     1.108   .     S
C36    N104    1.448   .     S
C37    H95     1.105   .     S
C37    H93     1.109   .     S
C37    H94     1.112   .     S
C37    N233    1.446   1_455 S
C38    H66     1.106   .     S
C38    H68     1.113   .     S
C38    H67     1.104   .     S
C38    N234    1.449   1_455 S
C39    H72     1.109   .     S
C39    H70     1.108   .     S
C39    H71     1.112   .     S
C39    N235    1.448   .     S
C40    N108    1.448   .     S
C40    H77     1.108   .     S
C40    H75     1.112   .     S
C40    H74     1.110   .     S
C41    H80     1.112   .     S
C41    H81     1.105   .     S
C41    H79     1.109   .     S
C41    N98     1.446   .     S
C42    H84     1.104   .     S
C42    H85     1.113   .     S
C42    H83     1.106   .     S
C42    N99     1.449   .     S
C43    H89     1.112   .     S
C43    H88     1.108   .     S
C43    H90     1.109   .     S
C43    N100    1.448   .     S
C44    O124    1.285   .     A
C44    O112    1.285   .     A
C45    O110    1.284   .     A
C45    O111    1.285   .     A
C46    O113    1.288   .     A
C46    O116    1.286   .     A
C47    O114    1.288   .     A
C47    O115    1.286   .     A
C48    N104    1.422   .     S
C48    N101    1.371   .     A
C48    C1028   1.441   1_554 S
H65    N232    1.030   .     S
H69    N107    1.029   .     S
H73    N108    1.030   .     S
H78    N98     1.031   .     S
H82    N99     1.030   .     S
H86    N100    1.029   .     S
H92    N105    1.031   .     S
H96    N106    1.030   .     S
N97    Zn125   2.028   .     S
N97    C130    1.372   1_455 S
N101   Zn126   2.028   .     S
N101   C131    1.371   1_455 S
N102   Zn127   2.028   .     S
N102   C262    1.372   1_545 S
N103   Zn128   2.028   .     S
N103   C263    1.371   1_545 S
N104   H193    1.030   1_455 S
N105   C165    1.446   .     S
N106   C166    1.449   .     S
N107   C167    1.448   1_455 S
O109   Zn125   1.973   .     S
O110   Zn128   1.973   .     S
O111   Zn127   1.978   .     S
O112   Zn384   1.978   .     S
O113   Zn384   1.988   .     S
O114   Zn127   1.988   .     S
O115   Zn128   1.985   .     S
O116   Zn383   1.985   .     S
O117   Zn254   1.973   .     S
O118   Zn253   1.978   .     S
O119   Zn126   1.978   .     S
O120   Zn254   1.988   .     S
O121   Zn125   1.988   .     S
O122   Zn126   1.985   .     S
O123   Zn253   1.985   .     S
O124   Zn383   1.973   .     S
Zn125  O251    1.985   1_455 S
Zn125  O246    1.978   1_455 S
Zn126  O248    1.988   1_455 S
Zn126  O245    1.973   1_455 S
Zn127  O372    1.985   1_545 S
Zn127  O380    1.973   1_545 S
Zn128  O369    1.988   1_545 S
Zn128  O368    1.978   1_545 S
C129   O247    1.285   .     A
C129   O237    1.285   .     A
C129   C158    1.402   .     S
C130   N233    1.421   .     S
C130   C643    1.433   .     S
C130   N97     1.372   1_655 S
C131   N234    1.419   .     S
C131   C1154   1.433   1_554 S
C131   N101    1.371   1_655 S
C132   N225    1.371   .     A
C132   N235    1.418   .     S
C132   C688    1.441   .     S
C133   N231    1.371   .     A
C133   N236    1.422   .     S
C133   C1160   1.441   1_554 S
C134   N226    1.421   .     S
C134   C647    1.433   .     S
C134   N486    1.372   .     S
C135   N227    1.419   .     S
C135   C1158   1.433   1_554 S
C135   N487    1.371   .     S
C136   N228    1.418   .     S
C136   N230    1.371   .     A
C136   C645    1.441   .     S
C137   C148    1.373   .     A
C137   F177    1.356   .     S
C137   C156    1.396   .     A
C138   C155    1.396   .     A
C138   F185    1.357   .     S
C138   C149    1.373   .     A
C139   C146    1.373   .     A
C139   F186    1.359   .     S
C139   C155    1.396   .     A
C140   C157    1.399   .     S
C140   O246    1.285   .     A
C140   O245    1.284   .     A
C141   C156    1.396   .     A
C141   C147    1.373   .     A
C141   F187    1.359   .     S
C142   C158    1.395   .     A
C142   F188    1.358   .     S
C142   C153    1.374   .     A
C143   C157    1.394   .     A
C143   C154    1.376   .     A
C143   F189    1.359   .     S
C144   F190    1.359   .     S
C144   C150    1.374   .     A
C144   C157    1.393   .     A
C145   C158    1.394   .     A
C145   C152    1.376   .     A
C145   F191    1.358   .     S
C146   C160    1.396   .     A
C146   F192    1.356   .     S
C147   C159    1.396   .     A
C147   F178    1.357   .     S
C148   F179    1.359   .     S
C148   C159    1.396   .     A
C149   C160    1.396   .     A
C149   F180    1.359   .     S
C150   C163    1.395   .     A
C150   F181    1.358   .     S
C151   O248    1.288   .     A
C151   O251    1.286   .     A
C151   C156    1.409   .     S
C152   F182    1.359   .     S
C152   C161    1.394   .     A
C153   F183    1.359   .     S
C153   C161    1.393   .     A
C154   C163    1.394   .     A
C154   F184    1.358   .     S
C155   C162    1.409   .     S
C159   C175    1.409   .     S
C160   C174    1.409   .     S
C161   C173    1.399   .     S
C162   O249    1.288   .     A
C162   O250    1.286   .     A
C163   C172    1.402   .     S
C164   H204    1.110   .     S
C164   H215    1.112   .     S
C164   H219    1.108   .     S
C164   N232    1.448   .     S
C165   H223    1.105   .     S
C165   H221    1.109   .     S
C165   H222    1.112   .     S
C166   H194    1.106   .     S
C166   H196    1.113   .     S
C166   H195    1.104   .     S
C167   H200    1.109   .     S
C167   H198    1.108   .     S
C167   H199    1.112   .     S
C167   N107    1.448   1_655 S
C168   N236    1.448   .     S
C168   H205    1.108   .     S
C168   H203    1.112   .     S
C168   H202    1.110   .     S
C169   H208    1.112   .     S
C169   H209    1.105   .     S
C169   H207    1.109   .     S
C169   N226    1.446   .     S
C170   H212    1.104   .     S
C170   H213    1.113   .     S
C170   H211    1.106   .     S
C170   N227    1.449   .     S
C171   H217    1.112   .     S
C171   H216    1.108   .     S
C171   H218    1.109   .     S
C171   N228    1.448   .     S
C172   O252    1.285   .     A
C172   O240    1.285   .     A
C173   O238    1.284   .     A
C173   O239    1.285   .     A
C174   O241    1.288   .     A
C174   O244    1.286   .     A
C175   O242    1.288   .     A
C175   O243    1.286   .     A
C176   N232    1.422   .     S
C176   N229    1.371   .     A
C176   C1156   1.441   1_554 S
H193   N104    1.030   1_655 S
H197   N235    1.029   .     S
H201   N236    1.030   .     S
H206   N226    1.031   .     S
H210   N227    1.030   .     S
H214   N228    1.029   .     S
H220   N233    1.031   .     S
H224   N234    1.030   .     S
N225   Zn253   2.028   .     S
N229   Zn254   2.028   .     S
N230   Zn255   2.028   .     S
N230   C390    1.372   1_545 S
N231   Zn256   2.028   .     S
N231   C391    1.371   1_545 S
N233   C37     1.446   1_655 S
N234   C38     1.449   1_655 S
O237   Zn253   1.973   .     S
O238   Zn256   1.973   .     S
O239   Zn255   1.978   .     S
O240   Zn512   1.978   .     S
O241   Zn512   1.988   .     S
O242   Zn255   1.988   .     S
O243   Zn256   1.985   .     S
O244   Zn511   1.985   .     S
O245   Zn126   1.973   1_655 S
O246   Zn125   1.978   1_655 S
O247   Zn254   1.978   .     S
O248   Zn126   1.988   1_655 S
O249   Zn253   1.988   .     S
O250   Zn254   1.985   .     S
O251   Zn125   1.985   1_655 S
O252   Zn511   1.973   .     S
Zn255  O500    1.985   1_545 S
Zn255  O508    1.973   1_545 S
Zn256  O497    1.988   1_545 S
Zn256  O496    1.978   1_545 S
C257   O375    1.285   .     A
C257   O365    1.285   .     A
C257   C286    1.402   .     S
C258   N361    1.421   .     S
C258   C771    1.433   .     S
C258   N481    1.372   .     S
C259   N362    1.419   .     S
C259   C1282   1.433   1_554 S
C259   N485    1.371   .     S
C260   N353    1.371   .     A
C260   N363    1.418   .     S
C260   C816    1.441   .     S
C261   N359    1.371   .     A
C261   N364    1.422   .     S
C261   C1288   1.441   1_554 S
C262   N354    1.421   .     S
C262   C775    1.433   .     S
C262   N102    1.372   1_565 S
C263   N355    1.419   .     S
C263   C1286   1.433   1_554 S
C263   N103    1.371   1_565 S
C264   N356    1.418   .     S
C264   N358    1.371   .     A
C264   C773    1.441   .     S
C265   C276    1.373   .     A
C265   F305    1.356   .     S
C265   C284    1.396   .     A
C266   C283    1.396   .     A
C266   F313    1.357   .     S
C266   C277    1.373   .     A
C267   C274    1.373   .     A
C267   F314    1.359   .     S
C267   C283    1.396   .     A
C268   C285    1.399   .     S
C268   O374    1.285   .     A
C268   O373    1.284   .     A
C269   C284    1.396   .     A
C269   C275    1.373   .     A
C269   F315    1.359   .     S
C270   C286    1.395   .     A
C270   F316    1.358   .     S
C270   C281    1.374   .     A
C271   C285    1.394   .     A
C271   C282    1.376   .     A
C271   F317    1.359   .     S
C272   F318    1.359   .     S
C272   C278    1.374   .     A
C272   C285    1.393   .     A
C273   C286    1.394   .     A
C273   C280    1.376   .     A
C273   F319    1.358   .     S
C274   C288    1.396   .     A
C274   F320    1.356   .     S
C275   C287    1.396   .     A
C275   F306    1.357   .     S
C276   F307    1.359   .     S
C276   C287    1.396   .     A
C277   C288    1.396   .     A
C277   F308    1.359   .     S
C278   C291    1.395   .     A
C278   F309    1.358   .     S
C279   O376    1.288   .     A
C279   O379    1.286   .     A
C279   C284    1.409   .     S
C280   F310    1.359   .     S
C280   C289    1.394   .     A
C281   F311    1.359   .     S
C281   C289    1.393   .     A
C282   C291    1.394   .     A
C282   F312    1.358   .     S
C283   C290    1.409   .     S
C287   C303    1.409   .     S
C288   C302    1.409   .     S
C289   C301    1.399   .     S
C290   O377    1.288   .     A
C290   O378    1.286   .     A
C291   C300    1.402   .     S
C292   H332    1.110   .     S
C292   H343    1.112   .     S
C292   H347    1.108   .     S
C292   N360    1.448   .     S
C293   H351    1.105   .     S
C293   H349    1.109   .     S
C293   H350    1.112   .     S
C293   N489    1.446   1_455 S
C294   H322    1.106   .     S
C294   H324    1.113   .     S
C294   H323    1.104   .     S
C294   N490    1.449   1_455 S
C295   H328    1.109   .     S
C295   H326    1.108   .     S
C295   H327    1.112   .     S
C295   N491    1.448   .     S
C296   N364    1.448   .     S
C296   H333    1.108   .     S
C296   H331    1.112   .     S
C296   H330    1.110   .     S
C297   H336    1.112   .     S
C297   H337    1.105   .     S
C297   H335    1.109   .     S
C297   N354    1.446   .     S
C298   H340    1.104   .     S
C298   H341    1.113   .     S
C298   H339    1.106   .     S
C298   N355    1.449   .     S
C299   H345    1.112   .     S
C299   H344    1.108   .     S
C299   H346    1.109   .     S
C299   N356    1.448   .     S
C300   O380    1.285   .     A
C300   O368    1.285   .     A
C301   O366    1.284   .     A
C301   O367    1.285   .     A
C302   O369    1.288   .     A
C302   O372    1.286   .     A
C303   O370    1.288   .     A
C303   O371    1.286   .     A
C304   N360    1.422   .     S
C304   N357    1.371   .     A
C304   C1284   1.441   1_554 S
H321   N488    1.030   .     S
H325   N363    1.029   .     S
H329   N364    1.030   .     S
H334   N354    1.031   .     S
H338   N355    1.030   .     S
H342   N356    1.029   .     S
H348   N361    1.031   .     S
H352   N362    1.030   .     S
N353   Zn381   2.028   .     S
N353   C386    1.372   1_455 S
N357   Zn382   2.028   .     S
N357   C387    1.371   1_455 S
N358   Zn383   2.028   .     S
N359   Zn384   2.028   .     S
N360   H449    1.030   1_455 S
N361   C421    1.446   .     S
N362   C422    1.449   .     S
N363   C423    1.448   1_455 S
O365   Zn381   1.973   .     S
O366   Zn384   1.973   .     S
O367   Zn383   1.978   .     S
O368   Zn128   1.978   1_565 S
O369   Zn128   1.988   1_565 S
O370   Zn383   1.988   .     S
O371   Zn384   1.985   .     S
O372   Zn127   1.985   1_565 S
O373   Zn510   1.973   .     S
O374   Zn509   1.978   .     S
O375   Zn382   1.978   .     S
O376   Zn510   1.988   .     S
O377   Zn381   1.988   .     S
O378   Zn382   1.985   .     S
O379   Zn509   1.985   .     S
O380   Zn127   1.973   1_565 S
Zn381  O507    1.985   1_455 S
Zn381  O502    1.978   1_455 S
Zn382  O504    1.988   1_455 S
Zn382  O501    1.973   1_455 S
C385   O503    1.285   .     A
C385   O493    1.285   .     A
C385   C414    1.402   .     S
C386   N489    1.421   .     S
C386   C899    1.433   .     S
C386   N353    1.372   1_655 S
C387   N490    1.419   .     S
C387   C1410   1.433   1_554 S
C387   N357    1.371   1_655 S
C388   N481    1.371   .     A
C388   N491    1.418   .     S
C388   C944    1.441   .     S
C389   N487    1.371   .     A
C389   N492    1.422   .     S
C389   C1416   1.441   1_554 S
C390   N482    1.421   .     S
C390   C903    1.433   .     S
C390   N230    1.372   1_565 S
C391   N483    1.419   .     S
C391   C1414   1.433   1_554 S
C391   N231    1.371   1_565 S
C392   N484    1.418   .     S
C392   N486    1.371   .     A
C392   C901    1.441   .     S
C393   C404    1.373   .     A
C393   F433    1.356   .     S
C393   C412    1.396   .     A
C394   C411    1.396   .     A
C394   F441    1.357   .     S
C394   C405    1.373   .     A
C395   C402    1.373   .     A
C395   F442    1.359   .     S
C395   C411    1.396   .     A
C396   C413    1.399   .     S
C396   O502    1.285   .     A
C396   O501    1.284   .     A
C397   C412    1.396   .     A
C397   C403    1.373   .     A
C397   F443    1.359   .     S
C398   C414    1.395   .     A
C398   F444    1.358   .     S
C398   C409    1.374   .     A
C399   C413    1.394   .     A
C399   C410    1.376   .     A
C399   F445    1.359   .     S
C400   F446    1.359   .     S
C400   C406    1.374   .     A
C400   C413    1.393   .     A
C401   C414    1.394   .     A
C401   C408    1.376   .     A
C401   F447    1.358   .     S
C402   C416    1.396   .     A
C402   F448    1.356   .     S
C403   C415    1.396   .     A
C403   F434    1.357   .     S
C404   F435    1.359   .     S
C404   C415    1.396   .     A
C405   C416    1.396   .     A
C405   F436    1.359   .     S
C406   C419    1.395   .     A
C406   F437    1.358   .     S
C407   O504    1.288   .     A
C407   O507    1.286   .     A
C407   C412    1.409   .     S
C408   F438    1.359   .     S
C408   C417    1.394   .     A
C409   F439    1.359   .     S
C409   C417    1.393   .     A
C410   C419    1.394   .     A
C410   F440    1.358   .     S
C411   C418    1.409   .     S
C415   C431    1.409   .     S
C416   C430    1.409   .     S
C417   C429    1.399   .     S
C418   O505    1.288   .     A
C418   O506    1.286   .     A
C419   C428    1.402   .     S
C420   H460    1.110   .     S
C420   H471    1.112   .     S
C420   H475    1.108   .     S
C420   N488    1.448   .     S
C421   H479    1.105   .     S
C421   H477    1.109   .     S
C421   H478    1.112   .     S
C422   H450    1.106   .     S
C422   H452    1.113   .     S
C422   H451    1.104   .     S
C423   H456    1.109   .     S
C423   H454    1.108   .     S
C423   H455    1.112   .     S
C423   N363    1.448   1_655 S
C424   N492    1.448   .     S
C424   H461    1.108   .     S
C424   H459    1.112   .     S
C424   H458    1.110   .     S
C425   H464    1.112   .     S
C425   H465    1.105   .     S
C425   H463    1.109   .     S
C425   N482    1.446   .     S
C426   H468    1.104   .     S
C426   H469    1.113   .     S
C426   H467    1.106   .     S
C426   N483    1.449   .     S
C427   H473    1.112   .     S
C427   H472    1.108   .     S
C427   H474    1.109   .     S
C427   N484    1.448   .     S
C428   O508    1.285   .     A
C428   O496    1.285   .     A
C429   O494    1.284   .     A
C429   O495    1.285   .     A
C430   O497    1.288   .     A
C430   O500    1.286   .     A
C431   O498    1.288   .     A
C431   O499    1.286   .     A
C432   N488    1.422   .     S
C432   N485    1.371   .     A
C432   C1412   1.441   1_554 S
H449   N360    1.030   1_655 S
H453   N491    1.029   .     S
H457   N492    1.030   .     S
H462   N482    1.031   .     S
H466   N483    1.030   .     S
H470   N484    1.029   .     S
H476   N489    1.031   .     S
H480   N490    1.030   .     S
N481   Zn509   2.028   .     S
N485   Zn510   2.028   .     S
N486   Zn511   2.028   .     S
N487   Zn512   2.028   .     S
N489   C293    1.446   1_655 S
N490   C294    1.449   1_655 S
O493   Zn509   1.973   .     S
O494   Zn512   1.973   .     S
O495   Zn511   1.978   .     S
O496   Zn256   1.978   1_565 S
O497   Zn256   1.988   1_565 S
O498   Zn511   1.988   .     S
O499   Zn512   1.985   .     S
O500   Zn255   1.985   1_565 S
O501   Zn382   1.973   1_655 S
O502   Zn381   1.978   1_655 S
O503   Zn510   1.978   .     S
O504   Zn382   1.988   1_655 S
O505   Zn509   1.988   .     S
O506   Zn510   1.985   .     S
O507   Zn381   1.985   1_655 S
O508   Zn255   1.973   1_565 S
C513   O631    1.285   .     A
C513   O621    1.285   .     A
C513   C542    1.402   .     S
C514   N617    1.421   .     S
C514   C1027   1.433   .     S
C514   N737    1.372   .     S
C515   N618    1.419   .     S
C515   N741    1.371   .     S
C516   N609    1.371   .     A
C516   N619    1.418   .     S
C516   C1072   1.441   .     S
C517   N615    1.371   .     A
C517   N620    1.422   .     S
C518   N610    1.421   .     S
C518   C1031   1.433   .     S
C518   N870    1.372   .     S
C519   N611    1.419   .     S
C519   N871    1.371   .     S
C520   N612    1.418   .     S
C520   N614    1.371   .     A
C520   C1029   1.441   .     S
C521   C532    1.373   .     A
C521   F561    1.356   .     S
C521   C540    1.396   .     A
C522   C539    1.396   .     A
C522   F569    1.357   .     S
C522   C533    1.373   .     A
C523   C530    1.373   .     A
C523   F570    1.359   .     S
C523   C539    1.396   .     A
C524   C541    1.399   .     S
C524   O630    1.285   .     A
C524   O629    1.284   .     A
C525   C540    1.396   .     A
C525   C531    1.373   .     A
C525   F571    1.359   .     S
C526   C542    1.395   .     A
C526   F572    1.358   .     S
C526   C537    1.374   .     A
C527   C541    1.394   .     A
C527   C538    1.376   .     A
C527   F573    1.359   .     S
C528   F574    1.359   .     S
C528   C534    1.374   .     A
C528   C541    1.393   .     A
C529   C542    1.394   .     A
C529   C536    1.376   .     A
C529   F575    1.358   .     S
C530   C544    1.396   .     A
C530   F576    1.356   .     S
C531   C543    1.396   .     A
C531   F562    1.357   .     S
C532   F563    1.359   .     S
C532   C543    1.396   .     A
C533   C544    1.396   .     A
C533   F564    1.359   .     S
C534   C547    1.395   .     A
C534   F565    1.358   .     S
C535   O632    1.288   .     A
C535   O635    1.286   .     A
C535   C540    1.409   .     S
C536   F566    1.359   .     S
C536   C545    1.394   .     A
C537   F567    1.359   .     S
C537   C545    1.393   .     A
C538   C547    1.394   .     A
C538   F568    1.358   .     S
C539   C546    1.409   .     S
C543   C559    1.409   .     S
C544   C558    1.409   .     S
C545   C557    1.399   .     S
C546   O633    1.288   .     A
C546   O634    1.286   .     A
C547   C556    1.402   .     S
C548   H588    1.110   .     S
C548   H599    1.112   .     S
C548   H603    1.108   .     S
C548   N616    1.448   .     S
C549   H607    1.105   .     S
C549   H605    1.109   .     S
C549   H606    1.112   .     S
C549   N745    1.446   1_455 S
C550   H578    1.106   .     S
C550   H580    1.113   .     S
C550   H579    1.104   .     S
C550   N746    1.449   1_455 S
C551   H584    1.109   .     S
C551   H582    1.108   .     S
C551   H583    1.112   .     S
C551   N747    1.448   .     S
C552   N620    1.448   .     S
C552   H589    1.108   .     S
C552   H587    1.112   .     S
C552   H586    1.110   .     S
C553   H592    1.112   .     S
C553   H593    1.105   .     S
C553   H591    1.109   .     S
C553   N610    1.446   .     S
C554   H596    1.104   .     S
C554   H597    1.113   .     S
C554   H595    1.106   .     S
C554   N611    1.449   .     S
C555   H601    1.112   .     S
C555   H600    1.108   .     S
C555   H602    1.109   .     S
C555   N612    1.448   .     S
C556   O636    1.285   .     A
C556   O624    1.285   .     A
C557   O622    1.284   .     A
C557   O623    1.285   .     A
C558   O625    1.288   .     A
C558   O628    1.286   .     A
C559   O626    1.288   .     A
C559   O627    1.286   .     A
C560   N616    1.422   .     S
C560   N613    1.371   .     A
H577   N744    1.030   .     S
H581   N619    1.029   .     S
H585   N620    1.030   .     S
H590   N610    1.031   .     S
H594   N611    1.030   .     S
H598   N612    1.029   .     S
H604   N617    1.031   .     S
H608   N618    1.030   .     S
N609   Zn637   2.028   .     S
N609   C642    1.372   1_455 S
N613   Zn638   2.028   .     S
N613   C643    1.371   1_455 S
N614   Zn639   2.028   .     S
N614   C774    1.372   1_545 S
N615   Zn640   2.028   .     S
N615   C775    1.371   1_545 S
N616   H705    1.030   1_455 S
N617   C677    1.446   .     S
N618   C678    1.449   .     S
N619   C679    1.448   1_455 S
O621   Zn637   1.973   .     S
O622   Zn640   1.973   .     S
O623   Zn639   1.978   .     S
O624   Zn896   1.978   .     S
O625   Zn896   1.988   .     S
O626   Zn639   1.988   .     S
O627   Zn640   1.985   .     S
O628   Zn895   1.985   .     S
O629   Zn766   1.973   .     S
O630   Zn765   1.978   .     S
O631   Zn638   1.978   .     S
O632   Zn766   1.988   .     S
O633   Zn637   1.988   .     S
O634   Zn638   1.985   .     S
O635   Zn765   1.985   .     S
O636   Zn895   1.973   .     S
Zn637  O763    1.985   1_455 S
Zn637  O758    1.978   1_455 S
Zn638  O760    1.988   1_455 S
Zn638  O757    1.973   1_455 S
Zn639  O884    1.985   1_545 S
Zn639  O892    1.973   1_545 S
Zn640  O881    1.988   1_545 S
Zn640  O880    1.978   1_545 S
C641   O759    1.285   .     A
C641   O749    1.285   .     A
C641   C670    1.402   .     S
C642   N745    1.421   .     S
C642   C1155   1.433   .     S
C642   N609    1.372   1_655 S
C643   N746    1.419   .     S
C643   N613    1.371   1_655 S
C644   N737    1.371   .     A
C644   N747    1.418   .     S
C644   C1200   1.441   .     S
C645   N743    1.371   .     A
C645   N748    1.422   .     S
C646   N738    1.421   .     S
C646   C1159   1.433   .     S
C646   N998    1.372   .     S
C647   N739    1.419   .     S
C647   N999    1.371   .     S
C648   N740    1.418   .     S
C648   N742    1.371   .     A
C648   C1157   1.441   .     S
C649   C660    1.373   .     A
C649   F689    1.356   .     S
C649   C668    1.396   .     A
C650   C667    1.396   .     A
C650   F697    1.357   .     S
C650   C661    1.373   .     A
C651   C658    1.373   .     A
C651   F698    1.359   .     S
C651   C667    1.396   .     A
C652   C669    1.399   .     S
C652   O758    1.285   .     A
C652   O757    1.284   .     A
C653   C668    1.396   .     A
C653   C659    1.373   .     A
C653   F699    1.359   .     S
C654   C670    1.395   .     A
C654   F700    1.358   .     S
C654   C665    1.374   .     A
C655   C669    1.394   .     A
C655   C666    1.376   .     A
C655   F701    1.359   .     S
C656   F702    1.359   .     S
C656   C662    1.374   .     A
C656   C669    1.393   .     A
C657   C670    1.394   .     A
C657   C664    1.376   .     A
C657   F703    1.358   .     S
C658   C672    1.396   .     A
C658   F704    1.356   .     S
C659   C671    1.396   .     A
C659   F690    1.357   .     S
C660   F691    1.359   .     S
C660   C671    1.396   .     A
C661   C672    1.396   .     A
C661   F692    1.359   .     S
C662   C675    1.395   .     A
C662   F693    1.358   .     S
C663   O760    1.288   .     A
C663   O763    1.286   .     A
C663   C668    1.409   .     S
C664   F694    1.359   .     S
C664   C673    1.394   .     A
C665   F695    1.359   .     S
C665   C673    1.393   .     A
C666   C675    1.394   .     A
C666   F696    1.358   .     S
C667   C674    1.409   .     S
C671   C687    1.409   .     S
C672   C686    1.409   .     S
C673   C685    1.399   .     S
C674   O761    1.288   .     A
C674   O762    1.286   .     A
C675   C684    1.402   .     S
C676   H716    1.110   .     S
C676   H727    1.112   .     S
C676   H731    1.108   .     S
C676   N744    1.448   .     S
C677   H735    1.105   .     S
C677   H733    1.109   .     S
C677   H734    1.112   .     S
C678   H706    1.106   .     S
C678   H708    1.113   .     S
C678   H707    1.104   .     S
C679   H712    1.109   .     S
C679   H710    1.108   .     S
C679   H711    1.112   .     S
C679   N619    1.448   1_655 S
C680   N748    1.448   .     S
C680   H717    1.108   .     S
C680   H715    1.112   .     S
C680   H714    1.110   .     S
C681   H720    1.112   .     S
C681   H721    1.105   .     S
C681   H719    1.109   .     S
C681   N738    1.446   .     S
C682   H724    1.104   .     S
C682   H725    1.113   .     S
C682   H723    1.106   .     S
C682   N739    1.449   .     S
C683   H729    1.112   .     S
C683   H728    1.108   .     S
C683   H730    1.109   .     S
C683   N740    1.448   .     S
C684   O764    1.285   .     A
C684   O752    1.285   .     A
C685   O750    1.284   .     A
C685   O751    1.285   .     A
C686   O753    1.288   .     A
C686   O756    1.286   .     A
C687   O754    1.288   .     A
C687   O755    1.286   .     A
C688   N744    1.422   .     S
C688   N741    1.371   .     A
H705   N616    1.030   1_655 S
H709   N747    1.029   .     S
H713   N748    1.030   .     S
H718   N738    1.031   .     S
H722   N739    1.030   .     S
H726   N740    1.029   .     S
H732   N745    1.031   .     S
H736   N746    1.030   .     S
N737   Zn765   2.028   .     S
N741   Zn766   2.028   .     S
N742   Zn767   2.028   .     S
N742   C902    1.372   1_545 S
N743   Zn768   2.028   .     S
N743   C903    1.371   1_545 S
N745   C549    1.446   1_655 S
N746   C550    1.449   1_655 S
O749   Zn765   1.973   .     S
O750   Zn768   1.973   .     S
O751   Zn767   1.978   .     S
O752   Zn1024  1.978   .     S
O753   Zn1024  1.988   .     S
O754   Zn767   1.988   .     S
O755   Zn768   1.985   .     S
O756   Zn1023  1.985   .     S
O757   Zn638   1.973   1_655 S
O758   Zn637   1.978   1_655 S
O759   Zn766   1.978   .     S
O760   Zn638   1.988   1_655 S
O761   Zn765   1.988   .     S
O762   Zn766   1.985   .     S
O763   Zn637   1.985   1_655 S
O764   Zn1023  1.973   .     S
Zn767  O1012   1.985   1_545 S
Zn767  O1020   1.973   1_545 S
Zn768  O1009   1.988   1_545 S
Zn768  O1008   1.978   1_545 S
C769   O887    1.285   .     A
C769   O877    1.285   .     A
C769   C798    1.402   .     S
C770   N873    1.421   .     S
C770   C1283   1.433   .     S
C770   N993    1.372   .     S
C771   N874    1.419   .     S
C771   N997    1.371   .     S
C772   N865    1.371   .     A
C772   N875    1.418   .     S
C772   C1328   1.441   .     S
C773   N871    1.371   .     A
C773   N876    1.422   .     S
C774   N866    1.421   .     S
C774   C1287   1.433   .     S
C774   N614    1.372   1_565 S
C775   N867    1.419   .     S
C775   N615    1.371   1_565 S
C776   N868    1.418   .     S
C776   N870    1.371   .     A
C776   C1285   1.441   .     S
C777   C788    1.373   .     A
C777   F817    1.356   .     S
C777   C796    1.396   .     A
C778   C795    1.396   .     A
C778   F825    1.357   .     S
C778   C789    1.373   .     A
C779   C786    1.373   .     A
C779   F826    1.359   .     S
C779   C795    1.396   .     A
C780   C797    1.399   .     S
C780   O886    1.285   .     A
C780   O885    1.284   .     A
C781   C796    1.396   .     A
C781   C787    1.373   .     A
C781   F827    1.359   .     S
C782   C798    1.395   .     A
C782   F828    1.358   .     S
C782   C793    1.374   .     A
C783   C797    1.394   .     A
C783   C794    1.376   .     A
C783   F829    1.359   .     S
C784   F830    1.359   .     S
C784   C790    1.374   .     A
C784   C797    1.393   .     A
C785   C798    1.394   .     A
C785   C792    1.376   .     A
C785   F831    1.358   .     S
C786   C800    1.396   .     A
C786   F832    1.356   .     S
C787   C799    1.396   .     A
C787   F818    1.357   .     S
C788   F819    1.359   .     S
C788   C799    1.396   .     A
C789   C800    1.396   .     A
C789   F820    1.359   .     S
C790   C803    1.395   .     A
C790   F821    1.358   .     S
C791   O888    1.288   .     A
C791   O891    1.286   .     A
C791   C796    1.409   .     S
C792   F822    1.359   .     S
C792   C801    1.394   .     A
C793   F823    1.359   .     S
C793   C801    1.393   .     A
C794   C803    1.394   .     A
C794   F824    1.358   .     S
C795   C802    1.409   .     S
C799   C815    1.409   .     S
C800   C814    1.409   .     S
C801   C813    1.399   .     S
C802   O889    1.288   .     A
C802   O890    1.286   .     A
C803   C812    1.402   .     S
C804   H844    1.110   .     S
C804   H855    1.112   .     S
C804   H859    1.108   .     S
C804   N872    1.448   .     S
C805   H863    1.105   .     S
C805   H861    1.109   .     S
C805   H862    1.112   .     S
C805   N1001   1.446   1_455 S
C806   H834    1.106   .     S
C806   H836    1.113   .     S
C806   H835    1.104   .     S
C806   N1002   1.449   1_455 S
C807   H840    1.109   .     S
C807   H838    1.108   .     S
C807   H839    1.112   .     S
C807   N1003   1.448   .     S
C808   N876    1.448   .     S
C808   H845    1.108   .     S
C808   H843    1.112   .     S
C808   H842    1.110   .     S
C809   H848    1.112   .     S
C809   H849    1.105   .     S
C809   H847    1.109   .     S
C809   N866    1.446   .     S
C810   H852    1.104   .     S
C810   H853    1.113   .     S
C810   H851    1.106   .     S
C810   N867    1.449   .     S
C811   H857    1.112   .     S
C811   H856    1.108   .     S
C811   H858    1.109   .     S
C811   N868    1.448   .     S
C812   O892    1.285   .     A
C812   O880    1.285   .     A
C813   O878    1.284   .     A
C813   O879    1.285   .     A
C814   O881    1.288   .     A
C814   O884    1.286   .     A
C815   O882    1.288   .     A
C815   O883    1.286   .     A
C816   N872    1.422   .     S
C816   N869    1.371   .     A
H833   N1000   1.030   .     S
H837   N875    1.029   .     S
H841   N876    1.030   .     S
H846   N866    1.031   .     S
H850   N867    1.030   .     S
H854   N868    1.029   .     S
H860   N873    1.031   .     S
H864   N874    1.030   .     S
N865   Zn893   2.028   .     S
N865   C898    1.372   1_455 S
N869   Zn894   2.028   .     S
N869   C899    1.371   1_455 S
N870   Zn895   2.028   .     S
N871   Zn896   2.028   .     S
N872   H961    1.030   1_455 S
N873   C933    1.446   .     S
N874   C934    1.449   .     S
N875   C935    1.448   1_455 S
O877   Zn893   1.973   .     S
O878   Zn896   1.973   .     S
O879   Zn895   1.978   .     S
O880   Zn640   1.978   1_565 S
O881   Zn640   1.988   1_565 S
O882   Zn895   1.988   .     S
O883   Zn896   1.985   .     S
O884   Zn639   1.985   1_565 S
O885   Zn1022  1.973   .     S
O886   Zn1021  1.978   .     S
O887   Zn894   1.978   .     S
O888   Zn1022  1.988   .     S
O889   Zn893   1.988   .     S
O890   Zn894   1.985   .     S
O891   Zn1021  1.985   .     S
O892   Zn639   1.973   1_565 S
Zn893  O1019   1.985   1_455 S
Zn893  O1014   1.978   1_455 S
Zn894  O1016   1.988   1_455 S
Zn894  O1013   1.973   1_455 S
C897   O1015   1.285   .     A
C897   O1005   1.285   .     A
C897   C926    1.402   .     S
C898   N1001   1.421   .     S
C898   C1411   1.433   .     S
C898   N865    1.372   1_655 S
C899   N1002   1.419   .     S
C899   N869    1.371   1_655 S
C900   N993    1.371   .     A
C900   N1003   1.418   .     S
C900   C1456   1.441   .     S
C901   N999    1.371   .     A
C901   N1004   1.422   .     S
C902   N994    1.421   .     S
C902   C1415   1.433   .     S
C902   N742    1.372   1_565 S
C903   N995    1.419   .     S
C903   N743    1.371   1_565 S
C904   N996    1.418   .     S
C904   N998    1.371   .     A
C904   C1413   1.441   .     S
C905   C916    1.373   .     A
C905   F945    1.356   .     S
C905   C924    1.396   .     A
C906   C923    1.396   .     A
C906   F953    1.357   .     S
C906   C917    1.373   .     A
C907   C914    1.373   .     A
C907   F954    1.359   .     S
C907   C923    1.396   .     A
C908   C925    1.399   .     S
C908   O1014   1.285   .     A
C908   O1013   1.284   .     A
C909   C924    1.396   .     A
C909   C915    1.373   .     A
C909   F955    1.359   .     S
C910   C926    1.395   .     A
C910   F956    1.358   .     S
C910   C921    1.374   .     A
C911   C925    1.394   .     A
C911   C922    1.376   .     A
C911   F957    1.359   .     S
C912   F958    1.359   .     S
C912   C918    1.374   .     A
C912   C925    1.393   .     A
C913   C926    1.394   .     A
C913   C920    1.376   .     A
C913   F959    1.358   .     S
C914   C928    1.396   .     A
C914   F960    1.356   .     S
C915   C927    1.396   .     A
C915   F946    1.357   .     S
C916   F947    1.359   .     S
C916   C927    1.396   .     A
C917   C928    1.396   .     A
C917   F948    1.359   .     S
C918   C931    1.395   .     A
C918   F949    1.358   .     S
C919   O1016   1.288   .     A
C919   O1019   1.286   .     A
C919   C924    1.409   .     S
C920   F950    1.359   .     S
C920   C929    1.394   .     A
C921   F951    1.359   .     S
C921   C929    1.393   .     A
C922   C931    1.394   .     A
C922   F952    1.358   .     S
C923   C930    1.409   .     S
C927   C943    1.409   .     S
C928   C942    1.409   .     S
C929   C941    1.399   .     S
C930   O1017   1.288   .     A
C930   O1018   1.286   .     A
C931   C940    1.402   .     S
C932   H972    1.110   .     S
C932   H983    1.112   .     S
C932   H987    1.108   .     S
C932   N1000   1.448   .     S
C933   H991    1.105   .     S
C933   H989    1.109   .     S
C933   H990    1.112   .     S
C934   H962    1.106   .     S
C934   H964    1.113   .     S
C934   H963    1.104   .     S
C935   H968    1.109   .     S
C935   H966    1.108   .     S
C935   H967    1.112   .     S
C935   N875    1.448   1_655 S
C936   N1004   1.448   .     S
C936   H973    1.108   .     S
C936   H971    1.112   .     S
C936   H970    1.110   .     S
C937   H976    1.112   .     S
C937   H977    1.105   .     S
C937   H975    1.109   .     S
C937   N994    1.446   .     S
C938   H980    1.104   .     S
C938   H981    1.113   .     S
C938   H979    1.106   .     S
C938   N995    1.449   .     S
C939   H985    1.112   .     S
C939   H984    1.108   .     S
C939   H986    1.109   .     S
C939   N996    1.448   .     S
C940   O1020   1.285   .     A
C940   O1008   1.285   .     A
C941   O1006   1.284   .     A
C941   O1007   1.285   .     A
C942   O1009   1.288   .     A
C942   O1012   1.286   .     A
C943   O1010   1.288   .     A
C943   O1011   1.286   .     A
C944   N1000   1.422   .     S
C944   N997    1.371   .     A
H961   N872    1.030   1_655 S
H965   N1003   1.029   .     S
H969   N1004   1.030   .     S
H974   N994    1.031   .     S
H978   N995    1.030   .     S
H982   N996    1.029   .     S
H988   N1001   1.031   .     S
H992   N1002   1.030   .     S
N993   Zn1021  2.028   .     S
N997   Zn1022  2.028   .     S
N998   Zn1023  2.028   .     S
N999   Zn1024  2.028   .     S
N1001  C805    1.446   1_655 S
N1002  C806    1.449   1_655 S
O1005  Zn1021  1.973   .     S
O1006  Zn1024  1.973   .     S
O1007  Zn1023  1.978   .     S
O1008  Zn768   1.978   1_565 S
O1009  Zn768   1.988   1_565 S
O1010  Zn1023  1.988   .     S
O1011  Zn1024  1.985   .     S
O1012  Zn767   1.985   1_565 S
O1013  Zn894   1.973   1_655 S
O1014  Zn893   1.978   1_655 S
O1015  Zn1022  1.978   .     S
O1016  Zn894   1.988   1_655 S
O1017  Zn1021  1.988   .     S
O1018  Zn1022  1.985   .     S
O1019  Zn893   1.985   1_655 S
O1020  Zn767   1.973   1_565 S
C1025  O1143   1.285   .     A
C1025  O1133   1.285   .     A
C1025  C1054   1.402   .     S
C1026  N1129   1.421   .     S
C1026  C3      1.433   1_556 S
C1026  N1249   1.372   .     S
C1027  N1130   1.419   .     S
C1027  N1253   1.371   .     S
C1028  N1121   1.371   .     A
C1028  N1131   1.418   .     S
C1028  C48     1.441   1_556 S
C1029  N1127   1.371   .     A
C1029  N1132   1.422   .     S
C1030  N1122   1.421   .     S
C1030  C7      1.433   1_556 S
C1030  N1382   1.372   .     S
C1031  N1123   1.419   .     S
C1031  N1383   1.371   .     S
C1032  N1124   1.418   .     S
C1032  N1126   1.371   .     A
C1032  C5      1.441   1_556 S
C1033  C1044   1.373   .     A
C1033  F1073   1.356   .     S
C1033  C1052   1.396   .     A
C1034  C1051   1.396   .     A
C1034  F1081   1.357   .     S
C1034  C1045   1.373   .     A
C1035  C1042   1.373   .     A
C1035  F1082   1.359   .     S
C1035  C1051   1.396   .     A
C1036  C1053   1.399   .     S
C1036  O1142   1.285   .     A
C1036  O1141   1.284   .     A
C1037  C1052   1.396   .     A
C1037  C1043   1.373   .     A
C1037  F1083   1.359   .     S
C1038  C1054   1.395   .     A
C1038  F1084   1.358   .     S
C1038  C1049   1.374   .     A
C1039  C1053   1.394   .     A
C1039  C1050   1.376   .     A
C1039  F1085   1.359   .     S
C1040  F1086   1.359   .     S
C1040  C1046   1.374   .     A
C1040  C1053   1.393   .     A
C1041  C1054   1.394   .     A
C1041  C1048   1.376   .     A
C1041  F1087   1.358   .     S
C1042  C1056   1.396   .     A
C1042  F1088   1.356   .     S
C1043  C1055   1.396   .     A
C1043  F1074   1.357   .     S
C1044  F1075   1.359   .     S
C1044  C1055   1.396   .     A
C1045  C1056   1.396   .     A
C1045  F1076   1.359   .     S
C1046  C1059   1.395   .     A
C1046  F1077   1.358   .     S
C1047  O1144   1.288   .     A
C1047  O1147   1.286   .     A
C1047  C1052   1.409   .     S
C1048  F1078   1.359   .     S
C1048  C1057   1.394   .     A
C1049  F1079   1.359   .     S
C1049  C1057   1.393   .     A
C1050  C1059   1.394   .     A
C1050  F1080   1.358   .     S
C1051  C1058   1.409   .     S
C1055  C1071   1.409   .     S
C1056  C1070   1.409   .     S
C1057  C1069   1.399   .     S
C1058  O1145   1.288   .     A
C1058  O1146   1.286   .     A
C1059  C1068   1.402   .     S
C1060  H1100   1.110   .     S
C1060  H1111   1.112   .     S
C1060  H1115   1.108   .     S
C1060  N1128   1.448   .     S
C1061  H1119   1.105   .     S
C1061  H1117   1.109   .     S
C1061  H1118   1.112   .     S
C1061  N1257   1.446   1_455 S
C1062  H1090   1.106   .     S
C1062  H1092   1.113   .     S
C1062  H1091   1.104   .     S
C1062  N1258   1.449   1_455 S
C1063  H1096   1.109   .     S
C1063  H1094   1.108   .     S
C1063  H1095   1.112   .     S
C1063  N1259   1.448   .     S
C1064  N1132   1.448   .     S
C1064  H1101   1.108   .     S
C1064  H1099   1.112   .     S
C1064  H1098   1.110   .     S
C1065  H1104   1.112   .     S
C1065  H1105   1.105   .     S
C1065  H1103   1.109   .     S
C1065  N1122   1.446   .     S
C1066  H1108   1.104   .     S
C1066  H1109   1.113   .     S
C1066  H1107   1.106   .     S
C1066  N1123   1.449   .     S
C1067  H1113   1.112   .     S
C1067  H1112   1.108   .     S
C1067  H1114   1.109   .     S
C1067  N1124   1.448   .     S
C1068  O1148   1.285   .     A
C1068  O1136   1.285   .     A
C1069  O1134   1.284   .     A
C1069  O1135   1.285   .     A
C1070  O1137   1.288   .     A
C1070  O1140   1.286   .     A
C1071  O1138   1.288   .     A
C1071  O1139   1.286   .     A
C1072  N1128   1.422   .     S
C1072  N1125   1.371   .     A
H1089  N1256   1.030   .     S
H1093  N1131   1.029   .     S
H1097  N1132   1.030   .     S
H1102  N1122   1.031   .     S
H1106  N1123   1.030   .     S
H1110  N1124   1.029   .     S
H1116  N1129   1.031   .     S
H1120  N1130   1.030   .     S
N1121  Zn1149  2.028   .     S
N1121  C1154   1.372   1_455 S
N1125  Zn1150  2.028   .     S
N1125  C1155   1.371   1_455 S
N1126  Zn1151  2.028   .     S
N1126  C1286   1.372   1_545 S
N1127  Zn1152  2.028   .     S
N1127  C1287   1.371   1_545 S
N1128  H1217   1.030   1_455 S
N1129  C1189   1.446   .     S
N1130  C1190   1.449   .     S
N1131  C1191   1.448   1_455 S
O1133  Zn1149  1.973   .     S
O1134  Zn1152  1.973   .     S
O1135  Zn1151  1.978   .     S
O1136  Zn1408  1.978   .     S
O1137  Zn1408  1.988   .     S
O1138  Zn1151  1.988   .     S
O1139  Zn1152  1.985   .     S
O1140  Zn1407  1.985   .     S
O1141  Zn1278  1.973   .     S
O1142  Zn1277  1.978   .     S
O1143  Zn1150  1.978   .     S
O1144  Zn1278  1.988   .     S
O1145  Zn1149  1.988   .     S
O1146  Zn1150  1.985   .     S
O1147  Zn1277  1.985   .     S
O1148  Zn1407  1.973   .     S
Zn1149 O1275   1.985   1_455 S
Zn1149 O1270   1.978   1_455 S
Zn1150 O1272   1.988   1_455 S
Zn1150 O1269   1.973   1_455 S
Zn1151 O1396   1.985   1_545 S
Zn1151 O1404   1.973   1_545 S
Zn1152 O1393   1.988   1_545 S
Zn1152 O1392   1.978   1_545 S
C1153  O1271   1.285   .     A
C1153  O1261   1.285   .     A
C1153  C1182   1.402   .     S
C1154  N1257   1.421   .     S
C1154  C131    1.433   1_556 S
C1154  N1121   1.372   1_655 S
C1155  N1258   1.419   .     S
C1155  N1125   1.371   1_655 S
C1156  N1249   1.371   .     A
C1156  N1259   1.418   .     S
C1156  C176    1.441   1_556 S
C1157  N1255   1.371   .     A
C1157  N1260   1.422   .     S
C1158  N1250   1.421   .     S
C1158  C135    1.433   1_556 S
C1158  N1510   1.372   .     S
C1159  N1251   1.419   .     S
C1159  N1511   1.371   .     S
C1160  N1252   1.418   .     S
C1160  N1254   1.371   .     A
C1160  C133    1.441   1_556 S
C1161  C1172   1.373   .     A
C1161  F1201   1.356   .     S
C1161  C1180   1.396   .     A
C1162  C1179   1.396   .     A
C1162  F1209   1.357   .     S
C1162  C1173   1.373   .     A
C1163  C1170   1.373   .     A
C1163  F1210   1.359   .     S
C1163  C1179   1.396   .     A
C1164  C1181   1.399   .     S
C1164  O1270   1.285   .     A
C1164  O1269   1.284   .     A
C1165  C1180   1.396   .     A
C1165  C1171   1.373   .     A
C1165  F1211   1.359   .     S
C1166  C1182   1.395   .     A
C1166  F1212   1.358   .     S
C1166  C1177   1.374   .     A
C1167  C1181   1.394   .     A
C1167  C1178   1.376   .     A
C1167  F1213   1.359   .     S
C1168  F1214   1.359   .     S
C1168  C1174   1.374   .     A
C1168  C1181   1.393   .     A
C1169  C1182   1.394   .     A
C1169  C1176   1.376   .     A
C1169  F1215   1.358   .     S
C1170  C1184   1.396   .     A
C1170  F1216   1.356   .     S
C1171  C1183   1.396   .     A
C1171  F1202   1.357   .     S
C1172  F1203   1.359   .     S
C1172  C1183   1.396   .     A
C1173  C1184   1.396   .     A
C1173  F1204   1.359   .     S
C1174  C1187   1.395   .     A
C1174  F1205   1.358   .     S
C1175  O1272   1.288   .     A
C1175  O1275   1.286   .     A
C1175  C1180   1.409   .     S
C1176  F1206   1.359   .     S
C1176  C1185   1.394   .     A
C1177  F1207   1.359   .     S
C1177  C1185   1.393   .     A
C1178  C1187   1.394   .     A
C1178  F1208   1.358   .     S
C1179  C1186   1.409   .     S
C1183  C1199   1.409   .     S
C1184  C1198   1.409   .     S
C1185  C1197   1.399   .     S
C1186  O1273   1.288   .     A
C1186  O1274   1.286   .     A
C1187  C1196   1.402   .     S
C1188  H1228   1.110   .     S
C1188  H1239   1.112   .     S
C1188  H1243   1.108   .     S
C1188  N1256   1.448   .     S
C1189  H1247   1.105   .     S
C1189  H1245   1.109   .     S
C1189  H1246   1.112   .     S
C1190  H1218   1.106   .     S
C1190  H1220   1.113   .     S
C1190  H1219   1.104   .     S
C1191  H1224   1.109   .     S
C1191  H1222   1.108   .     S
C1191  H1223   1.112   .     S
C1191  N1131   1.448   1_655 S
C1192  N1260   1.448   .     S
C1192  H1229   1.108   .     S
C1192  H1227   1.112   .     S
C1192  H1226   1.110   .     S
C1193  H1232   1.112   .     S
C1193  H1233   1.105   .     S
C1193  H1231   1.109   .     S
C1193  N1250   1.446   .     S
C1194  H1236   1.104   .     S
C1194  H1237   1.113   .     S
C1194  H1235   1.106   .     S
C1194  N1251   1.449   .     S
C1195  H1241   1.112   .     S
C1195  H1240   1.108   .     S
C1195  H1242   1.109   .     S
C1195  N1252   1.448   .     S
C1196  O1276   1.285   .     A
C1196  O1264   1.285   .     A
C1197  O1262   1.284   .     A
C1197  O1263   1.285   .     A
C1198  O1265   1.288   .     A
C1198  O1268   1.286   .     A
C1199  O1266   1.288   .     A
C1199  O1267   1.286   .     A
C1200  N1256   1.422   .     S
C1200  N1253   1.371   .     A
H1217  N1128   1.030   1_655 S
H1221  N1259   1.029   .     S
H1225  N1260   1.030   .     S
H1230  N1250   1.031   .     S
H1234  N1251   1.030   .     S
H1238  N1252   1.029   .     S
H1244  N1257   1.031   .     S
H1248  N1258   1.030   .     S
N1249  Zn1277  2.028   .     S
N1253  Zn1278  2.028   .     S
N1254  Zn1279  2.028   .     S
N1254  C1414   1.372   1_545 S
N1255  Zn1280  2.028   .     S
N1255  C1415   1.371   1_545 S
N1257  C1061   1.446   1_655 S
N1258  C1062   1.449   1_655 S
O1261  Zn1277  1.973   .     S
O1262  Zn1280  1.973   .     S
O1263  Zn1279  1.978   .     S
O1264  Zn1536  1.978   .     S
O1265  Zn1536  1.988   .     S
O1266  Zn1279  1.988   .     S
O1267  Zn1280  1.985   .     S
O1268  Zn1535  1.985   .     S
O1269  Zn1150  1.973   1_655 S
O1270  Zn1149  1.978   1_655 S
O1271  Zn1278  1.978   .     S
O1272  Zn1150  1.988   1_655 S
O1273  Zn1277  1.988   .     S
O1274  Zn1278  1.985   .     S
O1275  Zn1149  1.985   1_655 S
O1276  Zn1535  1.973   .     S
Zn1279 O1524   1.985   1_545 S
Zn1279 O1532   1.973   1_545 S
Zn1280 O1521   1.988   1_545 S
Zn1280 O1520   1.978   1_545 S
C1281  O1399   1.285   .     A
C1281  O1389   1.285   .     A
C1281  C1310   1.402   .     S
C1282  N1385   1.421   .     S
C1282  C259    1.433   1_556 S
C1282  N1505   1.372   .     S
C1283  N1386   1.419   .     S
C1283  N1509   1.371   .     S
C1284  N1377   1.371   .     A
C1284  N1387   1.418   .     S
C1284  C304    1.441   1_556 S
C1285  N1383   1.371   .     A
C1285  N1388   1.422   .     S
C1286  N1378   1.421   .     S
C1286  C263    1.433   1_556 S
C1286  N1126   1.372   1_565 S
C1287  N1379   1.419   .     S
C1287  N1127   1.371   1_565 S
C1288  N1380   1.418   .     S
C1288  N1382   1.371   .     A
C1288  C261    1.441   1_556 S
C1289  C1300   1.373   .     A
C1289  F1329   1.356   .     S
C1289  C1308   1.396   .     A
C1290  C1307   1.396   .     A
C1290  F1337   1.357   .     S
C1290  C1301   1.373   .     A
C1291  C1298   1.373   .     A
C1291  F1338   1.359   .     S
C1291  C1307   1.396   .     A
C1292  C1309   1.399   .     S
C1292  O1398   1.285   .     A
C1292  O1397   1.284   .     A
C1293  C1308   1.396   .     A
C1293  C1299   1.373   .     A
C1293  F1339   1.359   .     S
C1294  C1310   1.395   .     A
C1294  F1340   1.358   .     S
C1294  C1305   1.374   .     A
C1295  C1309   1.394   .     A
C1295  C1306   1.376   .     A
C1295  F1341   1.359   .     S
C1296  F1342   1.359   .     S
C1296  C1302   1.374   .     A
C1296  C1309   1.393   .     A
C1297  C1310   1.394   .     A
C1297  C1304   1.376   .     A
C1297  F1343   1.358   .     S
C1298  C1312   1.396   .     A
C1298  F1344   1.356   .     S
C1299  C1311   1.396   .     A
C1299  F1330   1.357   .     S
C1300  F1331   1.359   .     S
C1300  C1311   1.396   .     A
C1301  C1312   1.396   .     A
C1301  F1332   1.359   .     S
C1302  C1315   1.395   .     A
C1302  F1333   1.358   .     S
C1303  O1400   1.288   .     A
C1303  O1403   1.286   .     A
C1303  C1308   1.409   .     S
C1304  F1334   1.359   .     S
C1304  C1313   1.394   .     A
C1305  F1335   1.359   .     S
C1305  C1313   1.393   .     A
C1306  C1315   1.394   .     A
C1306  F1336   1.358   .     S
C1307  C1314   1.409   .     S
C1311  C1327   1.409   .     S
C1312  C1326   1.409   .     S
C1313  C1325   1.399   .     S
C1314  O1401   1.288   .     A
C1314  O1402   1.286   .     A
C1315  C1324   1.402   .     S
C1316  H1356   1.110   .     S
C1316  H1367   1.112   .     S
C1316  H1371   1.108   .     S
C1316  N1384   1.448   .     S
C1317  H1375   1.105   .     S
C1317  H1373   1.109   .     S
C1317  H1374   1.112   .     S
C1317  N1513   1.446   1_455 S
C1318  H1346   1.106   .     S
C1318  H1348   1.113   .     S
C1318  H1347   1.104   .     S
C1318  N1514   1.449   1_455 S
C1319  H1352   1.109   .     S
C1319  H1350   1.108   .     S
C1319  H1351   1.112   .     S
C1319  N1515   1.448   .     S
C1320  N1388   1.448   .     S
C1320  H1357   1.108   .     S
C1320  H1355   1.112   .     S
C1320  H1354   1.110   .     S
C1321  H1360   1.112   .     S
C1321  H1361   1.105   .     S
C1321  H1359   1.109   .     S
C1321  N1378   1.446   .     S
C1322  H1364   1.104   .     S
C1322  H1365   1.113   .     S
C1322  H1363   1.106   .     S
C1322  N1379   1.449   .     S
C1323  H1369   1.112   .     S
C1323  H1368   1.108   .     S
C1323  H1370   1.109   .     S
C1323  N1380   1.448   .     S
C1324  O1404   1.285   .     A
C1324  O1392   1.285   .     A
C1325  O1390   1.284   .     A
C1325  O1391   1.285   .     A
C1326  O1393   1.288   .     A
C1326  O1396   1.286   .     A
C1327  O1394   1.288   .     A
C1327  O1395   1.286   .     A
C1328  N1384   1.422   .     S
C1328  N1381   1.371   .     A
H1345  N1512   1.030   .     S
H1349  N1387   1.029   .     S
H1353  N1388   1.030   .     S
H1358  N1378   1.031   .     S
H1362  N1379   1.030   .     S
H1366  N1380   1.029   .     S
H1372  N1385   1.031   .     S
H1376  N1386   1.030   .     S
N1377  Zn1405  2.028   .     S
N1377  C1410   1.372   1_455 S
N1381  Zn1406  2.028   .     S
N1381  C1411   1.371   1_455 S
N1382  Zn1407  2.028   .     S
N1383  Zn1408  2.028   .     S
N1384  H1473   1.030   1_455 S
N1385  C1445   1.446   .     S
N1386  C1446   1.449   .     S
N1387  C1447   1.448   1_455 S
O1389  Zn1405  1.973   .     S
O1390  Zn1408  1.973   .     S
O1391  Zn1407  1.978   .     S
O1392  Zn1152  1.978   1_565 S
O1393  Zn1152  1.988   1_565 S
O1394  Zn1407  1.988   .     S
O1395  Zn1408  1.985   .     S
O1396  Zn1151  1.985   1_565 S
O1397  Zn1534  1.973   .     S
O1398  Zn1533  1.978   .     S
O1399  Zn1406  1.978   .     S
O1400  Zn1534  1.988   .     S
O1401  Zn1405  1.988   .     S
O1402  Zn1406  1.985   .     S
O1403  Zn1533  1.985   .     S
O1404  Zn1151  1.973   1_565 S
Zn1405 O1531   1.985   1_455 S
Zn1405 O1526   1.978   1_455 S
Zn1406 O1528   1.988   1_455 S
Zn1406 O1525   1.973   1_455 S
C1409  O1527   1.285   .     A
C1409  O1517   1.285   .     A
C1409  C1438   1.402   .     S
C1410  N1513   1.421   .     S
C1410  C387    1.433   1_556 S
C1410  N1377   1.372   1_655 S
C1411  N1514   1.419   .     S
C1411  N1381   1.371   1_655 S
C1412  N1505   1.371   .     A
C1412  N1515   1.418   .     S
C1412  C432    1.441   1_556 S
C1413  N1511   1.371   .     A
C1413  N1516   1.422   .     S
C1414  N1506   1.421   .     S
C1414  C391    1.433   1_556 S
C1414  N1254   1.372   1_565 S
C1415  N1507   1.419   .     S
C1415  N1255   1.371   1_565 S
C1416  N1508   1.418   .     S
C1416  N1510   1.371   .     A
C1416  C389    1.441   1_556 S
C1417  C1428   1.373   .     A
C1417  F1457   1.356   .     S
C1417  C1436   1.396   .     A
C1418  C1435   1.396   .     A
C1418  F1465   1.357   .     S
C1418  C1429   1.373   .     A
C1419  C1426   1.373   .     A
C1419  F1466   1.359   .     S
C1419  C1435   1.396   .     A
C1420  C1437   1.399   .     S
C1420  O1526   1.285   .     A
C1420  O1525   1.284   .     A
C1421  C1436   1.396   .     A
C1421  C1427   1.373   .     A
C1421  F1467   1.359   .     S
C1422  C1438   1.395   .     A
C1422  F1468   1.358   .     S
C1422  C1433   1.374   .     A
C1423  C1437   1.394   .     A
C1423  C1434   1.376   .     A
C1423  F1469   1.359   .     S
C1424  F1470   1.359   .     S
C1424  C1430   1.374   .     A
C1424  C1437   1.393   .     A
C1425  C1438   1.394   .     A
C1425  C1432   1.376   .     A
C1425  F1471   1.358   .     S
C1426  C1440   1.396   .     A
C1426  F1472   1.356   .     S
C1427  C1439   1.396   .     A
C1427  F1458   1.357   .     S
C1428  F1459   1.359   .     S
C1428  C1439   1.396   .     A
C1429  C1440   1.396   .     A
C1429  F1460   1.359   .     S
C1430  C1443   1.395   .     A
C1430  F1461   1.358   .     S
C1431  O1528   1.288   .     A
C1431  O1531   1.286   .     A
C1431  C1436   1.409   .     S
C1432  F1462   1.359   .     S
C1432  C1441   1.394   .     A
C1433  F1463   1.359   .     S
C1433  C1441   1.393   .     A
C1434  C1443   1.394   .     A
C1434  F1464   1.358   .     S
C1435  C1442   1.409   .     S
C1439  C1455   1.409   .     S
C1440  C1454   1.409   .     S
C1441  C1453   1.399   .     S
C1442  O1529   1.288   .     A
C1442  O1530   1.286   .     A
C1443  C1452   1.402   .     S
C1444  H1484   1.110   .     S
C1444  H1495   1.112   .     S
C1444  H1499   1.108   .     S
C1444  N1512   1.448   .     S
C1445  H1503   1.105   .     S
C1445  H1501   1.109   .     S
C1445  H1502   1.112   .     S
C1446  H1474   1.106   .     S
C1446  H1476   1.113   .     S
C1446  H1475   1.104   .     S
C1447  H1480   1.109   .     S
C1447  H1478   1.108   .     S
C1447  H1479   1.112   .     S
C1447  N1387   1.448   1_655 S
C1448  N1516   1.448   .     S
C1448  H1485   1.108   .     S
C1448  H1483   1.112   .     S
C1448  H1482   1.110   .     S
C1449  H1488   1.112   .     S
C1449  H1489   1.105   .     S
C1449  H1487   1.109   .     S
C1449  N1506   1.446   .     S
C1450  H1492   1.104   .     S
C1450  H1493   1.113   .     S
C1450  H1491   1.106   .     S
C1450  N1507   1.449   .     S
C1451  H1497   1.112   .     S
C1451  H1496   1.108   .     S
C1451  H1498   1.109   .     S
C1451  N1508   1.448   .     S
C1452  O1532   1.285   .     A
C1452  O1520   1.285   .     A
C1453  O1518   1.284   .     A
C1453  O1519   1.285   .     A
C1454  O1521   1.288   .     A
C1454  O1524   1.286   .     A
C1455  O1522   1.288   .     A
C1455  O1523   1.286   .     A
C1456  N1512   1.422   .     S
C1456  N1509   1.371   .     A
H1473  N1384   1.030   1_655 S
H1477  N1515   1.029   .     S
H1481  N1516   1.030   .     S
H1486  N1506   1.031   .     S
H1490  N1507   1.030   .     S
H1494  N1508   1.029   .     S
H1500  N1513   1.031   .     S
H1504  N1514   1.030   .     S
N1505  Zn1533  2.028   .     S
N1509  Zn1534  2.028   .     S
N1510  Zn1535  2.028   .     S
N1511  Zn1536  2.028   .     S
N1513  C1317   1.446   1_655 S
N1514  C1318   1.449   1_655 S
O1517  Zn1533  1.973   .     S
O1518  Zn1536  1.973   .     S
O1519  Zn1535  1.978   .     S
O1520  Zn1280  1.978   1_565 S
O1521  Zn1280  1.988   1_565 S
O1522  Zn1535  1.988   .     S
O1523  Zn1536  1.985   .     S
O1524  Zn1279  1.985   1_565 S
O1525  Zn1406  1.973   1_655 S
O1526  Zn1405  1.978   1_655 S
O1527  Zn1534  1.978   .     S
O1528  Zn1406  1.988   1_655 S
O1529  Zn1533  1.988   .     S
O1530  Zn1534  1.985   .     S
O1531  Zn1405  1.985   1_655 S
O1532  Zn1279  1.973   1_565 S
