data_str_m2_o1_o2_pcu_sym.60
_audit_creation_date              2020-01-03
_audit_creation_method            'Materials Studio'
_symmetry_space_group_name_H-M    'P1'
_symmetry_Int_Tables_number       1
_symmetry_cell_setting            triclinic
loop_
_symmetry_equiv_pos_as_xyz
  x,y,z
_cell_length_a                    32.7068
_cell_length_b                    29.0955
_cell_length_c                    30.3320
_cell_angle_alpha                 90.3488
_cell_angle_beta                  101.1045
_cell_angle_gamma                 91.5351
loop_
_atom_site_label
_atom_site_type_symbol
_atom_site_fract_x
_atom_site_fract_y
_atom_site_fract_z
_atom_site_U_iso_or_equiv
_atom_site_adp_type
_atom_site_occupancy
C1     C     0.08822   0.16616   0.25415   0.00000  Uiso   1.00
C2     C     0.31471   0.20981   0.25052   0.00000  Uiso   1.00
C3     C     0.31053   0.12601   0.24128   0.00000  Uiso   1.00
C4     C     0.02464   0.20664   0.26582   0.00000  Uiso   1.00
C5     C     0.15670   0.20689   0.04601   0.00000  Uiso   1.00
C6     C     0.15280   0.12780   0.44925   0.00000  Uiso   1.00
C7     C     0.17860   0.20692   0.45477   0.00000  Uiso   1.00
C8     C     0.17766   0.12755   0.04934   0.00000  Uiso   1.00
C9     C     0.15769   0.20681   0.09202   0.00000  Uiso   1.00
C10    C     0.15302   0.12757   0.40347   0.00000  Uiso   1.00
C11    C     0.17788   0.20692   0.40881   0.00000  Uiso   1.00
C12    C     0.24541   0.16728   0.24640   0.00000  Uiso   1.00
C13    C     0.17769   0.12724   0.09517   0.00000  Uiso   1.00
C14    C     0.16757   0.16679   0.11689   0.00000  Uiso   1.00
C15    C     0.16569   0.16707   0.38294   0.00000  Uiso   1.00
C16    C     0.16676   0.16726   0.02420   0.00000  Uiso   1.00
C17    C     0.16603   0.16734   0.47546   0.00000  Uiso   1.00
C18    C     0.29024   0.16828   0.24315   0.00000  Uiso   1.00
C19    C     0.04414   0.16538   0.25977   0.00000  Uiso   1.00
C20    C     0.16730   0.16662   0.16519   0.00000  Uiso   1.00
C21    C     0.16613   0.16677   0.33478   0.00000  Uiso   1.00
C22    C     0.13928   0.02399   0.21692   0.00000  Uiso   1.00
C23    C     0.19470   0.30924   0.28207   0.00000  Uiso   1.00
C24    C     0.19437   0.02617   0.28277   0.00000  Uiso   1.00
C25    C     0.13861   0.30703   0.21775   0.00000  Uiso   1.00
C26    C     0.02031   0.12436   0.25566   0.00000  Uiso   1.00
Cu27   Cu    0.16667   0.21355   0.25000   0.00000  Uiso   1.00
Cu28   Cu    0.16667   0.11978   0.25000   0.00000  Uiso   1.00
H29    H     0.14758   0.23787   0.02752   0.00000  Uiso   1.00
H30    H     0.26702   0.22022   0.34847   0.00000  Uiso   1.00
H31    H     0.25315   0.12232   0.36005   0.00000  Uiso   1.00
H32    H     0.06719   0.21276   0.14911   0.00000  Uiso   1.00
H33    H     0.08817   0.03105   0.27340   0.00000  Uiso   1.00
H34    H     0.30369   0.27726   0.14905   0.00000  Uiso   1.00
H35    H     0.32714   0.07401   0.16209   0.00000  Uiso   1.00
H36    H     0.03628   0.29648   0.35312   0.00000  Uiso   1.00
H37    H     0.14194   0.09712   0.46399   0.00000  Uiso   1.00
H38    H     0.18956   0.23773   0.47411   0.00000  Uiso   1.00
H39    H     0.18661   0.09680   0.03374   0.00000  Uiso   1.00
H40    H     0.15026   0.23797   0.10795   0.00000  Uiso   1.00
H41    H     0.14284   0.09660   0.38414   0.00000  Uiso   1.00
H42    H     0.18741   0.23793   0.39369   0.00000  Uiso   1.00
H43    H     0.18613   0.09616   0.11352   0.00000  Uiso   1.00
H44    H     0.08014   0.11579   0.14081   0.00000  Uiso   1.00
N45    N     0.16667   0.28402   0.25000   0.00000  Uiso   1.00
N46    N     0.16667   0.04931   0.25000   0.00000  Uiso   1.00
O47    O     0.10655   0.20625   0.24999   0.00000  Uiso   1.00
O48    O     0.06320   0.03027   0.15734   0.00000  Uiso   1.00
O49    O     0.09370   0.10780   0.17181   0.00000  Uiso   1.00
O50    O     0.27523   0.29585   0.30728   0.00000  Uiso   1.00
O51    O     0.23572   0.29920   0.36819   0.00000  Uiso   1.00
O52    O     0.23953   0.22450   0.32872   0.00000  Uiso   1.00
O53    O     0.20698   0.05054   0.37000   0.00000  Uiso   1.00
O54    O     0.27058   0.03802   0.34221   0.00000  Uiso   1.00
O55    O     0.23981   0.11349   0.32888   0.00000  Uiso   1.00
O56    O     0.05738   0.28778   0.19075   0.00000  Uiso   1.00
O57    O     0.09836   0.29339   0.13120   0.00000  Uiso   1.00
O58    O     0.22679   0.12709   0.25001   0.00000  Uiso   1.00
O59    O     0.09389   0.21883   0.17034   0.00000  Uiso   1.00
O60    O     0.07345   0.09172   0.32578   0.00000  Uiso   1.00
O61    O     0.00744   0.04918   0.30342   0.00000  Uiso   1.00
O62    O     0.06248   0.04120   0.25350   0.00000  Uiso   1.00
O63    O     0.25445   0.27067   0.21156   0.00000  Uiso   1.00
O64    O     0.32535   0.30051   0.23662   0.00000  Uiso   1.00
O65    O     0.30938   0.24822   0.16571   0.00000  Uiso   1.00
O66    O     0.26779   0.04510   0.23811   0.00000  Uiso   1.00
O67    O     0.25079   0.09494   0.17298   0.00000  Uiso   1.00
O68    O     0.31970   0.05153   0.18385   0.00000  Uiso   1.00
O69    O     0.22679   0.20625   0.25000   0.00000  Uiso   1.00
O70    O     0.08211   0.22116   0.34080   0.00000  Uiso   1.00
O71    O     0.07527   0.28155   0.28461   0.00000  Uiso   1.00
O72    O     0.01879   0.27325   0.33351   0.00000  Uiso   1.00
O73    O     0.10655   0.12709   0.24999   0.00000  Uiso   1.00
O74    O     0.16666   0.20626   0.18573   0.00000  Uiso   1.00
O75    O     0.16667   0.12707   0.31427   0.00000  Uiso   1.00
O76    O     0.16667   0.20626   0.31427   0.00000  Uiso   1.00
O77    O     0.16666   0.12707   0.18573   0.00000  Uiso   1.00
O78    O     0.12669   0.04696   0.12979   0.00000  Uiso   1.00
S79    S     0.10573   0.05243   0.16936   0.00000  Uiso   1.00
S80    S     0.23556   0.28131   0.32161   0.00000  Uiso   1.00
S81    S     0.22793   0.05726   0.33047   0.00000  Uiso   1.00
S82    S     0.09776   0.27600   0.17759   0.00000  Uiso   1.00
S83    S     0.04094   0.07579   0.28625   0.00000  Uiso   1.00
S84    S     0.29957   0.25919   0.21710   0.00000  Uiso   1.00
S85    S     0.28541   0.07858   0.20880   0.00000  Uiso   1.00
S86    S     0.05171   0.24648   0.30661   0.00000  Uiso   1.00
C87    C     0.42155   0.16616   0.25415   0.00000  Uiso   1.00
C88    C     0.64804   0.20981   0.25052   0.00000  Uiso   1.00
C89    C     0.64386   0.12601   0.24128   0.00000  Uiso   1.00
C90    C     0.35797   0.20664   0.26582   0.00000  Uiso   1.00
C91    C     0.49004   0.20689   0.04601   0.00000  Uiso   1.00
C92    C     0.48614   0.12780   0.44925   0.00000  Uiso   1.00
C93    C     0.51194   0.20692   0.45477   0.00000  Uiso   1.00
C94    C     0.51100   0.12755   0.04934   0.00000  Uiso   1.00
C95    C     0.49102   0.20681   0.09202   0.00000  Uiso   1.00
C96    C     0.48635   0.12757   0.40347   0.00000  Uiso   1.00
C97    C     0.51122   0.20692   0.40881   0.00000  Uiso   1.00
C98    C     0.57875   0.16728   0.24640   0.00000  Uiso   1.00
C99    C     0.51102   0.12724   0.09517   0.00000  Uiso   1.00
C100   C     0.50090   0.16679   0.11689   0.00000  Uiso   1.00
C101   C     0.49902   0.16707   0.38294   0.00000  Uiso   1.00
C102   C     0.50009   0.16726   0.02420   0.00000  Uiso   1.00
C103   C     0.49936   0.16734   0.47546   0.00000  Uiso   1.00
C104   C     0.62358   0.16828   0.24315   0.00000  Uiso   1.00
C105   C     0.37747   0.16538   0.25977   0.00000  Uiso   1.00
C106   C     0.50064   0.16662   0.16519   0.00000  Uiso   1.00
C107   C     0.49947   0.16677   0.33478   0.00000  Uiso   1.00
C108   C     0.47261   0.02399   0.21692   0.00000  Uiso   1.00
C109   C     0.52803   0.30924   0.28207   0.00000  Uiso   1.00
C110   C     0.52770   0.02617   0.28277   0.00000  Uiso   1.00
C111   C     0.47195   0.30703   0.21775   0.00000  Uiso   1.00
C112   C     0.35365   0.12436   0.25566   0.00000  Uiso   1.00
Cu113  Cu    0.50000   0.21355   0.25000   0.00000  Uiso   1.00
Cu114  Cu    0.50000   0.11978   0.25000   0.00000  Uiso   1.00
H115   H     0.48092   0.23787   0.02752   0.00000  Uiso   1.00
H116   H     0.60035   0.22022   0.34847   0.00000  Uiso   1.00
H117   H     0.58648   0.12232   0.36005   0.00000  Uiso   1.00
H118   H     0.40052   0.21276   0.14911   0.00000  Uiso   1.00
H119   H     0.42150   0.03105   0.27340   0.00000  Uiso   1.00
H120   H     0.63702   0.27726   0.14905   0.00000  Uiso   1.00
H121   H     0.66047   0.07401   0.16209   0.00000  Uiso   1.00
H122   H     0.36961   0.29648   0.35312   0.00000  Uiso   1.00
H123   H     0.47527   0.09712   0.46399   0.00000  Uiso   1.00
H124   H     0.52290   0.23773   0.47411   0.00000  Uiso   1.00
H125   H     0.51994   0.09680   0.03374   0.00000  Uiso   1.00
H126   H     0.48360   0.23797   0.10795   0.00000  Uiso   1.00
H127   H     0.47617   0.09660   0.38414   0.00000  Uiso   1.00
H128   H     0.52074   0.23793   0.39369   0.00000  Uiso   1.00
H129   H     0.51946   0.09616   0.11352   0.00000  Uiso   1.00
H130   H     0.41347   0.11579   0.14081   0.00000  Uiso   1.00
N131   N     0.50000   0.28402   0.25000   0.00000  Uiso   1.00
N132   N     0.50000   0.04931   0.25000   0.00000  Uiso   1.00
O133   O     0.43988   0.20625   0.24999   0.00000  Uiso   1.00
O134   O     0.39653   0.03027   0.15734   0.00000  Uiso   1.00
O135   O     0.42703   0.10780   0.17181   0.00000  Uiso   1.00
O136   O     0.60856   0.29585   0.30728   0.00000  Uiso   1.00
O137   O     0.56906   0.29920   0.36819   0.00000  Uiso   1.00
O138   O     0.57287   0.22450   0.32872   0.00000  Uiso   1.00
O139   O     0.54031   0.05054   0.37000   0.00000  Uiso   1.00
O140   O     0.60392   0.03802   0.34221   0.00000  Uiso   1.00
O141   O     0.57314   0.11349   0.32888   0.00000  Uiso   1.00
O142   O     0.39071   0.28778   0.19075   0.00000  Uiso   1.00
O143   O     0.43169   0.29339   0.13120   0.00000  Uiso   1.00
O144   O     0.56012   0.12709   0.25001   0.00000  Uiso   1.00
O145   O     0.42722   0.21883   0.17034   0.00000  Uiso   1.00
O146   O     0.40679   0.09172   0.32578   0.00000  Uiso   1.00
O147   O     0.34078   0.04918   0.30342   0.00000  Uiso   1.00
O148   O     0.39582   0.04120   0.25350   0.00000  Uiso   1.00
O149   O     0.58779   0.27067   0.21156   0.00000  Uiso   1.00
O150   O     0.65869   0.30051   0.23662   0.00000  Uiso   1.00
O151   O     0.64271   0.24822   0.16571   0.00000  Uiso   1.00
O152   O     0.60112   0.04510   0.23811   0.00000  Uiso   1.00
O153   O     0.58412   0.09494   0.17298   0.00000  Uiso   1.00
O154   O     0.65304   0.05153   0.18385   0.00000  Uiso   1.00
O155   O     0.56012   0.20625   0.25000   0.00000  Uiso   1.00
O156   O     0.41545   0.22116   0.34080   0.00000  Uiso   1.00
O157   O     0.40860   0.28155   0.28461   0.00000  Uiso   1.00
O158   O     0.35212   0.27325   0.33351   0.00000  Uiso   1.00
O159   O     0.43988   0.12709   0.24999   0.00000  Uiso   1.00
O160   O     0.50000   0.20626   0.18573   0.00000  Uiso   1.00
O161   O     0.50000   0.12707   0.31427   0.00000  Uiso   1.00
O162   O     0.50000   0.20626   0.31427   0.00000  Uiso   1.00
O163   O     0.50000   0.12707   0.18573   0.00000  Uiso   1.00
O164   O     0.46002   0.04696   0.12979   0.00000  Uiso   1.00
S165   S     0.43907   0.05243   0.16936   0.00000  Uiso   1.00
S166   S     0.56890   0.28131   0.32161   0.00000  Uiso   1.00
S167   S     0.56127   0.05726   0.33047   0.00000  Uiso   1.00
S168   S     0.43110   0.27600   0.17759   0.00000  Uiso   1.00
S169   S     0.37427   0.07579   0.28625   0.00000  Uiso   1.00
S170   S     0.63290   0.25919   0.21710   0.00000  Uiso   1.00
S171   S     0.61874   0.07858   0.20880   0.00000  Uiso   1.00
S172   S     0.38505   0.24648   0.30661   0.00000  Uiso   1.00
C173   C     0.75489   0.16616   0.25415   0.00000  Uiso   1.00
C174   C     0.98138   0.20981   0.25052   0.00000  Uiso   1.00
C175   C     0.97719   0.12601   0.24128   0.00000  Uiso   1.00
C176   C     0.69131   0.20664   0.26582   0.00000  Uiso   1.00
C177   C     0.82337   0.20689   0.04601   0.00000  Uiso   1.00
C178   C     0.81947   0.12780   0.44925   0.00000  Uiso   1.00
C179   C     0.84527   0.20692   0.45477   0.00000  Uiso   1.00
C180   C     0.84433   0.12755   0.04934   0.00000  Uiso   1.00
C181   C     0.82436   0.20681   0.09202   0.00000  Uiso   1.00
C182   C     0.81969   0.12757   0.40347   0.00000  Uiso   1.00
C183   C     0.84455   0.20692   0.40881   0.00000  Uiso   1.00
C184   C     0.91208   0.16728   0.24640   0.00000  Uiso   1.00
C185   C     0.84435   0.12724   0.09517   0.00000  Uiso   1.00
C186   C     0.83424   0.16679   0.11689   0.00000  Uiso   1.00
C187   C     0.83236   0.16707   0.38294   0.00000  Uiso   1.00
C188   C     0.83342   0.16726   0.02420   0.00000  Uiso   1.00
C189   C     0.83270   0.16734   0.47546   0.00000  Uiso   1.00
C190   C     0.95691   0.16828   0.24315   0.00000  Uiso   1.00
C191   C     0.71080   0.16538   0.25977   0.00000  Uiso   1.00
C192   C     0.83397   0.16662   0.16519   0.00000  Uiso   1.00
C193   C     0.83280   0.16677   0.33478   0.00000  Uiso   1.00
C194   C     0.80594   0.02399   0.21692   0.00000  Uiso   1.00
C195   C     0.86136   0.30924   0.28207   0.00000  Uiso   1.00
C196   C     0.86104   0.02617   0.28277   0.00000  Uiso   1.00
C197   C     0.80528   0.30703   0.21775   0.00000  Uiso   1.00
C198   C     0.68698   0.12436   0.25566   0.00000  Uiso   1.00
Cu199  Cu    0.83333   0.21355   0.25000   0.00000  Uiso   1.00
Cu200  Cu    0.83333   0.11978   0.25000   0.00000  Uiso   1.00
H201   H     0.81425   0.23787   0.02752   0.00000  Uiso   1.00
H202   H     0.93369   0.22022   0.34847   0.00000  Uiso   1.00
H203   H     0.91982   0.12232   0.36005   0.00000  Uiso   1.00
H204   H     0.73385   0.21276   0.14911   0.00000  Uiso   1.00
H205   H     0.75483   0.03105   0.27340   0.00000  Uiso   1.00
H206   H     0.97036   0.27726   0.14905   0.00000  Uiso   1.00
H207   H     0.99380   0.07401   0.16209   0.00000  Uiso   1.00
H208   H     0.70294   0.29648   0.35312   0.00000  Uiso   1.00
H209   H     0.80861   0.09712   0.46399   0.00000  Uiso   1.00
H210   H     0.85623   0.23773   0.47411   0.00000  Uiso   1.00
H211   H     0.85328   0.09680   0.03374   0.00000  Uiso   1.00
H212   H     0.81693   0.23797   0.10795   0.00000  Uiso   1.00
H213   H     0.80951   0.09660   0.38414   0.00000  Uiso   1.00
H214   H     0.85408   0.23793   0.39369   0.00000  Uiso   1.00
H215   H     0.85279   0.09616   0.11352   0.00000  Uiso   1.00
H216   H     0.74681   0.11579   0.14081   0.00000  Uiso   1.00
N217   N     0.83333   0.28402   0.25000   0.00000  Uiso   1.00
N218   N     0.83333   0.04931   0.25000   0.00000  Uiso   1.00
O219   O     0.77321   0.20625   0.24999   0.00000  Uiso   1.00
O220   O     0.72987   0.03027   0.15734   0.00000  Uiso   1.00
O221   O     0.76036   0.10780   0.17181   0.00000  Uiso   1.00
O222   O     0.94189   0.29585   0.30728   0.00000  Uiso   1.00
O223   O     0.90239   0.29920   0.36819   0.00000  Uiso   1.00
O224   O     0.90620   0.22450   0.32872   0.00000  Uiso   1.00
O225   O     0.87364   0.05054   0.37000   0.00000  Uiso   1.00
O226   O     0.93725   0.03802   0.34221   0.00000  Uiso   1.00
O227   O     0.90648   0.11349   0.32888   0.00000  Uiso   1.00
O228   O     0.72404   0.28778   0.19075   0.00000  Uiso   1.00
O229   O     0.76503   0.29339   0.13120   0.00000  Uiso   1.00
O230   O     0.89345   0.12709   0.25001   0.00000  Uiso   1.00
O231   O     0.76055   0.21883   0.17034   0.00000  Uiso   1.00
O232   O     0.74012   0.09172   0.32578   0.00000  Uiso   1.00
O233   O     0.67411   0.04918   0.30342   0.00000  Uiso   1.00
O234   O     0.72915   0.04120   0.25350   0.00000  Uiso   1.00
O235   O     0.92112   0.27067   0.21156   0.00000  Uiso   1.00
O236   O     0.99202   0.30051   0.23662   0.00000  Uiso   1.00
O237   O     0.97604   0.24822   0.16571   0.00000  Uiso   1.00
O238   O     0.93445   0.04510   0.23811   0.00000  Uiso   1.00
O239   O     0.91745   0.09494   0.17298   0.00000  Uiso   1.00
O240   O     0.98637   0.05153   0.18385   0.00000  Uiso   1.00
O241   O     0.89345   0.20625   0.25000   0.00000  Uiso   1.00
O242   O     0.74878   0.22116   0.34080   0.00000  Uiso   1.00
O243   O     0.74194   0.28155   0.28461   0.00000  Uiso   1.00
O244   O     0.68546   0.27325   0.33351   0.00000  Uiso   1.00
O245   O     0.77321   0.12709   0.24999   0.00000  Uiso   1.00
O246   O     0.83333   0.20626   0.18573   0.00000  Uiso   1.00
O247   O     0.83334   0.12707   0.31427   0.00000  Uiso   1.00
O248   O     0.83334   0.20626   0.31427   0.00000  Uiso   1.00
O249   O     0.83333   0.12707   0.18573   0.00000  Uiso   1.00
O250   O     0.79336   0.04696   0.12979   0.00000  Uiso   1.00
S251   S     0.77240   0.05243   0.16936   0.00000  Uiso   1.00
S252   S     0.90223   0.28131   0.32161   0.00000  Uiso   1.00
S253   S     0.89460   0.05726   0.33047   0.00000  Uiso   1.00
S254   S     0.76443   0.27600   0.17759   0.00000  Uiso   1.00
S255   S     0.70760   0.07579   0.28625   0.00000  Uiso   1.00
S256   S     0.96624   0.25919   0.21710   0.00000  Uiso   1.00
S257   S     0.95208   0.07858   0.20880   0.00000  Uiso   1.00
S258   S     0.71838   0.24648   0.30661   0.00000  Uiso   1.00
C259   C     0.08822   0.49949   0.25415   0.00000  Uiso   1.00
C260   C     0.31471   0.54314   0.25052   0.00000  Uiso   1.00
C261   C     0.31053   0.45935   0.24128   0.00000  Uiso   1.00
C262   C     0.02464   0.53998   0.26582   0.00000  Uiso   1.00
C263   C     0.15670   0.54023   0.04601   0.00000  Uiso   1.00
C264   C     0.15280   0.46113   0.44925   0.00000  Uiso   1.00
C265   C     0.17860   0.54025   0.45477   0.00000  Uiso   1.00
C266   C     0.17766   0.46088   0.04934   0.00000  Uiso   1.00
C267   C     0.15769   0.54014   0.09202   0.00000  Uiso   1.00
C268   C     0.15302   0.46090   0.40347   0.00000  Uiso   1.00
C269   C     0.17788   0.54026   0.40881   0.00000  Uiso   1.00
C270   C     0.24541   0.50062   0.24640   0.00000  Uiso   1.00
C271   C     0.17769   0.46058   0.09517   0.00000  Uiso   1.00
C272   C     0.16757   0.50013   0.11689   0.00000  Uiso   1.00
C273   C     0.16569   0.50041   0.38294   0.00000  Uiso   1.00
C274   C     0.16676   0.50059   0.02420   0.00000  Uiso   1.00
C275   C     0.16603   0.50067   0.47546   0.00000  Uiso   1.00
C276   C     0.29024   0.50161   0.24315   0.00000  Uiso   1.00
C277   C     0.04414   0.49871   0.25977   0.00000  Uiso   1.00
C278   C     0.16730   0.49995   0.16519   0.00000  Uiso   1.00
C279   C     0.16613   0.50011   0.33478   0.00000  Uiso   1.00
C280   C     0.13928   0.35733   0.21692   0.00000  Uiso   1.00
C281   C     0.19470   0.64257   0.28207   0.00000  Uiso   1.00
C282   C     0.19437   0.35951   0.28277   0.00000  Uiso   1.00
C283   C     0.13861   0.64036   0.21775   0.00000  Uiso   1.00
C284   C     0.02031   0.45770   0.25566   0.00000  Uiso   1.00
Cu285  Cu    0.16667   0.54689   0.25000   0.00000  Uiso   1.00
Cu286  Cu    0.16667   0.45311   0.25000   0.00000  Uiso   1.00
H287   H     0.14758   0.57120   0.02752   0.00000  Uiso   1.00
H288   H     0.26702   0.55355   0.34847   0.00000  Uiso   1.00
H289   H     0.25315   0.45565   0.36005   0.00000  Uiso   1.00
H290   H     0.06719   0.54610   0.14911   0.00000  Uiso   1.00
H291   H     0.08817   0.36438   0.27340   0.00000  Uiso   1.00
H292   H     0.30369   0.61060   0.14905   0.00000  Uiso   1.00
H293   H     0.32714   0.40734   0.16209   0.00000  Uiso   1.00
H294   H     0.03628   0.62982   0.35312   0.00000  Uiso   1.00
H295   H     0.14194   0.43045   0.46399   0.00000  Uiso   1.00
H296   H     0.18956   0.57106   0.47411   0.00000  Uiso   1.00
H297   H     0.18661   0.43013   0.03374   0.00000  Uiso   1.00
H298   H     0.15026   0.57131   0.10795   0.00000  Uiso   1.00
H299   H     0.14284   0.42993   0.38414   0.00000  Uiso   1.00
H300   H     0.18741   0.57126   0.39369   0.00000  Uiso   1.00
H301   H     0.18613   0.42949   0.11352   0.00000  Uiso   1.00
H302   H     0.08014   0.44912   0.14081   0.00000  Uiso   1.00
N303   N     0.16667   0.61736   0.25000   0.00000  Uiso   1.00
N304   N     0.16667   0.38264   0.25000   0.00000  Uiso   1.00
O305   O     0.10655   0.53958   0.24999   0.00000  Uiso   1.00
O306   O     0.06320   0.36361   0.15734   0.00000  Uiso   1.00
O307   O     0.09370   0.44113   0.17181   0.00000  Uiso   1.00
O308   O     0.27523   0.62918   0.30728   0.00000  Uiso   1.00
O309   O     0.23572   0.63254   0.36819   0.00000  Uiso   1.00
O310   O     0.23953   0.55783   0.32872   0.00000  Uiso   1.00
O311   O     0.20698   0.38387   0.37000   0.00000  Uiso   1.00
O312   O     0.27058   0.37135   0.34221   0.00000  Uiso   1.00
O313   O     0.23981   0.44682   0.32888   0.00000  Uiso   1.00
O314   O     0.05738   0.62111   0.19075   0.00000  Uiso   1.00
O315   O     0.09836   0.62673   0.13120   0.00000  Uiso   1.00
O316   O     0.22679   0.46042   0.25001   0.00000  Uiso   1.00
O317   O     0.09389   0.55216   0.17034   0.00000  Uiso   1.00
O318   O     0.07345   0.42505   0.32578   0.00000  Uiso   1.00
O319   O     0.00744   0.38251   0.30342   0.00000  Uiso   1.00
O320   O     0.06248   0.37453   0.25350   0.00000  Uiso   1.00
O321   O     0.25445   0.60401   0.21156   0.00000  Uiso   1.00
O322   O     0.32535   0.63384   0.23662   0.00000  Uiso   1.00
O323   O     0.30938   0.58155   0.16571   0.00000  Uiso   1.00
O324   O     0.26779   0.37843   0.23811   0.00000  Uiso   1.00
O325   O     0.25079   0.42827   0.17298   0.00000  Uiso   1.00
O326   O     0.31970   0.38486   0.18385   0.00000  Uiso   1.00
O327   O     0.22679   0.53958   0.25000   0.00000  Uiso   1.00
O328   O     0.08211   0.55449   0.34080   0.00000  Uiso   1.00
O329   O     0.07527   0.61488   0.28461   0.00000  Uiso   1.00
O330   O     0.01879   0.60658   0.33351   0.00000  Uiso   1.00
O331   O     0.10655   0.46042   0.24999   0.00000  Uiso   1.00
O332   O     0.16666   0.53959   0.18573   0.00000  Uiso   1.00
O333   O     0.16667   0.46041   0.31427   0.00000  Uiso   1.00
O334   O     0.16667   0.53959   0.31427   0.00000  Uiso   1.00
O335   O     0.16666   0.46041   0.18573   0.00000  Uiso   1.00
O336   O     0.12669   0.38030   0.12979   0.00000  Uiso   1.00
S337   S     0.10573   0.38577   0.16936   0.00000  Uiso   1.00
S338   S     0.23556   0.61464   0.32161   0.00000  Uiso   1.00
S339   S     0.22793   0.39059   0.33047   0.00000  Uiso   1.00
S340   S     0.09776   0.60933   0.17759   0.00000  Uiso   1.00
S341   S     0.04094   0.40913   0.28625   0.00000  Uiso   1.00
S342   S     0.29957   0.59252   0.21710   0.00000  Uiso   1.00
S343   S     0.28541   0.41192   0.20880   0.00000  Uiso   1.00
S344   S     0.05171   0.57981   0.30661   0.00000  Uiso   1.00
C345   C     0.42155   0.49949   0.25415   0.00000  Uiso   1.00
C346   C     0.64804   0.54314   0.25052   0.00000  Uiso   1.00
C347   C     0.64386   0.45935   0.24128   0.00000  Uiso   1.00
C348   C     0.35797   0.53998   0.26582   0.00000  Uiso   1.00
C349   C     0.49004   0.54023   0.04601   0.00000  Uiso   1.00
C350   C     0.48614   0.46113   0.44925   0.00000  Uiso   1.00
C351   C     0.51194   0.54025   0.45477   0.00000  Uiso   1.00
C352   C     0.51100   0.46088   0.04934   0.00000  Uiso   1.00
C353   C     0.49102   0.54014   0.09202   0.00000  Uiso   1.00
C354   C     0.48635   0.46090   0.40347   0.00000  Uiso   1.00
C355   C     0.51122   0.54026   0.40881   0.00000  Uiso   1.00
C356   C     0.57875   0.50062   0.24640   0.00000  Uiso   1.00
C357   C     0.51102   0.46058   0.09517   0.00000  Uiso   1.00
C358   C     0.50090   0.50013   0.11689   0.00000  Uiso   1.00
C359   C     0.49902   0.50041   0.38294   0.00000  Uiso   1.00
C360   C     0.50009   0.50059   0.02420   0.00000  Uiso   1.00
C361   C     0.49936   0.50067   0.47546   0.00000  Uiso   1.00
C362   C     0.62358   0.50161   0.24315   0.00000  Uiso   1.00
C363   C     0.37747   0.49871   0.25977   0.00000  Uiso   1.00
C364   C     0.50064   0.49995   0.16519   0.00000  Uiso   1.00
C365   C     0.49947   0.50011   0.33478   0.00000  Uiso   1.00
C366   C     0.47261   0.35733   0.21692   0.00000  Uiso   1.00
C367   C     0.52803   0.64257   0.28207   0.00000  Uiso   1.00
C368   C     0.52770   0.35951   0.28277   0.00000  Uiso   1.00
C369   C     0.47195   0.64036   0.21775   0.00000  Uiso   1.00
C370   C     0.35365   0.45770   0.25566   0.00000  Uiso   1.00
Cu371  Cu    0.50000   0.54689   0.25000   0.00000  Uiso   1.00
Cu372  Cu    0.50000   0.45311   0.25000   0.00000  Uiso   1.00
H373   H     0.48092   0.57120   0.02752   0.00000  Uiso   1.00
H374   H     0.60035   0.55355   0.34847   0.00000  Uiso   1.00
H375   H     0.58648   0.45565   0.36005   0.00000  Uiso   1.00
H376   H     0.40052   0.54610   0.14911   0.00000  Uiso   1.00
H377   H     0.42150   0.36438   0.27340   0.00000  Uiso   1.00
H378   H     0.63702   0.61060   0.14905   0.00000  Uiso   1.00
H379   H     0.66047   0.40734   0.16209   0.00000  Uiso   1.00
H380   H     0.36961   0.62982   0.35312   0.00000  Uiso   1.00
H381   H     0.47527   0.43045   0.46399   0.00000  Uiso   1.00
H382   H     0.52290   0.57106   0.47411   0.00000  Uiso   1.00
H383   H     0.51994   0.43013   0.03374   0.00000  Uiso   1.00
H384   H     0.48360   0.57131   0.10795   0.00000  Uiso   1.00
H385   H     0.47617   0.42993   0.38414   0.00000  Uiso   1.00
H386   H     0.52074   0.57126   0.39369   0.00000  Uiso   1.00
H387   H     0.51946   0.42949   0.11352   0.00000  Uiso   1.00
H388   H     0.41347   0.44912   0.14081   0.00000  Uiso   1.00
N389   N     0.50000   0.61736   0.25000   0.00000  Uiso   1.00
N390   N     0.50000   0.38264   0.25000   0.00000  Uiso   1.00
O391   O     0.43988   0.53958   0.24999   0.00000  Uiso   1.00
O392   O     0.39653   0.36361   0.15734   0.00000  Uiso   1.00
O393   O     0.42703   0.44113   0.17181   0.00000  Uiso   1.00
O394   O     0.60856   0.62918   0.30728   0.00000  Uiso   1.00
O395   O     0.56906   0.63254   0.36819   0.00000  Uiso   1.00
O396   O     0.57287   0.55783   0.32872   0.00000  Uiso   1.00
O397   O     0.54031   0.38387   0.37000   0.00000  Uiso   1.00
O398   O     0.60392   0.37135   0.34221   0.00000  Uiso   1.00
O399   O     0.57314   0.44682   0.32888   0.00000  Uiso   1.00
O400   O     0.39071   0.62111   0.19075   0.00000  Uiso   1.00
O401   O     0.43169   0.62673   0.13120   0.00000  Uiso   1.00
O402   O     0.56012   0.46042   0.25001   0.00000  Uiso   1.00
O403   O     0.42722   0.55216   0.17034   0.00000  Uiso   1.00
O404   O     0.40679   0.42505   0.32578   0.00000  Uiso   1.00
O405   O     0.34078   0.38251   0.30342   0.00000  Uiso   1.00
O406   O     0.39582   0.37453   0.25350   0.00000  Uiso   1.00
O407   O     0.58779   0.60401   0.21156   0.00000  Uiso   1.00
O408   O     0.65869   0.63384   0.23662   0.00000  Uiso   1.00
O409   O     0.64271   0.58155   0.16571   0.00000  Uiso   1.00
O410   O     0.60112   0.37843   0.23811   0.00000  Uiso   1.00
O411   O     0.58412   0.42827   0.17298   0.00000  Uiso   1.00
O412   O     0.65304   0.38486   0.18385   0.00000  Uiso   1.00
O413   O     0.56012   0.53958   0.25000   0.00000  Uiso   1.00
O414   O     0.41545   0.55449   0.34080   0.00000  Uiso   1.00
O415   O     0.40860   0.61488   0.28461   0.00000  Uiso   1.00
O416   O     0.35212   0.60658   0.33351   0.00000  Uiso   1.00
O417   O     0.43988   0.46042   0.24999   0.00000  Uiso   1.00
O418   O     0.50000   0.53959   0.18573   0.00000  Uiso   1.00
O419   O     0.50000   0.46041   0.31427   0.00000  Uiso   1.00
O420   O     0.50000   0.53959   0.31427   0.00000  Uiso   1.00
O421   O     0.50000   0.46041   0.18573   0.00000  Uiso   1.00
O422   O     0.46002   0.38030   0.12979   0.00000  Uiso   1.00
S423   S     0.43907   0.38577   0.16936   0.00000  Uiso   1.00
S424   S     0.56890   0.61464   0.32161   0.00000  Uiso   1.00
S425   S     0.56127   0.39059   0.33047   0.00000  Uiso   1.00
S426   S     0.43110   0.60933   0.17759   0.00000  Uiso   1.00
S427   S     0.37427   0.40913   0.28625   0.00000  Uiso   1.00
S428   S     0.63290   0.59252   0.21710   0.00000  Uiso   1.00
S429   S     0.61874   0.41192   0.20880   0.00000  Uiso   1.00
S430   S     0.38505   0.57981   0.30661   0.00000  Uiso   1.00
C431   C     0.75489   0.49949   0.25415   0.00000  Uiso   1.00
C432   C     0.98138   0.54314   0.25052   0.00000  Uiso   1.00
C433   C     0.97719   0.45935   0.24128   0.00000  Uiso   1.00
C434   C     0.69131   0.53998   0.26582   0.00000  Uiso   1.00
C435   C     0.82337   0.54023   0.04601   0.00000  Uiso   1.00
C436   C     0.81947   0.46113   0.44925   0.00000  Uiso   1.00
C437   C     0.84527   0.54025   0.45477   0.00000  Uiso   1.00
C438   C     0.84433   0.46088   0.04934   0.00000  Uiso   1.00
C439   C     0.82436   0.54014   0.09202   0.00000  Uiso   1.00
C440   C     0.81969   0.46090   0.40347   0.00000  Uiso   1.00
C441   C     0.84455   0.54026   0.40881   0.00000  Uiso   1.00
C442   C     0.91208   0.50062   0.24640   0.00000  Uiso   1.00
C443   C     0.84435   0.46058   0.09517   0.00000  Uiso   1.00
C444   C     0.83424   0.50013   0.11689   0.00000  Uiso   1.00
C445   C     0.83236   0.50041   0.38294   0.00000  Uiso   1.00
C446   C     0.83342   0.50059   0.02420   0.00000  Uiso   1.00
C447   C     0.83270   0.50067   0.47546   0.00000  Uiso   1.00
C448   C     0.95691   0.50161   0.24315   0.00000  Uiso   1.00
C449   C     0.71080   0.49871   0.25977   0.00000  Uiso   1.00
C450   C     0.83397   0.49995   0.16519   0.00000  Uiso   1.00
C451   C     0.83280   0.50011   0.33478   0.00000  Uiso   1.00
C452   C     0.80594   0.35733   0.21692   0.00000  Uiso   1.00
C453   C     0.86136   0.64257   0.28207   0.00000  Uiso   1.00
C454   C     0.86104   0.35951   0.28277   0.00000  Uiso   1.00
C455   C     0.80528   0.64036   0.21775   0.00000  Uiso   1.00
C456   C     0.68698   0.45770   0.25566   0.00000  Uiso   1.00
Cu457  Cu    0.83333   0.54689   0.25000   0.00000  Uiso   1.00
Cu458  Cu    0.83333   0.45311   0.25000   0.00000  Uiso   1.00
H459   H     0.81425   0.57120   0.02752   0.00000  Uiso   1.00
H460   H     0.93369   0.55355   0.34847   0.00000  Uiso   1.00
H461   H     0.91982   0.45565   0.36005   0.00000  Uiso   1.00
H462   H     0.73385   0.54610   0.14911   0.00000  Uiso   1.00
H463   H     0.75483   0.36438   0.27340   0.00000  Uiso   1.00
H464   H     0.97036   0.61060   0.14905   0.00000  Uiso   1.00
H465   H     0.99380   0.40734   0.16209   0.00000  Uiso   1.00
H466   H     0.70294   0.62982   0.35312   0.00000  Uiso   1.00
H467   H     0.80861   0.43045   0.46399   0.00000  Uiso   1.00
H468   H     0.85623   0.57106   0.47411   0.00000  Uiso   1.00
H469   H     0.85328   0.43013   0.03374   0.00000  Uiso   1.00
H470   H     0.81693   0.57131   0.10795   0.00000  Uiso   1.00
H471   H     0.80951   0.42993   0.38414   0.00000  Uiso   1.00
H472   H     0.85408   0.57126   0.39369   0.00000  Uiso   1.00
H473   H     0.85279   0.42949   0.11352   0.00000  Uiso   1.00
H474   H     0.74681   0.44912   0.14081   0.00000  Uiso   1.00
N475   N     0.83333   0.61736   0.25000   0.00000  Uiso   1.00
N476   N     0.83333   0.38264   0.25000   0.00000  Uiso   1.00
O477   O     0.77321   0.53958   0.24999   0.00000  Uiso   1.00
O478   O     0.72987   0.36361   0.15734   0.00000  Uiso   1.00
O479   O     0.76036   0.44113   0.17181   0.00000  Uiso   1.00
O480   O     0.94189   0.62918   0.30728   0.00000  Uiso   1.00
O481   O     0.90239   0.63254   0.36819   0.00000  Uiso   1.00
O482   O     0.90620   0.55783   0.32872   0.00000  Uiso   1.00
O483   O     0.87364   0.38387   0.37000   0.00000  Uiso   1.00
O484   O     0.93725   0.37135   0.34221   0.00000  Uiso   1.00
O485   O     0.90648   0.44682   0.32888   0.00000  Uiso   1.00
O486   O     0.72404   0.62111   0.19075   0.00000  Uiso   1.00
O487   O     0.76503   0.62673   0.13120   0.00000  Uiso   1.00
O488   O     0.89345   0.46042   0.25001   0.00000  Uiso   1.00
O489   O     0.76055   0.55216   0.17034   0.00000  Uiso   1.00
O490   O     0.74012   0.42505   0.32578   0.00000  Uiso   1.00
O491   O     0.67411   0.38251   0.30342   0.00000  Uiso   1.00
O492   O     0.72915   0.37453   0.25350   0.00000  Uiso   1.00
O493   O     0.92112   0.60401   0.21156   0.00000  Uiso   1.00
O494   O     0.99202   0.63384   0.23662   0.00000  Uiso   1.00
O495   O     0.97604   0.58155   0.16571   0.00000  Uiso   1.00
O496   O     0.93445   0.37843   0.23811   0.00000  Uiso   1.00
O497   O     0.91745   0.42827   0.17298   0.00000  Uiso   1.00
O498   O     0.98637   0.38486   0.18385   0.00000  Uiso   1.00
O499   O     0.89345   0.53958   0.25000   0.00000  Uiso   1.00
O500   O     0.74878   0.55449   0.34080   0.00000  Uiso   1.00
O501   O     0.74194   0.61488   0.28461   0.00000  Uiso   1.00
O502   O     0.68546   0.60658   0.33351   0.00000  Uiso   1.00
O503   O     0.77321   0.46042   0.24999   0.00000  Uiso   1.00
O504   O     0.83333   0.53959   0.18573   0.00000  Uiso   1.00
O505   O     0.83334   0.46041   0.31427   0.00000  Uiso   1.00
O506   O     0.83334   0.53959   0.31427   0.00000  Uiso   1.00
O507   O     0.83333   0.46041   0.18573   0.00000  Uiso   1.00
O508   O     0.79336   0.38030   0.12979   0.00000  Uiso   1.00
S509   S     0.77240   0.38577   0.16936   0.00000  Uiso   1.00
S510   S     0.90223   0.61464   0.32161   0.00000  Uiso   1.00
S511   S     0.89460   0.39059   0.33047   0.00000  Uiso   1.00
S512   S     0.76443   0.60933   0.17759   0.00000  Uiso   1.00
S513   S     0.70760   0.40913   0.28625   0.00000  Uiso   1.00
S514   S     0.96624   0.59252   0.21710   0.00000  Uiso   1.00
S515   S     0.95208   0.41192   0.20880   0.00000  Uiso   1.00
S516   S     0.71838   0.57981   0.30661   0.00000  Uiso   1.00
C517   C     0.08822   0.83282   0.25415   0.00000  Uiso   1.00
C518   C     0.31471   0.87647   0.25052   0.00000  Uiso   1.00
C519   C     0.31053   0.79268   0.24128   0.00000  Uiso   1.00
C520   C     0.02464   0.87331   0.26582   0.00000  Uiso   1.00
C521   C     0.15670   0.87356   0.04601   0.00000  Uiso   1.00
C522   C     0.15280   0.79447   0.44925   0.00000  Uiso   1.00
C523   C     0.17860   0.87358   0.45477   0.00000  Uiso   1.00
C524   C     0.17766   0.79422   0.04934   0.00000  Uiso   1.00
C525   C     0.15769   0.87347   0.09202   0.00000  Uiso   1.00
C526   C     0.15302   0.79424   0.40347   0.00000  Uiso   1.00
C527   C     0.17788   0.87359   0.40881   0.00000  Uiso   1.00
C528   C     0.24541   0.83395   0.24640   0.00000  Uiso   1.00
C529   C     0.17769   0.79391   0.09517   0.00000  Uiso   1.00
C530   C     0.16757   0.83346   0.11689   0.00000  Uiso   1.00
C531   C     0.16569   0.83374   0.38294   0.00000  Uiso   1.00
C532   C     0.16676   0.83392   0.02420   0.00000  Uiso   1.00
C533   C     0.16603   0.83401   0.47546   0.00000  Uiso   1.00
C534   C     0.29024   0.83495   0.24315   0.00000  Uiso   1.00
C535   C     0.04414   0.83205   0.25977   0.00000  Uiso   1.00
C536   C     0.16730   0.83329   0.16519   0.00000  Uiso   1.00
C537   C     0.16613   0.83344   0.33478   0.00000  Uiso   1.00
C538   C     0.13928   0.69066   0.21692   0.00000  Uiso   1.00
C539   C     0.19470   0.97591   0.28207   0.00000  Uiso   1.00
C540   C     0.19437   0.69284   0.28277   0.00000  Uiso   1.00
C541   C     0.13861   0.97370   0.21775   0.00000  Uiso   1.00
C542   C     0.02031   0.79103   0.25566   0.00000  Uiso   1.00
Cu543  Cu    0.16667   0.88022   0.25000   0.00000  Uiso   1.00
Cu544  Cu    0.16667   0.78645   0.25000   0.00000  Uiso   1.00
H545   H     0.14758   0.90453   0.02752   0.00000  Uiso   1.00
H546   H     0.26702   0.88689   0.34847   0.00000  Uiso   1.00
H547   H     0.25315   0.78898   0.36005   0.00000  Uiso   1.00
H548   H     0.06719   0.87943   0.14911   0.00000  Uiso   1.00
H549   H     0.08817   0.69771   0.27340   0.00000  Uiso   1.00
H550   H     0.30369   0.94393   0.14905   0.00000  Uiso   1.00
H551   H     0.32714   0.74068   0.16209   0.00000  Uiso   1.00
H552   H     0.03628   0.96315   0.35312   0.00000  Uiso   1.00
H553   H     0.14194   0.76379   0.46399   0.00000  Uiso   1.00
H554   H     0.18956   0.90440   0.47411   0.00000  Uiso   1.00
H555   H     0.18661   0.76347   0.03374   0.00000  Uiso   1.00
H556   H     0.15026   0.90464   0.10795   0.00000  Uiso   1.00
H557   H     0.14284   0.76326   0.38414   0.00000  Uiso   1.00
H558   H     0.18741   0.90459   0.39369   0.00000  Uiso   1.00
H559   H     0.18613   0.76282   0.11352   0.00000  Uiso   1.00
H560   H     0.08014   0.78245   0.14081   0.00000  Uiso   1.00
N561   N     0.16667   0.95069   0.25000   0.00000  Uiso   1.00
N562   N     0.16667   0.71598   0.25000   0.00000  Uiso   1.00
O563   O     0.10655   0.87291   0.24999   0.00000  Uiso   1.00
O564   O     0.06320   0.69694   0.15734   0.00000  Uiso   1.00
O565   O     0.09370   0.77446   0.17181   0.00000  Uiso   1.00
O566   O     0.27523   0.96252   0.30728   0.00000  Uiso   1.00
O567   O     0.23572   0.96587   0.36819   0.00000  Uiso   1.00
O568   O     0.23953   0.89117   0.32872   0.00000  Uiso   1.00
O569   O     0.20698   0.71721   0.37000   0.00000  Uiso   1.00
O570   O     0.27058   0.70469   0.34221   0.00000  Uiso   1.00
O571   O     0.23981   0.78016   0.32888   0.00000  Uiso   1.00
O572   O     0.05738   0.95444   0.19075   0.00000  Uiso   1.00
O573   O     0.09836   0.96006   0.13120   0.00000  Uiso   1.00
O574   O     0.22679   0.79375   0.25001   0.00000  Uiso   1.00
O575   O     0.09389   0.88550   0.17034   0.00000  Uiso   1.00
O576   O     0.07345   0.75838   0.32578   0.00000  Uiso   1.00
O577   O     0.00744   0.71585   0.30342   0.00000  Uiso   1.00
O578   O     0.06248   0.70787   0.25350   0.00000  Uiso   1.00
O579   O     0.25445   0.93734   0.21156   0.00000  Uiso   1.00
O580   O     0.32535   0.96717   0.23662   0.00000  Uiso   1.00
O581   O     0.30938   0.91489   0.16571   0.00000  Uiso   1.00
O582   O     0.26779   0.71177   0.23811   0.00000  Uiso   1.00
O583   O     0.25079   0.76161   0.17298   0.00000  Uiso   1.00
O584   O     0.31970   0.71819   0.18385   0.00000  Uiso   1.00
O585   O     0.22679   0.87291   0.25000   0.00000  Uiso   1.00
O586   O     0.08211   0.88783   0.34080   0.00000  Uiso   1.00
O587   O     0.07527   0.94821   0.28461   0.00000  Uiso   1.00
O588   O     0.01879   0.93992   0.33351   0.00000  Uiso   1.00
O589   O     0.10655   0.79375   0.24999   0.00000  Uiso   1.00
O590   O     0.16666   0.87293   0.18573   0.00000  Uiso   1.00
O591   O     0.16667   0.79374   0.31427   0.00000  Uiso   1.00
O592   O     0.16667   0.87293   0.31427   0.00000  Uiso   1.00
O593   O     0.16666   0.79374   0.18573   0.00000  Uiso   1.00
O594   O     0.12669   0.71363   0.12979   0.00000  Uiso   1.00
S595   S     0.10573   0.71910   0.16936   0.00000  Uiso   1.00
S596   S     0.23556   0.94797   0.32161   0.00000  Uiso   1.00
S597   S     0.22793   0.72392   0.33047   0.00000  Uiso   1.00
S598   S     0.09776   0.94267   0.17759   0.00000  Uiso   1.00
S599   S     0.04094   0.74246   0.28625   0.00000  Uiso   1.00
S600   S     0.29957   0.92585   0.21710   0.00000  Uiso   1.00
S601   S     0.28541   0.74525   0.20880   0.00000  Uiso   1.00
S602   S     0.05171   0.91315   0.30661   0.00000  Uiso   1.00
C603   C     0.42155   0.83282   0.25415   0.00000  Uiso   1.00
C604   C     0.64804   0.87647   0.25052   0.00000  Uiso   1.00
C605   C     0.64386   0.79268   0.24128   0.00000  Uiso   1.00
C606   C     0.35797   0.87331   0.26582   0.00000  Uiso   1.00
C607   C     0.49004   0.87356   0.04601   0.00000  Uiso   1.00
C608   C     0.48614   0.79447   0.44925   0.00000  Uiso   1.00
C609   C     0.51194   0.87358   0.45477   0.00000  Uiso   1.00
C610   C     0.51100   0.79422   0.04934   0.00000  Uiso   1.00
C611   C     0.49102   0.87347   0.09202   0.00000  Uiso   1.00
C612   C     0.48635   0.79424   0.40347   0.00000  Uiso   1.00
C613   C     0.51122   0.87359   0.40881   0.00000  Uiso   1.00
C614   C     0.57875   0.83395   0.24640   0.00000  Uiso   1.00
C615   C     0.51102   0.79391   0.09517   0.00000  Uiso   1.00
C616   C     0.50090   0.83346   0.11689   0.00000  Uiso   1.00
C617   C     0.49902   0.83374   0.38294   0.00000  Uiso   1.00
C618   C     0.50009   0.83392   0.02420   0.00000  Uiso   1.00
C619   C     0.49936   0.83401   0.47546   0.00000  Uiso   1.00
C620   C     0.62358   0.83495   0.24315   0.00000  Uiso   1.00
C621   C     0.37747   0.83205   0.25977   0.00000  Uiso   1.00
C622   C     0.50064   0.83329   0.16519   0.00000  Uiso   1.00
C623   C     0.49947   0.83344   0.33478   0.00000  Uiso   1.00
C624   C     0.47261   0.69066   0.21692   0.00000  Uiso   1.00
C625   C     0.52803   0.97591   0.28207   0.00000  Uiso   1.00
C626   C     0.52770   0.69284   0.28277   0.00000  Uiso   1.00
C627   C     0.47195   0.97370   0.21775   0.00000  Uiso   1.00
C628   C     0.35365   0.79103   0.25566   0.00000  Uiso   1.00
Cu629  Cu    0.50000   0.88022   0.25000   0.00000  Uiso   1.00
Cu630  Cu    0.50000   0.78645   0.25000   0.00000  Uiso   1.00
H631   H     0.48092   0.90453   0.02752   0.00000  Uiso   1.00
H632   H     0.60035   0.88689   0.34847   0.00000  Uiso   1.00
H633   H     0.58648   0.78898   0.36005   0.00000  Uiso   1.00
H634   H     0.40052   0.87943   0.14911   0.00000  Uiso   1.00
H635   H     0.42150   0.69771   0.27340   0.00000  Uiso   1.00
H636   H     0.63702   0.94393   0.14905   0.00000  Uiso   1.00
H637   H     0.66047   0.74068   0.16209   0.00000  Uiso   1.00
H638   H     0.36961   0.96315   0.35312   0.00000  Uiso   1.00
H639   H     0.47527   0.76379   0.46399   0.00000  Uiso   1.00
H640   H     0.52290   0.90440   0.47411   0.00000  Uiso   1.00
H641   H     0.51994   0.76347   0.03374   0.00000  Uiso   1.00
H642   H     0.48360   0.90464   0.10795   0.00000  Uiso   1.00
H643   H     0.47617   0.76326   0.38414   0.00000  Uiso   1.00
H644   H     0.52074   0.90459   0.39369   0.00000  Uiso   1.00
H645   H     0.51946   0.76282   0.11352   0.00000  Uiso   1.00
H646   H     0.41347   0.78245   0.14081   0.00000  Uiso   1.00
N647   N     0.50000   0.95069   0.25000   0.00000  Uiso   1.00
N648   N     0.50000   0.71598   0.25000   0.00000  Uiso   1.00
O649   O     0.43988   0.87291   0.24999   0.00000  Uiso   1.00
O650   O     0.39653   0.69694   0.15734   0.00000  Uiso   1.00
O651   O     0.42703   0.77446   0.17181   0.00000  Uiso   1.00
O652   O     0.60856   0.96252   0.30728   0.00000  Uiso   1.00
O653   O     0.56906   0.96587   0.36819   0.00000  Uiso   1.00
O654   O     0.57287   0.89117   0.32872   0.00000  Uiso   1.00
O655   O     0.54031   0.71721   0.37000   0.00000  Uiso   1.00
O656   O     0.60392   0.70469   0.34221   0.00000  Uiso   1.00
O657   O     0.57314   0.78016   0.32888   0.00000  Uiso   1.00
O658   O     0.39071   0.95444   0.19075   0.00000  Uiso   1.00
O659   O     0.43169   0.96006   0.13120   0.00000  Uiso   1.00
O660   O     0.56012   0.79375   0.25001   0.00000  Uiso   1.00
O661   O     0.42722   0.88550   0.17034   0.00000  Uiso   1.00
O662   O     0.40679   0.75838   0.32578   0.00000  Uiso   1.00
O663   O     0.34078   0.71585   0.30342   0.00000  Uiso   1.00
O664   O     0.39582   0.70787   0.25350   0.00000  Uiso   1.00
O665   O     0.58779   0.93734   0.21156   0.00000  Uiso   1.00
O666   O     0.65869   0.96717   0.23662   0.00000  Uiso   1.00
O667   O     0.64271   0.91489   0.16571   0.00000  Uiso   1.00
O668   O     0.60112   0.71177   0.23811   0.00000  Uiso   1.00
O669   O     0.58412   0.76161   0.17298   0.00000  Uiso   1.00
O670   O     0.65304   0.71819   0.18385   0.00000  Uiso   1.00
O671   O     0.56012   0.87291   0.25000   0.00000  Uiso   1.00
O672   O     0.41545   0.88783   0.34080   0.00000  Uiso   1.00
O673   O     0.40860   0.94821   0.28461   0.00000  Uiso   1.00
O674   O     0.35212   0.93992   0.33351   0.00000  Uiso   1.00
O675   O     0.43988   0.79375   0.24999   0.00000  Uiso   1.00
O676   O     0.50000   0.87293   0.18573   0.00000  Uiso   1.00
O677   O     0.50000   0.79374   0.31427   0.00000  Uiso   1.00
O678   O     0.50000   0.87293   0.31427   0.00000  Uiso   1.00
O679   O     0.50000   0.79374   0.18573   0.00000  Uiso   1.00
O680   O     0.46002   0.71363   0.12979   0.00000  Uiso   1.00
S681   S     0.43907   0.71910   0.16936   0.00000  Uiso   1.00
S682   S     0.56890   0.94797   0.32161   0.00000  Uiso   1.00
S683   S     0.56127   0.72392   0.33047   0.00000  Uiso   1.00
S684   S     0.43110   0.94267   0.17759   0.00000  Uiso   1.00
S685   S     0.37427   0.74246   0.28625   0.00000  Uiso   1.00
S686   S     0.63290   0.92585   0.21710   0.00000  Uiso   1.00
S687   S     0.61874   0.74525   0.20880   0.00000  Uiso   1.00
S688   S     0.38505   0.91315   0.30661   0.00000  Uiso   1.00
C689   C     0.75489   0.83282   0.25415   0.00000  Uiso   1.00
C690   C     0.98138   0.87647   0.25052   0.00000  Uiso   1.00
C691   C     0.97719   0.79268   0.24128   0.00000  Uiso   1.00
C692   C     0.69131   0.87331   0.26582   0.00000  Uiso   1.00
C693   C     0.82337   0.87356   0.04601   0.00000  Uiso   1.00
C694   C     0.81947   0.79447   0.44925   0.00000  Uiso   1.00
C695   C     0.84527   0.87358   0.45477   0.00000  Uiso   1.00
C696   C     0.84433   0.79422   0.04934   0.00000  Uiso   1.00
C697   C     0.82436   0.87347   0.09202   0.00000  Uiso   1.00
C698   C     0.81969   0.79424   0.40347   0.00000  Uiso   1.00
C699   C     0.84455   0.87359   0.40881   0.00000  Uiso   1.00
C700   C     0.91208   0.83395   0.24640   0.00000  Uiso   1.00
C701   C     0.84435   0.79391   0.09517   0.00000  Uiso   1.00
C702   C     0.83424   0.83346   0.11689   0.00000  Uiso   1.00
C703   C     0.83236   0.83374   0.38294   0.00000  Uiso   1.00
C704   C     0.83342   0.83392   0.02420   0.00000  Uiso   1.00
C705   C     0.83270   0.83401   0.47546   0.00000  Uiso   1.00
C706   C     0.95691   0.83495   0.24315   0.00000  Uiso   1.00
C707   C     0.71080   0.83205   0.25977   0.00000  Uiso   1.00
C708   C     0.83397   0.83329   0.16519   0.00000  Uiso   1.00
C709   C     0.83280   0.83344   0.33478   0.00000  Uiso   1.00
C710   C     0.80594   0.69066   0.21692   0.00000  Uiso   1.00
C711   C     0.86136   0.97591   0.28207   0.00000  Uiso   1.00
C712   C     0.86104   0.69284   0.28277   0.00000  Uiso   1.00
C713   C     0.80528   0.97370   0.21775   0.00000  Uiso   1.00
C714   C     0.68698   0.79103   0.25566   0.00000  Uiso   1.00
Cu715  Cu    0.83333   0.88022   0.25000   0.00000  Uiso   1.00
Cu716  Cu    0.83333   0.78645   0.25000   0.00000  Uiso   1.00
H717   H     0.81425   0.90453   0.02752   0.00000  Uiso   1.00
H718   H     0.93369   0.88689   0.34847   0.00000  Uiso   1.00
H719   H     0.91982   0.78898   0.36005   0.00000  Uiso   1.00
H720   H     0.73385   0.87943   0.14911   0.00000  Uiso   1.00
H721   H     0.75483   0.69771   0.27340   0.00000  Uiso   1.00
H722   H     0.97036   0.94393   0.14905   0.00000  Uiso   1.00
H723   H     0.99380   0.74068   0.16209   0.00000  Uiso   1.00
H724   H     0.70294   0.96315   0.35312   0.00000  Uiso   1.00
H725   H     0.80861   0.76379   0.46399   0.00000  Uiso   1.00
H726   H     0.85623   0.90440   0.47411   0.00000  Uiso   1.00
H727   H     0.85328   0.76347   0.03374   0.00000  Uiso   1.00
H728   H     0.81693   0.90464   0.10795   0.00000  Uiso   1.00
H729   H     0.80951   0.76326   0.38414   0.00000  Uiso   1.00
H730   H     0.85408   0.90459   0.39369   0.00000  Uiso   1.00
H731   H     0.85279   0.76282   0.11352   0.00000  Uiso   1.00
H732   H     0.74681   0.78245   0.14081   0.00000  Uiso   1.00
N733   N     0.83333   0.95069   0.25000   0.00000  Uiso   1.00
N734   N     0.83333   0.71598   0.25000   0.00000  Uiso   1.00
O735   O     0.77321   0.87291   0.24999   0.00000  Uiso   1.00
O736   O     0.72987   0.69694   0.15734   0.00000  Uiso   1.00
O737   O     0.76036   0.77446   0.17181   0.00000  Uiso   1.00
O738   O     0.94189   0.96252   0.30728   0.00000  Uiso   1.00
O739   O     0.90239   0.96587   0.36819   0.00000  Uiso   1.00
O740   O     0.90620   0.89117   0.32872   0.00000  Uiso   1.00
O741   O     0.87364   0.71721   0.37000   0.00000  Uiso   1.00
O742   O     0.93725   0.70469   0.34221   0.00000  Uiso   1.00
O743   O     0.90648   0.78016   0.32888   0.00000  Uiso   1.00
O744   O     0.72404   0.95444   0.19075   0.00000  Uiso   1.00
O745   O     0.76503   0.96006   0.13120   0.00000  Uiso   1.00
O746   O     0.89345   0.79375   0.25001   0.00000  Uiso   1.00
O747   O     0.76055   0.88550   0.17034   0.00000  Uiso   1.00
O748   O     0.74012   0.75838   0.32578   0.00000  Uiso   1.00
O749   O     0.67411   0.71585   0.30342   0.00000  Uiso   1.00
O750   O     0.72915   0.70787   0.25350   0.00000  Uiso   1.00
O751   O     0.92112   0.93734   0.21156   0.00000  Uiso   1.00
O752   O     0.99202   0.96717   0.23662   0.00000  Uiso   1.00
O753   O     0.97604   0.91489   0.16571   0.00000  Uiso   1.00
O754   O     0.93445   0.71177   0.23811   0.00000  Uiso   1.00
O755   O     0.91745   0.76161   0.17298   0.00000  Uiso   1.00
O756   O     0.98637   0.71819   0.18385   0.00000  Uiso   1.00
O757   O     0.89345   0.87291   0.25000   0.00000  Uiso   1.00
O758   O     0.74878   0.88783   0.34080   0.00000  Uiso   1.00
O759   O     0.74194   0.94821   0.28461   0.00000  Uiso   1.00
O760   O     0.68546   0.93992   0.33351   0.00000  Uiso   1.00
O761   O     0.77321   0.79375   0.24999   0.00000  Uiso   1.00
O762   O     0.83333   0.87293   0.18573   0.00000  Uiso   1.00
O763   O     0.83334   0.79374   0.31427   0.00000  Uiso   1.00
O764   O     0.83334   0.87293   0.31427   0.00000  Uiso   1.00
O765   O     0.83333   0.79374   0.18573   0.00000  Uiso   1.00
O766   O     0.79336   0.71363   0.12979   0.00000  Uiso   1.00
S767   S     0.77240   0.71910   0.16936   0.00000  Uiso   1.00
S768   S     0.90223   0.94797   0.32161   0.00000  Uiso   1.00
S769   S     0.89460   0.72392   0.33047   0.00000  Uiso   1.00
S770   S     0.76443   0.94267   0.17759   0.00000  Uiso   1.00
S771   S     0.70760   0.74246   0.28625   0.00000  Uiso   1.00
S772   S     0.96624   0.92585   0.21710   0.00000  Uiso   1.00
S773   S     0.95208   0.74525   0.20880   0.00000  Uiso   1.00
S774   S     0.71838   0.91315   0.30661   0.00000  Uiso   1.00
C775   C     0.08822   0.16616   0.75415   0.00000  Uiso   1.00
C776   C     0.31471   0.20981   0.75052   0.00000  Uiso   1.00
C777   C     0.31053   0.12601   0.74128   0.00000  Uiso   1.00
C778   C     0.02464   0.20664   0.76582   0.00000  Uiso   1.00
C779   C     0.15670   0.20689   0.54601   0.00000  Uiso   1.00
C780   C     0.15280   0.12780   0.94925   0.00000  Uiso   1.00
C781   C     0.17860   0.20692   0.95477   0.00000  Uiso   1.00
C782   C     0.17766   0.12755   0.54934   0.00000  Uiso   1.00
C783   C     0.15769   0.20681   0.59202   0.00000  Uiso   1.00
C784   C     0.15302   0.12757   0.90347   0.00000  Uiso   1.00
C785   C     0.17788   0.20692   0.90881   0.00000  Uiso   1.00
C786   C     0.24541   0.16728   0.74640   0.00000  Uiso   1.00
C787   C     0.17769   0.12724   0.59517   0.00000  Uiso   1.00
C788   C     0.16757   0.16679   0.61689   0.00000  Uiso   1.00
C789   C     0.16569   0.16707   0.88294   0.00000  Uiso   1.00
C790   C     0.16676   0.16726   0.52420   0.00000  Uiso   1.00
C791   C     0.16603   0.16734   0.97546   0.00000  Uiso   1.00
C792   C     0.29024   0.16828   0.74315   0.00000  Uiso   1.00
C793   C     0.04414   0.16538   0.75977   0.00000  Uiso   1.00
C794   C     0.16730   0.16662   0.66519   0.00000  Uiso   1.00
C795   C     0.16613   0.16677   0.83478   0.00000  Uiso   1.00
C796   C     0.13928   0.02399   0.71692   0.00000  Uiso   1.00
C797   C     0.19470   0.30924   0.78207   0.00000  Uiso   1.00
C798   C     0.19437   0.02617   0.78277   0.00000  Uiso   1.00
C799   C     0.13861   0.30703   0.71775   0.00000  Uiso   1.00
C800   C     0.02031   0.12436   0.75566   0.00000  Uiso   1.00
Cu801  Cu    0.16667   0.21355   0.75000   0.00000  Uiso   1.00
Cu802  Cu    0.16667   0.11978   0.75000   0.00000  Uiso   1.00
H803   H     0.14758   0.23787   0.52752   0.00000  Uiso   1.00
H804   H     0.26702   0.22022   0.84847   0.00000  Uiso   1.00
H805   H     0.25315   0.12232   0.86005   0.00000  Uiso   1.00
H806   H     0.06719   0.21276   0.64911   0.00000  Uiso   1.00
H807   H     0.08817   0.03105   0.77340   0.00000  Uiso   1.00
H808   H     0.30369   0.27726   0.64905   0.00000  Uiso   1.00
H809   H     0.32714   0.07401   0.66209   0.00000  Uiso   1.00
H810   H     0.03628   0.29648   0.85312   0.00000  Uiso   1.00
H811   H     0.14194   0.09712   0.96399   0.00000  Uiso   1.00
H812   H     0.18956   0.23773   0.97411   0.00000  Uiso   1.00
H813   H     0.18661   0.09680   0.53374   0.00000  Uiso   1.00
H814   H     0.15026   0.23797   0.60795   0.00000  Uiso   1.00
H815   H     0.14284   0.09660   0.88414   0.00000  Uiso   1.00
H816   H     0.18741   0.23793   0.89369   0.00000  Uiso   1.00
H817   H     0.18613   0.09616   0.61352   0.00000  Uiso   1.00
H818   H     0.08014   0.11579   0.64081   0.00000  Uiso   1.00
N819   N     0.16667   0.28402   0.75000   0.00000  Uiso   1.00
N820   N     0.16667   0.04931   0.75000   0.00000  Uiso   1.00
O821   O     0.10655   0.20625   0.74999   0.00000  Uiso   1.00
O822   O     0.06320   0.03027   0.65734   0.00000  Uiso   1.00
O823   O     0.09370   0.10780   0.67181   0.00000  Uiso   1.00
O824   O     0.27523   0.29585   0.80728   0.00000  Uiso   1.00
O825   O     0.23572   0.29920   0.86819   0.00000  Uiso   1.00
O826   O     0.23953   0.22450   0.82872   0.00000  Uiso   1.00
O827   O     0.20698   0.05054   0.87000   0.00000  Uiso   1.00
O828   O     0.27058   0.03802   0.84221   0.00000  Uiso   1.00
O829   O     0.23981   0.11349   0.82888   0.00000  Uiso   1.00
O830   O     0.05738   0.28778   0.69075   0.00000  Uiso   1.00
O831   O     0.09836   0.29339   0.63120   0.00000  Uiso   1.00
O832   O     0.22679   0.12709   0.75001   0.00000  Uiso   1.00
O833   O     0.09389   0.21883   0.67034   0.00000  Uiso   1.00
O834   O     0.07345   0.09172   0.82578   0.00000  Uiso   1.00
O835   O     0.00744   0.04918   0.80342   0.00000  Uiso   1.00
O836   O     0.06248   0.04120   0.75350   0.00000  Uiso   1.00
O837   O     0.25445   0.27067   0.71156   0.00000  Uiso   1.00
O838   O     0.32535   0.30051   0.73662   0.00000  Uiso   1.00
O839   O     0.30938   0.24822   0.66571   0.00000  Uiso   1.00
O840   O     0.26779   0.04510   0.73811   0.00000  Uiso   1.00
O841   O     0.25079   0.09494   0.67298   0.00000  Uiso   1.00
O842   O     0.31970   0.05153   0.68385   0.00000  Uiso   1.00
O843   O     0.22679   0.20625   0.75000   0.00000  Uiso   1.00
O844   O     0.08211   0.22116   0.84080   0.00000  Uiso   1.00
O845   O     0.07527   0.28155   0.78461   0.00000  Uiso   1.00
O846   O     0.01879   0.27325   0.83351   0.00000  Uiso   1.00
O847   O     0.10655   0.12709   0.74999   0.00000  Uiso   1.00
O848   O     0.16666   0.20626   0.68573   0.00000  Uiso   1.00
O849   O     0.16667   0.12707   0.81427   0.00000  Uiso   1.00
O850   O     0.16667   0.20626   0.81427   0.00000  Uiso   1.00
O851   O     0.16666   0.12707   0.68573   0.00000  Uiso   1.00
O852   O     0.12669   0.04696   0.62979   0.00000  Uiso   1.00
S853   S     0.10573   0.05243   0.66936   0.00000  Uiso   1.00
S854   S     0.23556   0.28131   0.82161   0.00000  Uiso   1.00
S855   S     0.22793   0.05726   0.83047   0.00000  Uiso   1.00
S856   S     0.09776   0.27600   0.67759   0.00000  Uiso   1.00
S857   S     0.04094   0.07579   0.78625   0.00000  Uiso   1.00
S858   S     0.29957   0.25919   0.71710   0.00000  Uiso   1.00
S859   S     0.28541   0.07858   0.70880   0.00000  Uiso   1.00
S860   S     0.05171   0.24648   0.80661   0.00000  Uiso   1.00
C861   C     0.42155   0.16616   0.75415   0.00000  Uiso   1.00
C862   C     0.64804   0.20981   0.75052   0.00000  Uiso   1.00
C863   C     0.64386   0.12601   0.74128   0.00000  Uiso   1.00
C864   C     0.35797   0.20664   0.76582   0.00000  Uiso   1.00
C865   C     0.49004   0.20689   0.54601   0.00000  Uiso   1.00
C866   C     0.48614   0.12780   0.94925   0.00000  Uiso   1.00
C867   C     0.51194   0.20692   0.95477   0.00000  Uiso   1.00
C868   C     0.51100   0.12755   0.54934   0.00000  Uiso   1.00
C869   C     0.49102   0.20681   0.59202   0.00000  Uiso   1.00
C870   C     0.48635   0.12757   0.90347   0.00000  Uiso   1.00
C871   C     0.51122   0.20692   0.90881   0.00000  Uiso   1.00
C872   C     0.57875   0.16728   0.74640   0.00000  Uiso   1.00
C873   C     0.51102   0.12724   0.59517   0.00000  Uiso   1.00
C874   C     0.50090   0.16679   0.61689   0.00000  Uiso   1.00
C875   C     0.49902   0.16707   0.88294   0.00000  Uiso   1.00
C876   C     0.50009   0.16726   0.52420   0.00000  Uiso   1.00
C877   C     0.49936   0.16734   0.97546   0.00000  Uiso   1.00
C878   C     0.62358   0.16828   0.74315   0.00000  Uiso   1.00
C879   C     0.37747   0.16538   0.75977   0.00000  Uiso   1.00
C880   C     0.50064   0.16662   0.66519   0.00000  Uiso   1.00
C881   C     0.49947   0.16677   0.83478   0.00000  Uiso   1.00
C882   C     0.47261   0.02399   0.71692   0.00000  Uiso   1.00
C883   C     0.52803   0.30924   0.78207   0.00000  Uiso   1.00
C884   C     0.52770   0.02617   0.78277   0.00000  Uiso   1.00
C885   C     0.47195   0.30703   0.71775   0.00000  Uiso   1.00
C886   C     0.35365   0.12436   0.75566   0.00000  Uiso   1.00
Cu887  Cu    0.50000   0.21355   0.75000   0.00000  Uiso   1.00
Cu888  Cu    0.50000   0.11978   0.75000   0.00000  Uiso   1.00
H889   H     0.48092   0.23787   0.52752   0.00000  Uiso   1.00
H890   H     0.60035   0.22022   0.84847   0.00000  Uiso   1.00
H891   H     0.58648   0.12232   0.86005   0.00000  Uiso   1.00
H892   H     0.40052   0.21276   0.64911   0.00000  Uiso   1.00
H893   H     0.42150   0.03105   0.77340   0.00000  Uiso   1.00
H894   H     0.63702   0.27726   0.64905   0.00000  Uiso   1.00
H895   H     0.66047   0.07401   0.66209   0.00000  Uiso   1.00
H896   H     0.36961   0.29648   0.85312   0.00000  Uiso   1.00
H897   H     0.47527   0.09712   0.96399   0.00000  Uiso   1.00
H898   H     0.52290   0.23773   0.97411   0.00000  Uiso   1.00
H899   H     0.51994   0.09680   0.53374   0.00000  Uiso   1.00
H900   H     0.48360   0.23797   0.60795   0.00000  Uiso   1.00
H901   H     0.47617   0.09660   0.88414   0.00000  Uiso   1.00
H902   H     0.52074   0.23793   0.89369   0.00000  Uiso   1.00
H903   H     0.51946   0.09616   0.61352   0.00000  Uiso   1.00
H904   H     0.41347   0.11579   0.64081   0.00000  Uiso   1.00
N905   N     0.50000   0.28402   0.75000   0.00000  Uiso   1.00
N906   N     0.50000   0.04931   0.75000   0.00000  Uiso   1.00
O907   O     0.43988   0.20625   0.74999   0.00000  Uiso   1.00
O908   O     0.39653   0.03027   0.65734   0.00000  Uiso   1.00
O909   O     0.42703   0.10780   0.67181   0.00000  Uiso   1.00
O910   O     0.60856   0.29585   0.80728   0.00000  Uiso   1.00
O911   O     0.56906   0.29920   0.86819   0.00000  Uiso   1.00
O912   O     0.57287   0.22450   0.82872   0.00000  Uiso   1.00
O913   O     0.54031   0.05054   0.87000   0.00000  Uiso   1.00
O914   O     0.60392   0.03802   0.84221   0.00000  Uiso   1.00
O915   O     0.57314   0.11349   0.82888   0.00000  Uiso   1.00
O916   O     0.39071   0.28778   0.69075   0.00000  Uiso   1.00
O917   O     0.43169   0.29339   0.63120   0.00000  Uiso   1.00
O918   O     0.56012   0.12709   0.75001   0.00000  Uiso   1.00
O919   O     0.42722   0.21883   0.67034   0.00000  Uiso   1.00
O920   O     0.40679   0.09172   0.82578   0.00000  Uiso   1.00
O921   O     0.34078   0.04918   0.80342   0.00000  Uiso   1.00
O922   O     0.39582   0.04120   0.75350   0.00000  Uiso   1.00
O923   O     0.58779   0.27067   0.71156   0.00000  Uiso   1.00
O924   O     0.65869   0.30051   0.73662   0.00000  Uiso   1.00
O925   O     0.64271   0.24822   0.66571   0.00000  Uiso   1.00
O926   O     0.60112   0.04510   0.73811   0.00000  Uiso   1.00
O927   O     0.58412   0.09494   0.67298   0.00000  Uiso   1.00
O928   O     0.65304   0.05153   0.68385   0.00000  Uiso   1.00
O929   O     0.56012   0.20625   0.75000   0.00000  Uiso   1.00
O930   O     0.41545   0.22116   0.84080   0.00000  Uiso   1.00
O931   O     0.40860   0.28155   0.78461   0.00000  Uiso   1.00
O932   O     0.35212   0.27325   0.83351   0.00000  Uiso   1.00
O933   O     0.43988   0.12709   0.74999   0.00000  Uiso   1.00
O934   O     0.50000   0.20626   0.68573   0.00000  Uiso   1.00
O935   O     0.50000   0.12707   0.81427   0.00000  Uiso   1.00
O936   O     0.50000   0.20626   0.81427   0.00000  Uiso   1.00
O937   O     0.50000   0.12707   0.68573   0.00000  Uiso   1.00
O938   O     0.46002   0.04696   0.62979   0.00000  Uiso   1.00
S939   S     0.43907   0.05243   0.66936   0.00000  Uiso   1.00
S940   S     0.56890   0.28131   0.82161   0.00000  Uiso   1.00
S941   S     0.56127   0.05726   0.83047   0.00000  Uiso   1.00
S942   S     0.43110   0.27600   0.67759   0.00000  Uiso   1.00
S943   S     0.37427   0.07579   0.78625   0.00000  Uiso   1.00
S944   S     0.63290   0.25919   0.71710   0.00000  Uiso   1.00
S945   S     0.61874   0.07858   0.70880   0.00000  Uiso   1.00
S946   S     0.38505   0.24648   0.80661   0.00000  Uiso   1.00
C947   C     0.75489   0.16616   0.75415   0.00000  Uiso   1.00
C948   C     0.98138   0.20981   0.75052   0.00000  Uiso   1.00
C949   C     0.97719   0.12601   0.74128   0.00000  Uiso   1.00
C950   C     0.69131   0.20664   0.76582   0.00000  Uiso   1.00
C951   C     0.82337   0.20689   0.54601   0.00000  Uiso   1.00
C952   C     0.81947   0.12780   0.94925   0.00000  Uiso   1.00
C953   C     0.84527   0.20692   0.95477   0.00000  Uiso   1.00
C954   C     0.84433   0.12755   0.54934   0.00000  Uiso   1.00
C955   C     0.82436   0.20681   0.59202   0.00000  Uiso   1.00
C956   C     0.81969   0.12757   0.90347   0.00000  Uiso   1.00
C957   C     0.84455   0.20692   0.90881   0.00000  Uiso   1.00
C958   C     0.91208   0.16728   0.74640   0.00000  Uiso   1.00
C959   C     0.84435   0.12724   0.59517   0.00000  Uiso   1.00
C960   C     0.83424   0.16679   0.61689   0.00000  Uiso   1.00
C961   C     0.83236   0.16707   0.88294   0.00000  Uiso   1.00
C962   C     0.83342   0.16726   0.52420   0.00000  Uiso   1.00
C963   C     0.83270   0.16734   0.97546   0.00000  Uiso   1.00
C964   C     0.95691   0.16828   0.74315   0.00000  Uiso   1.00
C965   C     0.71080   0.16538   0.75977   0.00000  Uiso   1.00
C966   C     0.83397   0.16662   0.66519   0.00000  Uiso   1.00
C967   C     0.83280   0.16677   0.83478   0.00000  Uiso   1.00
C968   C     0.80594   0.02399   0.71692   0.00000  Uiso   1.00
C969   C     0.86136   0.30924   0.78207   0.00000  Uiso   1.00
C970   C     0.86104   0.02617   0.78277   0.00000  Uiso   1.00
C971   C     0.80528   0.30703   0.71775   0.00000  Uiso   1.00
C972   C     0.68698   0.12436   0.75566   0.00000  Uiso   1.00
Cu973  Cu    0.83333   0.21355   0.75000   0.00000  Uiso   1.00
Cu974  Cu    0.83333   0.11978   0.75000   0.00000  Uiso   1.00
H975   H     0.81425   0.23787   0.52752   0.00000  Uiso   1.00
H976   H     0.93369   0.22022   0.84847   0.00000  Uiso   1.00
H977   H     0.91982   0.12232   0.86005   0.00000  Uiso   1.00
H978   H     0.73385   0.21276   0.64911   0.00000  Uiso   1.00
H979   H     0.75483   0.03105   0.77340   0.00000  Uiso   1.00
H980   H     0.97036   0.27726   0.64905   0.00000  Uiso   1.00
H981   H     0.99380   0.07401   0.66209   0.00000  Uiso   1.00
H982   H     0.70294   0.29648   0.85312   0.00000  Uiso   1.00
H983   H     0.80861   0.09712   0.96399   0.00000  Uiso   1.00
H984   H     0.85623   0.23773   0.97411   0.00000  Uiso   1.00
H985   H     0.85328   0.09680   0.53374   0.00000  Uiso   1.00
H986   H     0.81693   0.23797   0.60795   0.00000  Uiso   1.00
H987   H     0.80951   0.09660   0.88414   0.00000  Uiso   1.00
H988   H     0.85408   0.23793   0.89369   0.00000  Uiso   1.00
H989   H     0.85279   0.09616   0.61352   0.00000  Uiso   1.00
H990   H     0.74681   0.11579   0.64081   0.00000  Uiso   1.00
N991   N     0.83333   0.28402   0.75000   0.00000  Uiso   1.00
N992   N     0.83333   0.04931   0.75000   0.00000  Uiso   1.00
O993   O     0.77321   0.20625   0.74999   0.00000  Uiso   1.00
O994   O     0.72987   0.03027   0.65734   0.00000  Uiso   1.00
O995   O     0.76036   0.10780   0.67181   0.00000  Uiso   1.00
O996   O     0.94189   0.29585   0.80728   0.00000  Uiso   1.00
O997   O     0.90239   0.29920   0.86819   0.00000  Uiso   1.00
O998   O     0.90620   0.22450   0.82872   0.00000  Uiso   1.00
O999   O     0.87364   0.05054   0.87000   0.00000  Uiso   1.00
O1000  O     0.93725   0.03802   0.84221   0.00000  Uiso   1.00
O1001  O     0.90648   0.11349   0.82888   0.00000  Uiso   1.00
O1002  O     0.72404   0.28778   0.69075   0.00000  Uiso   1.00
O1003  O     0.76503   0.29339   0.63120   0.00000  Uiso   1.00
O1004  O     0.89345   0.12709   0.75001   0.00000  Uiso   1.00
O1005  O     0.76055   0.21883   0.67034   0.00000  Uiso   1.00
O1006  O     0.74012   0.09172   0.82578   0.00000  Uiso   1.00
O1007  O     0.67411   0.04918   0.80342   0.00000  Uiso   1.00
O1008  O     0.72915   0.04120   0.75350   0.00000  Uiso   1.00
O1009  O     0.92112   0.27067   0.71156   0.00000  Uiso   1.00
O1010  O     0.99202   0.30051   0.73662   0.00000  Uiso   1.00
O1011  O     0.97604   0.24822   0.66571   0.00000  Uiso   1.00
O1012  O     0.93445   0.04510   0.73811   0.00000  Uiso   1.00
O1013  O     0.91745   0.09494   0.67298   0.00000  Uiso   1.00
O1014  O     0.98637   0.05153   0.68385   0.00000  Uiso   1.00
O1015  O     0.89345   0.20625   0.75000   0.00000  Uiso   1.00
O1016  O     0.74878   0.22116   0.84080   0.00000  Uiso   1.00
O1017  O     0.74194   0.28155   0.78461   0.00000  Uiso   1.00
O1018  O     0.68546   0.27325   0.83351   0.00000  Uiso   1.00
O1019  O     0.77321   0.12709   0.74999   0.00000  Uiso   1.00
O1020  O     0.83333   0.20626   0.68573   0.00000  Uiso   1.00
O1021  O     0.83334   0.12707   0.81427   0.00000  Uiso   1.00
O1022  O     0.83334   0.20626   0.81427   0.00000  Uiso   1.00
O1023  O     0.83333   0.12707   0.68573   0.00000  Uiso   1.00
O1024  O     0.79336   0.04696   0.62979   0.00000  Uiso   1.00
S1025  S     0.77240   0.05243   0.66936   0.00000  Uiso   1.00
S1026  S     0.90223   0.28131   0.82161   0.00000  Uiso   1.00
S1027  S     0.89460   0.05726   0.83047   0.00000  Uiso   1.00
S1028  S     0.76443   0.27600   0.67759   0.00000  Uiso   1.00
S1029  S     0.70760   0.07579   0.78625   0.00000  Uiso   1.00
S1030  S     0.96624   0.25919   0.71710   0.00000  Uiso   1.00
S1031  S     0.95208   0.07858   0.70880   0.00000  Uiso   1.00
S1032  S     0.71838   0.24648   0.80661   0.00000  Uiso   1.00
C1033  C     0.08822   0.49949   0.75415   0.00000  Uiso   1.00
C1034  C     0.31471   0.54314   0.75052   0.00000  Uiso   1.00
C1035  C     0.31053   0.45935   0.74128   0.00000  Uiso   1.00
C1036  C     0.02464   0.53998   0.76582   0.00000  Uiso   1.00
C1037  C     0.15670   0.54023   0.54601   0.00000  Uiso   1.00
C1038  C     0.15280   0.46113   0.94925   0.00000  Uiso   1.00
C1039  C     0.17860   0.54025   0.95477   0.00000  Uiso   1.00
C1040  C     0.17766   0.46088   0.54934   0.00000  Uiso   1.00
C1041  C     0.15769   0.54014   0.59202   0.00000  Uiso   1.00
C1042  C     0.15302   0.46090   0.90347   0.00000  Uiso   1.00
C1043  C     0.17788   0.54026   0.90881   0.00000  Uiso   1.00
C1044  C     0.24541   0.50062   0.74640   0.00000  Uiso   1.00
C1045  C     0.17769   0.46058   0.59517   0.00000  Uiso   1.00
C1046  C     0.16757   0.50013   0.61689   0.00000  Uiso   1.00
C1047  C     0.16569   0.50041   0.88294   0.00000  Uiso   1.00
C1048  C     0.16676   0.50059   0.52420   0.00000  Uiso   1.00
C1049  C     0.16603   0.50067   0.97546   0.00000  Uiso   1.00
C1050  C     0.29024   0.50161   0.74315   0.00000  Uiso   1.00
C1051  C     0.04414   0.49871   0.75977   0.00000  Uiso   1.00
C1052  C     0.16730   0.49995   0.66519   0.00000  Uiso   1.00
C1053  C     0.16613   0.50011   0.83478   0.00000  Uiso   1.00
C1054  C     0.13928   0.35733   0.71692   0.00000  Uiso   1.00
C1055  C     0.19470   0.64257   0.78207   0.00000  Uiso   1.00
C1056  C     0.19437   0.35951   0.78277   0.00000  Uiso   1.00
C1057  C     0.13861   0.64036   0.71775   0.00000  Uiso   1.00
C1058  C     0.02031   0.45770   0.75566   0.00000  Uiso   1.00
Cu1059 Cu    0.16667   0.54689   0.75000   0.00000  Uiso   1.00
Cu1060 Cu    0.16667   0.45311   0.75000   0.00000  Uiso   1.00
H1061  H     0.14758   0.57120   0.52752   0.00000  Uiso   1.00
H1062  H     0.26702   0.55355   0.84847   0.00000  Uiso   1.00
H1063  H     0.25315   0.45565   0.86005   0.00000  Uiso   1.00
H1064  H     0.06719   0.54610   0.64911   0.00000  Uiso   1.00
H1065  H     0.08817   0.36438   0.77340   0.00000  Uiso   1.00
H1066  H     0.30369   0.61060   0.64905   0.00000  Uiso   1.00
H1067  H     0.32714   0.40734   0.66209   0.00000  Uiso   1.00
H1068  H     0.03628   0.62982   0.85312   0.00000  Uiso   1.00
H1069  H     0.14194   0.43045   0.96399   0.00000  Uiso   1.00
H1070  H     0.18956   0.57106   0.97411   0.00000  Uiso   1.00
H1071  H     0.18661   0.43013   0.53374   0.00000  Uiso   1.00
H1072  H     0.15026   0.57131   0.60795   0.00000  Uiso   1.00
H1073  H     0.14284   0.42993   0.88414   0.00000  Uiso   1.00
H1074  H     0.18741   0.57126   0.89369   0.00000  Uiso   1.00
H1075  H     0.18613   0.42949   0.61352   0.00000  Uiso   1.00
H1076  H     0.08014   0.44912   0.64081   0.00000  Uiso   1.00
N1077  N     0.16667   0.61736   0.75000   0.00000  Uiso   1.00
N1078  N     0.16667   0.38264   0.75000   0.00000  Uiso   1.00
O1079  O     0.10655   0.53958   0.74999   0.00000  Uiso   1.00
O1080  O     0.06320   0.36361   0.65734   0.00000  Uiso   1.00
O1081  O     0.09370   0.44113   0.67181   0.00000  Uiso   1.00
O1082  O     0.27523   0.62918   0.80728   0.00000  Uiso   1.00
O1083  O     0.23572   0.63254   0.86819   0.00000  Uiso   1.00
O1084  O     0.23953   0.55783   0.82872   0.00000  Uiso   1.00
O1085  O     0.20698   0.38387   0.87000   0.00000  Uiso   1.00
O1086  O     0.27058   0.37135   0.84221   0.00000  Uiso   1.00
O1087  O     0.23981   0.44682   0.82888   0.00000  Uiso   1.00
O1088  O     0.05738   0.62111   0.69075   0.00000  Uiso   1.00
O1089  O     0.09836   0.62673   0.63120   0.00000  Uiso   1.00
O1090  O     0.22679   0.46042   0.75001   0.00000  Uiso   1.00
O1091  O     0.09389   0.55216   0.67034   0.00000  Uiso   1.00
O1092  O     0.07345   0.42505   0.82578   0.00000  Uiso   1.00
O1093  O     0.00744   0.38251   0.80342   0.00000  Uiso   1.00
O1094  O     0.06248   0.37453   0.75350   0.00000  Uiso   1.00
O1095  O     0.25445   0.60401   0.71156   0.00000  Uiso   1.00
O1096  O     0.32535   0.63384   0.73662   0.00000  Uiso   1.00
O1097  O     0.30938   0.58155   0.66571   0.00000  Uiso   1.00
O1098  O     0.26779   0.37843   0.73811   0.00000  Uiso   1.00
O1099  O     0.25079   0.42827   0.67298   0.00000  Uiso   1.00
O1100  O     0.31970   0.38486   0.68385   0.00000  Uiso   1.00
O1101  O     0.22679   0.53958   0.75000   0.00000  Uiso   1.00
O1102  O     0.08211   0.55449   0.84080   0.00000  Uiso   1.00
O1103  O     0.07527   0.61488   0.78461   0.00000  Uiso   1.00
O1104  O     0.01879   0.60658   0.83351   0.00000  Uiso   1.00
O1105  O     0.10655   0.46042   0.74999   0.00000  Uiso   1.00
O1106  O     0.16666   0.53959   0.68573   0.00000  Uiso   1.00
O1107  O     0.16667   0.46041   0.81427   0.00000  Uiso   1.00
O1108  O     0.16667   0.53959   0.81427   0.00000  Uiso   1.00
O1109  O     0.16666   0.46041   0.68573   0.00000  Uiso   1.00
O1110  O     0.12669   0.38030   0.62979   0.00000  Uiso   1.00
S1111  S     0.10573   0.38577   0.66936   0.00000  Uiso   1.00
S1112  S     0.23556   0.61464   0.82161   0.00000  Uiso   1.00
S1113  S     0.22793   0.39059   0.83047   0.00000  Uiso   1.00
S1114  S     0.09776   0.60933   0.67759   0.00000  Uiso   1.00
S1115  S     0.04094   0.40913   0.78625   0.00000  Uiso   1.00
S1116  S     0.29957   0.59252   0.71710   0.00000  Uiso   1.00
S1117  S     0.28541   0.41192   0.70880   0.00000  Uiso   1.00
S1118  S     0.05171   0.57981   0.80661   0.00000  Uiso   1.00
C1119  C     0.42155   0.49949   0.75415   0.00000  Uiso   1.00
C1120  C     0.64804   0.54314   0.75052   0.00000  Uiso   1.00
C1121  C     0.64386   0.45935   0.74128   0.00000  Uiso   1.00
C1122  C     0.35797   0.53998   0.76582   0.00000  Uiso   1.00
C1123  C     0.49004   0.54023   0.54601   0.00000  Uiso   1.00
C1124  C     0.48614   0.46113   0.94925   0.00000  Uiso   1.00
C1125  C     0.51194   0.54025   0.95477   0.00000  Uiso   1.00
C1126  C     0.51100   0.46088   0.54934   0.00000  Uiso   1.00
C1127  C     0.49102   0.54014   0.59202   0.00000  Uiso   1.00
C1128  C     0.48635   0.46090   0.90347   0.00000  Uiso   1.00
C1129  C     0.51122   0.54026   0.90881   0.00000  Uiso   1.00
C1130  C     0.57875   0.50062   0.74640   0.00000  Uiso   1.00
C1131  C     0.51102   0.46058   0.59517   0.00000  Uiso   1.00
C1132  C     0.50090   0.50013   0.61689   0.00000  Uiso   1.00
C1133  C     0.49902   0.50041   0.88294   0.00000  Uiso   1.00
C1134  C     0.50009   0.50059   0.52420   0.00000  Uiso   1.00
C1135  C     0.49936   0.50067   0.97546   0.00000  Uiso   1.00
C1136  C     0.62358   0.50161   0.74315   0.00000  Uiso   1.00
C1137  C     0.37747   0.49871   0.75977   0.00000  Uiso   1.00
C1138  C     0.50064   0.49995   0.66519   0.00000  Uiso   1.00
C1139  C     0.49947   0.50011   0.83478   0.00000  Uiso   1.00
C1140  C     0.47261   0.35733   0.71692   0.00000  Uiso   1.00
C1141  C     0.52803   0.64257   0.78207   0.00000  Uiso   1.00
C1142  C     0.52770   0.35951   0.78277   0.00000  Uiso   1.00
C1143  C     0.47195   0.64036   0.71775   0.00000  Uiso   1.00
C1144  C     0.35365   0.45770   0.75566   0.00000  Uiso   1.00
Cu1145 Cu    0.50000   0.54689   0.75000   0.00000  Uiso   1.00
Cu1146 Cu    0.50000   0.45311   0.75000   0.00000  Uiso   1.00
H1147  H     0.48092   0.57120   0.52752   0.00000  Uiso   1.00
H1148  H     0.60035   0.55355   0.84847   0.00000  Uiso   1.00
H1149  H     0.58648   0.45565   0.86005   0.00000  Uiso   1.00
H1150  H     0.40052   0.54610   0.64911   0.00000  Uiso   1.00
H1151  H     0.42150   0.36438   0.77340   0.00000  Uiso   1.00
H1152  H     0.63702   0.61060   0.64905   0.00000  Uiso   1.00
H1153  H     0.66047   0.40734   0.66209   0.00000  Uiso   1.00
H1154  H     0.36961   0.62982   0.85312   0.00000  Uiso   1.00
H1155  H     0.47527   0.43045   0.96399   0.00000  Uiso   1.00
H1156  H     0.52290   0.57106   0.97411   0.00000  Uiso   1.00
H1157  H     0.51994   0.43013   0.53374   0.00000  Uiso   1.00
H1158  H     0.48360   0.57131   0.60795   0.00000  Uiso   1.00
H1159  H     0.47617   0.42993   0.88414   0.00000  Uiso   1.00
H1160  H     0.52074   0.57126   0.89369   0.00000  Uiso   1.00
H1161  H     0.51946   0.42949   0.61352   0.00000  Uiso   1.00
H1162  H     0.41347   0.44912   0.64081   0.00000  Uiso   1.00
N1163  N     0.50000   0.61736   0.75000   0.00000  Uiso   1.00
N1164  N     0.50000   0.38264   0.75000   0.00000  Uiso   1.00
O1165  O     0.43988   0.53958   0.74999   0.00000  Uiso   1.00
O1166  O     0.39653   0.36361   0.65734   0.00000  Uiso   1.00
O1167  O     0.42703   0.44113   0.67181   0.00000  Uiso   1.00
O1168  O     0.60856   0.62918   0.80728   0.00000  Uiso   1.00
O1169  O     0.56906   0.63254   0.86819   0.00000  Uiso   1.00
O1170  O     0.57287   0.55783   0.82872   0.00000  Uiso   1.00
O1171  O     0.54031   0.38387   0.87000   0.00000  Uiso   1.00
O1172  O     0.60392   0.37135   0.84221   0.00000  Uiso   1.00
O1173  O     0.57314   0.44682   0.82888   0.00000  Uiso   1.00
O1174  O     0.39071   0.62111   0.69075   0.00000  Uiso   1.00
O1175  O     0.43169   0.62673   0.63120   0.00000  Uiso   1.00
O1176  O     0.56012   0.46042   0.75001   0.00000  Uiso   1.00
O1177  O     0.42722   0.55216   0.67034   0.00000  Uiso   1.00
O1178  O     0.40679   0.42505   0.82578   0.00000  Uiso   1.00
O1179  O     0.34078   0.38251   0.80342   0.00000  Uiso   1.00
O1180  O     0.39582   0.37453   0.75350   0.00000  Uiso   1.00
O1181  O     0.58779   0.60401   0.71156   0.00000  Uiso   1.00
O1182  O     0.65869   0.63384   0.73662   0.00000  Uiso   1.00
O1183  O     0.64271   0.58155   0.66571   0.00000  Uiso   1.00
O1184  O     0.60112   0.37843   0.73811   0.00000  Uiso   1.00
O1185  O     0.58412   0.42827   0.67298   0.00000  Uiso   1.00
O1186  O     0.65304   0.38486   0.68385   0.00000  Uiso   1.00
O1187  O     0.56012   0.53958   0.75000   0.00000  Uiso   1.00
O1188  O     0.41545   0.55449   0.84080   0.00000  Uiso   1.00
O1189  O     0.40860   0.61488   0.78461   0.00000  Uiso   1.00
O1190  O     0.35212   0.60658   0.83351   0.00000  Uiso   1.00
O1191  O     0.43988   0.46042   0.74999   0.00000  Uiso   1.00
O1192  O     0.50000   0.53959   0.68573   0.00000  Uiso   1.00
O1193  O     0.50000   0.46041   0.81427   0.00000  Uiso   1.00
O1194  O     0.50000   0.53959   0.81427   0.00000  Uiso   1.00
O1195  O     0.50000   0.46041   0.68573   0.00000  Uiso   1.00
O1196  O     0.46002   0.38030   0.62979   0.00000  Uiso   1.00
S1197  S     0.43907   0.38577   0.66936   0.00000  Uiso   1.00
S1198  S     0.56890   0.61464   0.82161   0.00000  Uiso   1.00
S1199  S     0.56127   0.39059   0.83047   0.00000  Uiso   1.00
S1200  S     0.43110   0.60933   0.67759   0.00000  Uiso   1.00
S1201  S     0.37427   0.40913   0.78625   0.00000  Uiso   1.00
S1202  S     0.63290   0.59252   0.71710   0.00000  Uiso   1.00
S1203  S     0.61874   0.41192   0.70880   0.00000  Uiso   1.00
S1204  S     0.38505   0.57981   0.80661   0.00000  Uiso   1.00
C1205  C     0.75489   0.49949   0.75415   0.00000  Uiso   1.00
C1206  C     0.98138   0.54314   0.75052   0.00000  Uiso   1.00
C1207  C     0.97719   0.45935   0.74128   0.00000  Uiso   1.00
C1208  C     0.69131   0.53998   0.76582   0.00000  Uiso   1.00
C1209  C     0.82337   0.54023   0.54601   0.00000  Uiso   1.00
C1210  C     0.81947   0.46113   0.94925   0.00000  Uiso   1.00
C1211  C     0.84527   0.54025   0.95477   0.00000  Uiso   1.00
C1212  C     0.84433   0.46088   0.54934   0.00000  Uiso   1.00
C1213  C     0.82436   0.54014   0.59202   0.00000  Uiso   1.00
C1214  C     0.81969   0.46090   0.90347   0.00000  Uiso   1.00
C1215  C     0.84455   0.54026   0.90881   0.00000  Uiso   1.00
C1216  C     0.91208   0.50062   0.74640   0.00000  Uiso   1.00
C1217  C     0.84435   0.46058   0.59517   0.00000  Uiso   1.00
C1218  C     0.83424   0.50013   0.61689   0.00000  Uiso   1.00
C1219  C     0.83236   0.50041   0.88294   0.00000  Uiso   1.00
C1220  C     0.83342   0.50059   0.52420   0.00000  Uiso   1.00
C1221  C     0.83270   0.50067   0.97546   0.00000  Uiso   1.00
C1222  C     0.95691   0.50161   0.74315   0.00000  Uiso   1.00
C1223  C     0.71080   0.49871   0.75977   0.00000  Uiso   1.00
C1224  C     0.83397   0.49995   0.66519   0.00000  Uiso   1.00
C1225  C     0.83280   0.50011   0.83478   0.00000  Uiso   1.00
C1226  C     0.80594   0.35733   0.71692   0.00000  Uiso   1.00
C1227  C     0.86136   0.64257   0.78207   0.00000  Uiso   1.00
C1228  C     0.86104   0.35951   0.78277   0.00000  Uiso   1.00
C1229  C     0.80528   0.64036   0.71775   0.00000  Uiso   1.00
C1230  C     0.68698   0.45770   0.75566   0.00000  Uiso   1.00
Cu1231 Cu    0.83333   0.54689   0.75000   0.00000  Uiso   1.00
Cu1232 Cu    0.83333   0.45311   0.75000   0.00000  Uiso   1.00
H1233  H     0.81425   0.57120   0.52752   0.00000  Uiso   1.00
H1234  H     0.93369   0.55355   0.84847   0.00000  Uiso   1.00
H1235  H     0.91982   0.45565   0.86005   0.00000  Uiso   1.00
H1236  H     0.73385   0.54610   0.64911   0.00000  Uiso   1.00
H1237  H     0.75483   0.36438   0.77340   0.00000  Uiso   1.00
H1238  H     0.97036   0.61060   0.64905   0.00000  Uiso   1.00
H1239  H     0.99380   0.40734   0.66209   0.00000  Uiso   1.00
H1240  H     0.70294   0.62982   0.85312   0.00000  Uiso   1.00
H1241  H     0.80861   0.43045   0.96399   0.00000  Uiso   1.00
H1242  H     0.85623   0.57106   0.97411   0.00000  Uiso   1.00
H1243  H     0.85328   0.43013   0.53374   0.00000  Uiso   1.00
H1244  H     0.81693   0.57131   0.60795   0.00000  Uiso   1.00
H1245  H     0.80951   0.42993   0.88414   0.00000  Uiso   1.00
H1246  H     0.85408   0.57126   0.89369   0.00000  Uiso   1.00
H1247  H     0.85279   0.42949   0.61352   0.00000  Uiso   1.00
H1248  H     0.74681   0.44912   0.64081   0.00000  Uiso   1.00
N1249  N     0.83333   0.61736   0.75000   0.00000  Uiso   1.00
N1250  N     0.83333   0.38264   0.75000   0.00000  Uiso   1.00
O1251  O     0.77321   0.53958   0.74999   0.00000  Uiso   1.00
O1252  O     0.72987   0.36361   0.65734   0.00000  Uiso   1.00
O1253  O     0.76036   0.44113   0.67181   0.00000  Uiso   1.00
O1254  O     0.94189   0.62918   0.80728   0.00000  Uiso   1.00
O1255  O     0.90239   0.63254   0.86819   0.00000  Uiso   1.00
O1256  O     0.90620   0.55783   0.82872   0.00000  Uiso   1.00
O1257  O     0.87364   0.38387   0.87000   0.00000  Uiso   1.00
O1258  O     0.93725   0.37135   0.84221   0.00000  Uiso   1.00
O1259  O     0.90648   0.44682   0.82888   0.00000  Uiso   1.00
O1260  O     0.72404   0.62111   0.69075   0.00000  Uiso   1.00
O1261  O     0.76503   0.62673   0.63120   0.00000  Uiso   1.00
O1262  O     0.89345   0.46042   0.75001   0.00000  Uiso   1.00
O1263  O     0.76055   0.55216   0.67034   0.00000  Uiso   1.00
O1264  O     0.74012   0.42505   0.82578   0.00000  Uiso   1.00
O1265  O     0.67411   0.38251   0.80342   0.00000  Uiso   1.00
O1266  O     0.72915   0.37453   0.75350   0.00000  Uiso   1.00
O1267  O     0.92112   0.60401   0.71156   0.00000  Uiso   1.00
O1268  O     0.99202   0.63384   0.73662   0.00000  Uiso   1.00
O1269  O     0.97604   0.58155   0.66571   0.00000  Uiso   1.00
O1270  O     0.93445   0.37843   0.73811   0.00000  Uiso   1.00
O1271  O     0.91745   0.42827   0.67298   0.00000  Uiso   1.00
O1272  O     0.98637   0.38486   0.68385   0.00000  Uiso   1.00
O1273  O     0.89345   0.53958   0.75000   0.00000  Uiso   1.00
O1274  O     0.74878   0.55449   0.84080   0.00000  Uiso   1.00
O1275  O     0.74194   0.61488   0.78461   0.00000  Uiso   1.00
O1276  O     0.68546   0.60658   0.83351   0.00000  Uiso   1.00
O1277  O     0.77321   0.46042   0.74999   0.00000  Uiso   1.00
O1278  O     0.83333   0.53959   0.68573   0.00000  Uiso   1.00
O1279  O     0.83334   0.46041   0.81427   0.00000  Uiso   1.00
O1280  O     0.83334   0.53959   0.81427   0.00000  Uiso   1.00
O1281  O     0.83333   0.46041   0.68573   0.00000  Uiso   1.00
O1282  O     0.79336   0.38030   0.62979   0.00000  Uiso   1.00
S1283  S     0.77240   0.38577   0.66936   0.00000  Uiso   1.00
S1284  S     0.90223   0.61464   0.82161   0.00000  Uiso   1.00
S1285  S     0.89460   0.39059   0.83047   0.00000  Uiso   1.00
S1286  S     0.76443   0.60933   0.67759   0.00000  Uiso   1.00
S1287  S     0.70760   0.40913   0.78625   0.00000  Uiso   1.00
S1288  S     0.96624   0.59252   0.71710   0.00000  Uiso   1.00
S1289  S     0.95208   0.41192   0.70880   0.00000  Uiso   1.00
S1290  S     0.71838   0.57981   0.80661   0.00000  Uiso   1.00
C1291  C     0.08822   0.83282   0.75415   0.00000  Uiso   1.00
C1292  C     0.31471   0.87647   0.75052   0.00000  Uiso   1.00
C1293  C     0.31053   0.79268   0.74128   0.00000  Uiso   1.00
C1294  C     0.02464   0.87331   0.76582   0.00000  Uiso   1.00
C1295  C     0.15670   0.87356   0.54601   0.00000  Uiso   1.00
C1296  C     0.15280   0.79447   0.94925   0.00000  Uiso   1.00
C1297  C     0.17860   0.87358   0.95477   0.00000  Uiso   1.00
C1298  C     0.17766   0.79422   0.54934   0.00000  Uiso   1.00
C1299  C     0.15769   0.87347   0.59202   0.00000  Uiso   1.00
C1300  C     0.15302   0.79424   0.90347   0.00000  Uiso   1.00
C1301  C     0.17788   0.87359   0.90881   0.00000  Uiso   1.00
C1302  C     0.24541   0.83395   0.74640   0.00000  Uiso   1.00
C1303  C     0.17769   0.79391   0.59517   0.00000  Uiso   1.00
C1304  C     0.16757   0.83346   0.61689   0.00000  Uiso   1.00
C1305  C     0.16569   0.83374   0.88294   0.00000  Uiso   1.00
C1306  C     0.16676   0.83392   0.52420   0.00000  Uiso   1.00
C1307  C     0.16603   0.83401   0.97546   0.00000  Uiso   1.00
C1308  C     0.29024   0.83495   0.74315   0.00000  Uiso   1.00
C1309  C     0.04414   0.83205   0.75977   0.00000  Uiso   1.00
C1310  C     0.16730   0.83329   0.66519   0.00000  Uiso   1.00
C1311  C     0.16613   0.83344   0.83478   0.00000  Uiso   1.00
C1312  C     0.13928   0.69066   0.71692   0.00000  Uiso   1.00
C1313  C     0.19470   0.97591   0.78207   0.00000  Uiso   1.00
C1314  C     0.19437   0.69284   0.78277   0.00000  Uiso   1.00
C1315  C     0.13861   0.97370   0.71775   0.00000  Uiso   1.00
C1316  C     0.02031   0.79103   0.75566   0.00000  Uiso   1.00
Cu1317 Cu    0.16667   0.88022   0.75000   0.00000  Uiso   1.00
Cu1318 Cu    0.16667   0.78645   0.75000   0.00000  Uiso   1.00
H1319  H     0.14758   0.90453   0.52752   0.00000  Uiso   1.00
H1320  H     0.26702   0.88689   0.84847   0.00000  Uiso   1.00
H1321  H     0.25315   0.78898   0.86005   0.00000  Uiso   1.00
H1322  H     0.06719   0.87943   0.64911   0.00000  Uiso   1.00
H1323  H     0.08817   0.69771   0.77340   0.00000  Uiso   1.00
H1324  H     0.30369   0.94393   0.64905   0.00000  Uiso   1.00
H1325  H     0.32714   0.74068   0.66209   0.00000  Uiso   1.00
H1326  H     0.03628   0.96315   0.85312   0.00000  Uiso   1.00
H1327  H     0.14194   0.76379   0.96399   0.00000  Uiso   1.00
H1328  H     0.18956   0.90440   0.97411   0.00000  Uiso   1.00
H1329  H     0.18661   0.76347   0.53374   0.00000  Uiso   1.00
H1330  H     0.15026   0.90464   0.60795   0.00000  Uiso   1.00
H1331  H     0.14284   0.76326   0.88414   0.00000  Uiso   1.00
H1332  H     0.18741   0.90459   0.89369   0.00000  Uiso   1.00
H1333  H     0.18613   0.76282   0.61352   0.00000  Uiso   1.00
H1334  H     0.08014   0.78245   0.64081   0.00000  Uiso   1.00
N1335  N     0.16667   0.95069   0.75000   0.00000  Uiso   1.00
N1336  N     0.16667   0.71598   0.75000   0.00000  Uiso   1.00
O1337  O     0.10655   0.87291   0.74999   0.00000  Uiso   1.00
O1338  O     0.06320   0.69694   0.65734   0.00000  Uiso   1.00
O1339  O     0.09370   0.77446   0.67181   0.00000  Uiso   1.00
O1340  O     0.27523   0.96252   0.80728   0.00000  Uiso   1.00
O1341  O     0.23572   0.96587   0.86819   0.00000  Uiso   1.00
O1342  O     0.23953   0.89117   0.82872   0.00000  Uiso   1.00
O1343  O     0.20698   0.71721   0.87000   0.00000  Uiso   1.00
O1344  O     0.27058   0.70469   0.84221   0.00000  Uiso   1.00
O1345  O     0.23981   0.78016   0.82888   0.00000  Uiso   1.00
O1346  O     0.05738   0.95444   0.69075   0.00000  Uiso   1.00
O1347  O     0.09836   0.96006   0.63120   0.00000  Uiso   1.00
O1348  O     0.22679   0.79375   0.75001   0.00000  Uiso   1.00
O1349  O     0.09389   0.88550   0.67034   0.00000  Uiso   1.00
O1350  O     0.07345   0.75838   0.82578   0.00000  Uiso   1.00
O1351  O     0.00744   0.71585   0.80342   0.00000  Uiso   1.00
O1352  O     0.06248   0.70787   0.75350   0.00000  Uiso   1.00
O1353  O     0.25445   0.93734   0.71156   0.00000  Uiso   1.00
O1354  O     0.32535   0.96717   0.73662   0.00000  Uiso   1.00
O1355  O     0.30938   0.91489   0.66571   0.00000  Uiso   1.00
O1356  O     0.26779   0.71177   0.73811   0.00000  Uiso   1.00
O1357  O     0.25079   0.76161   0.67298   0.00000  Uiso   1.00
O1358  O     0.31970   0.71819   0.68385   0.00000  Uiso   1.00
O1359  O     0.22679   0.87291   0.75000   0.00000  Uiso   1.00
O1360  O     0.08211   0.88783   0.84080   0.00000  Uiso   1.00
O1361  O     0.07527   0.94821   0.78461   0.00000  Uiso   1.00
O1362  O     0.01879   0.93992   0.83351   0.00000  Uiso   1.00
O1363  O     0.10655   0.79375   0.74999   0.00000  Uiso   1.00
O1364  O     0.16666   0.87293   0.68573   0.00000  Uiso   1.00
O1365  O     0.16667   0.79374   0.81427   0.00000  Uiso   1.00
O1366  O     0.16667   0.87293   0.81427   0.00000  Uiso   1.00
O1367  O     0.16666   0.79374   0.68573   0.00000  Uiso   1.00
O1368  O     0.12669   0.71363   0.62979   0.00000  Uiso   1.00
S1369  S     0.10573   0.71910   0.66936   0.00000  Uiso   1.00
S1370  S     0.23556   0.94797   0.82161   0.00000  Uiso   1.00
S1371  S     0.22793   0.72392   0.83047   0.00000  Uiso   1.00
S1372  S     0.09776   0.94267   0.67759   0.00000  Uiso   1.00
S1373  S     0.04094   0.74246   0.78625   0.00000  Uiso   1.00
S1374  S     0.29957   0.92585   0.71710   0.00000  Uiso   1.00
S1375  S     0.28541   0.74525   0.70880   0.00000  Uiso   1.00
S1376  S     0.05171   0.91315   0.80661   0.00000  Uiso   1.00
C1377  C     0.42155   0.83282   0.75415   0.00000  Uiso   1.00
C1378  C     0.64804   0.87647   0.75052   0.00000  Uiso   1.00
C1379  C     0.64386   0.79268   0.74128   0.00000  Uiso   1.00
C1380  C     0.35797   0.87331   0.76582   0.00000  Uiso   1.00
C1381  C     0.49004   0.87356   0.54601   0.00000  Uiso   1.00
C1382  C     0.48614   0.79447   0.94925   0.00000  Uiso   1.00
C1383  C     0.51194   0.87358   0.95477   0.00000  Uiso   1.00
C1384  C     0.51100   0.79422   0.54934   0.00000  Uiso   1.00
C1385  C     0.49102   0.87347   0.59202   0.00000  Uiso   1.00
C1386  C     0.48635   0.79424   0.90347   0.00000  Uiso   1.00
C1387  C     0.51122   0.87359   0.90881   0.00000  Uiso   1.00
C1388  C     0.57875   0.83395   0.74640   0.00000  Uiso   1.00
C1389  C     0.51102   0.79391   0.59517   0.00000  Uiso   1.00
C1390  C     0.50090   0.83346   0.61689   0.00000  Uiso   1.00
C1391  C     0.49902   0.83374   0.88294   0.00000  Uiso   1.00
C1392  C     0.50009   0.83392   0.52420   0.00000  Uiso   1.00
C1393  C     0.49936   0.83401   0.97546   0.00000  Uiso   1.00
C1394  C     0.62358   0.83495   0.74315   0.00000  Uiso   1.00
C1395  C     0.37747   0.83205   0.75977   0.00000  Uiso   1.00
C1396  C     0.50064   0.83329   0.66519   0.00000  Uiso   1.00
C1397  C     0.49947   0.83344   0.83478   0.00000  Uiso   1.00
C1398  C     0.47261   0.69066   0.71692   0.00000  Uiso   1.00
C1399  C     0.52803   0.97591   0.78207   0.00000  Uiso   1.00
C1400  C     0.52770   0.69284   0.78277   0.00000  Uiso   1.00
C1401  C     0.47195   0.97370   0.71775   0.00000  Uiso   1.00
C1402  C     0.35365   0.79103   0.75566   0.00000  Uiso   1.00
Cu1403 Cu    0.50000   0.88022   0.75000   0.00000  Uiso   1.00
Cu1404 Cu    0.50000   0.78645   0.75000   0.00000  Uiso   1.00
H1405  H     0.48092   0.90453   0.52752   0.00000  Uiso   1.00
H1406  H     0.60035   0.88689   0.84847   0.00000  Uiso   1.00
H1407  H     0.58648   0.78898   0.86005   0.00000  Uiso   1.00
H1408  H     0.40052   0.87943   0.64911   0.00000  Uiso   1.00
H1409  H     0.42150   0.69771   0.77340   0.00000  Uiso   1.00
H1410  H     0.63702   0.94393   0.64905   0.00000  Uiso   1.00
H1411  H     0.66047   0.74068   0.66209   0.00000  Uiso   1.00
H1412  H     0.36961   0.96315   0.85312   0.00000  Uiso   1.00
H1413  H     0.47527   0.76379   0.96399   0.00000  Uiso   1.00
H1414  H     0.52290   0.90440   0.97411   0.00000  Uiso   1.00
H1415  H     0.51994   0.76347   0.53374   0.00000  Uiso   1.00
H1416  H     0.48360   0.90464   0.60795   0.00000  Uiso   1.00
H1417  H     0.47617   0.76326   0.88414   0.00000  Uiso   1.00
H1418  H     0.52074   0.90459   0.89369   0.00000  Uiso   1.00
H1419  H     0.51946   0.76282   0.61352   0.00000  Uiso   1.00
H1420  H     0.41347   0.78245   0.64081   0.00000  Uiso   1.00
N1421  N     0.50000   0.95069   0.75000   0.00000  Uiso   1.00
N1422  N     0.50000   0.71598   0.75000   0.00000  Uiso   1.00
O1423  O     0.43988   0.87291   0.74999   0.00000  Uiso   1.00
O1424  O     0.39653   0.69694   0.65734   0.00000  Uiso   1.00
O1425  O     0.42703   0.77446   0.67181   0.00000  Uiso   1.00
O1426  O     0.60856   0.96252   0.80728   0.00000  Uiso   1.00
O1427  O     0.56906   0.96587   0.86819   0.00000  Uiso   1.00
O1428  O     0.57287   0.89117   0.82872   0.00000  Uiso   1.00
O1429  O     0.54031   0.71721   0.87000   0.00000  Uiso   1.00
O1430  O     0.60392   0.70469   0.84221   0.00000  Uiso   1.00
O1431  O     0.57314   0.78016   0.82888   0.00000  Uiso   1.00
O1432  O     0.39071   0.95444   0.69075   0.00000  Uiso   1.00
O1433  O     0.43169   0.96006   0.63120   0.00000  Uiso   1.00
O1434  O     0.56012   0.79375   0.75001   0.00000  Uiso   1.00
O1435  O     0.42722   0.88550   0.67034   0.00000  Uiso   1.00
O1436  O     0.40679   0.75838   0.82578   0.00000  Uiso   1.00
O1437  O     0.34078   0.71585   0.80342   0.00000  Uiso   1.00
O1438  O     0.39582   0.70787   0.75350   0.00000  Uiso   1.00
O1439  O     0.58779   0.93734   0.71156   0.00000  Uiso   1.00
O1440  O     0.65869   0.96717   0.73662   0.00000  Uiso   1.00
O1441  O     0.64271   0.91489   0.66571   0.00000  Uiso   1.00
O1442  O     0.60112   0.71177   0.73811   0.00000  Uiso   1.00
O1443  O     0.58412   0.76161   0.67298   0.00000  Uiso   1.00
O1444  O     0.65304   0.71819   0.68385   0.00000  Uiso   1.00
O1445  O     0.56012   0.87291   0.75000   0.00000  Uiso   1.00
O1446  O     0.41545   0.88783   0.84080   0.00000  Uiso   1.00
O1447  O     0.40860   0.94821   0.78461   0.00000  Uiso   1.00
O1448  O     0.35212   0.93992   0.83351   0.00000  Uiso   1.00
O1449  O     0.43988   0.79375   0.74999   0.00000  Uiso   1.00
O1450  O     0.50000   0.87293   0.68573   0.00000  Uiso   1.00
O1451  O     0.50000   0.79374   0.81427   0.00000  Uiso   1.00
O1452  O     0.50000   0.87293   0.81427   0.00000  Uiso   1.00
O1453  O     0.50000   0.79374   0.68573   0.00000  Uiso   1.00
O1454  O     0.46002   0.71363   0.62979   0.00000  Uiso   1.00
S1455  S     0.43907   0.71910   0.66936   0.00000  Uiso   1.00
S1456  S     0.56890   0.94797   0.82161   0.00000  Uiso   1.00
S1457  S     0.56127   0.72392   0.83047   0.00000  Uiso   1.00
S1458  S     0.43110   0.94267   0.67759   0.00000  Uiso   1.00
S1459  S     0.37427   0.74246   0.78625   0.00000  Uiso   1.00
S1460  S     0.63290   0.92585   0.71710   0.00000  Uiso   1.00
S1461  S     0.61874   0.74525   0.70880   0.00000  Uiso   1.00
S1462  S     0.38505   0.91315   0.80661   0.00000  Uiso   1.00
C1463  C     0.75489   0.83282   0.75415   0.00000  Uiso   1.00
C1464  C     0.98138   0.87647   0.75052   0.00000  Uiso   1.00
C1465  C     0.97719   0.79268   0.74128   0.00000  Uiso   1.00
C1466  C     0.69131   0.87331   0.76582   0.00000  Uiso   1.00
C1467  C     0.82337   0.87356   0.54601   0.00000  Uiso   1.00
C1468  C     0.81947   0.79447   0.94925   0.00000  Uiso   1.00
C1469  C     0.84527   0.87358   0.95477   0.00000  Uiso   1.00
C1470  C     0.84433   0.79422   0.54934   0.00000  Uiso   1.00
C1471  C     0.82436   0.87347   0.59202   0.00000  Uiso   1.00
C1472  C     0.81969   0.79424   0.90347   0.00000  Uiso   1.00
C1473  C     0.84455   0.87359   0.90881   0.00000  Uiso   1.00
C1474  C     0.91208   0.83395   0.74640   0.00000  Uiso   1.00
C1475  C     0.84435   0.79391   0.59517   0.00000  Uiso   1.00
C1476  C     0.83424   0.83346   0.61689   0.00000  Uiso   1.00
C1477  C     0.83236   0.83374   0.88294   0.00000  Uiso   1.00
C1478  C     0.83342   0.83392   0.52420   0.00000  Uiso   1.00
C1479  C     0.83270   0.83401   0.97546   0.00000  Uiso   1.00
C1480  C     0.95691   0.83495   0.74315   0.00000  Uiso   1.00
C1481  C     0.71080   0.83205   0.75977   0.00000  Uiso   1.00
C1482  C     0.83397   0.83329   0.66519   0.00000  Uiso   1.00
C1483  C     0.83280   0.83344   0.83478   0.00000  Uiso   1.00
C1484  C     0.80594   0.69066   0.71692   0.00000  Uiso   1.00
C1485  C     0.86136   0.97591   0.78207   0.00000  Uiso   1.00
C1486  C     0.86104   0.69284   0.78277   0.00000  Uiso   1.00
C1487  C     0.80528   0.97370   0.71775   0.00000  Uiso   1.00
C1488  C     0.68698   0.79103   0.75566   0.00000  Uiso   1.00
Cu1489 Cu    0.83333   0.88022   0.75000   0.00000  Uiso   1.00
Cu1490 Cu    0.83333   0.78645   0.75000   0.00000  Uiso   1.00
H1491  H     0.81425   0.90453   0.52752   0.00000  Uiso   1.00
H1492  H     0.93369   0.88689   0.84847   0.00000  Uiso   1.00
H1493  H     0.91982   0.78898   0.86005   0.00000  Uiso   1.00
H1494  H     0.73385   0.87943   0.64911   0.00000  Uiso   1.00
H1495  H     0.75483   0.69771   0.77340   0.00000  Uiso   1.00
H1496  H     0.97036   0.94393   0.64905   0.00000  Uiso   1.00
H1497  H     0.99380   0.74068   0.66209   0.00000  Uiso   1.00
H1498  H     0.70294   0.96315   0.85312   0.00000  Uiso   1.00
H1499  H     0.80861   0.76379   0.96399   0.00000  Uiso   1.00
H1500  H     0.85623   0.90440   0.97411   0.00000  Uiso   1.00
H1501  H     0.85328   0.76347   0.53374   0.00000  Uiso   1.00
H1502  H     0.81693   0.90464   0.60795   0.00000  Uiso   1.00
H1503  H     0.80951   0.76326   0.88414   0.00000  Uiso   1.00
H1504  H     0.85408   0.90459   0.89369   0.00000  Uiso   1.00
H1505  H     0.85279   0.76282   0.61352   0.00000  Uiso   1.00
H1506  H     0.74681   0.78245   0.64081   0.00000  Uiso   1.00
N1507  N     0.83333   0.95069   0.75000   0.00000  Uiso   1.00
N1508  N     0.83333   0.71598   0.75000   0.00000  Uiso   1.00
O1509  O     0.77321   0.87291   0.74999   0.00000  Uiso   1.00
O1510  O     0.72987   0.69694   0.65734   0.00000  Uiso   1.00
O1511  O     0.76036   0.77446   0.67181   0.00000  Uiso   1.00
O1512  O     0.94189   0.96252   0.80728   0.00000  Uiso   1.00
O1513  O     0.90239   0.96587   0.86819   0.00000  Uiso   1.00
O1514  O     0.90620   0.89117   0.82872   0.00000  Uiso   1.00
O1515  O     0.87364   0.71721   0.87000   0.00000  Uiso   1.00
O1516  O     0.93725   0.70469   0.84221   0.00000  Uiso   1.00
O1517  O     0.90648   0.78016   0.82888   0.00000  Uiso   1.00
O1518  O     0.72404   0.95444   0.69075   0.00000  Uiso   1.00
O1519  O     0.76503   0.96006   0.63120   0.00000  Uiso   1.00
O1520  O     0.89345   0.79375   0.75001   0.00000  Uiso   1.00
O1521  O     0.76055   0.88550   0.67034   0.00000  Uiso   1.00
O1522  O     0.74012   0.75838   0.82578   0.00000  Uiso   1.00
O1523  O     0.67411   0.71585   0.80342   0.00000  Uiso   1.00
O1524  O     0.72915   0.70787   0.75350   0.00000  Uiso   1.00
O1525  O     0.92112   0.93734   0.71156   0.00000  Uiso   1.00
O1526  O     0.99202   0.96717   0.73662   0.00000  Uiso   1.00
O1527  O     0.97604   0.91489   0.66571   0.00000  Uiso   1.00
O1528  O     0.93445   0.71177   0.73811   0.00000  Uiso   1.00
O1529  O     0.91745   0.76161   0.67298   0.00000  Uiso   1.00
O1530  O     0.98637   0.71819   0.68385   0.00000  Uiso   1.00
O1531  O     0.89345   0.87291   0.75000   0.00000  Uiso   1.00
O1532  O     0.74878   0.88783   0.84080   0.00000  Uiso   1.00
O1533  O     0.74194   0.94821   0.78461   0.00000  Uiso   1.00
O1534  O     0.68546   0.93992   0.83351   0.00000  Uiso   1.00
O1535  O     0.77321   0.79375   0.74999   0.00000  Uiso   1.00
O1536  O     0.83333   0.87293   0.68573   0.00000  Uiso   1.00
O1537  O     0.83334   0.79374   0.81427   0.00000  Uiso   1.00
O1538  O     0.83334   0.87293   0.81427   0.00000  Uiso   1.00
O1539  O     0.83333   0.79374   0.68573   0.00000  Uiso   1.00
O1540  O     0.79336   0.71363   0.62979   0.00000  Uiso   1.00
S1541  S     0.77240   0.71910   0.66936   0.00000  Uiso   1.00
S1542  S     0.90223   0.94797   0.82161   0.00000  Uiso   1.00
S1543  S     0.89460   0.72392   0.83047   0.00000  Uiso   1.00
S1544  S     0.76443   0.94267   0.67759   0.00000  Uiso   1.00
S1545  S     0.70760   0.74246   0.78625   0.00000  Uiso   1.00
S1546  S     0.96624   0.92585   0.71710   0.00000  Uiso   1.00
S1547  S     0.95208   0.74525   0.70880   0.00000  Uiso   1.00
S1548  S     0.71838   0.91315   0.80661   0.00000  Uiso   1.00
loop_
_geom_bond_atom_site_label_1
_geom_bond_atom_site_label_2
_geom_bond_distance
_geom_bond_site_symmetry_2
_ccdc_geom_bond_type
C1     C19     1.484   .     S
C1     O47     1.315   .     A
C1     O73     1.316   .     A
C2     S84     1.789   .     S
C2     C18     1.423   .     A
C2     C90     1.407   .     S
C3     S85     1.778   .     S
C3     C18     1.419   .     A
C3     C112    1.396   .     S
C4     C19     1.402   .     A
C4     S86     1.779   .     S
C4     C174    1.407   1_455 S
C5     C16     1.404   .     A
C5     H29     1.083   .     S
C5     C9      1.390   .     A
C6     H37     1.083   .     S
C6     C17     1.404   .     A
C6     C10     1.390   .     A
C7     C11     1.390   .     A
C7     C17     1.404   .     A
C7     H38     1.082   .     S
C8     C13     1.390   .     A
C8     H39     1.083   .     S
C8     C16     1.404   .     A
C9     C14     1.402   .     A
C9     H40     1.080   .     S
C10    C15     1.401   .     A
C10    H41     1.081   .     S
C11    H42     1.080   .     S
C11    C15     1.401   .     A
C12    O58     1.319   .     A
C12    O69     1.315   .     A
C12    C18     1.488   .     S
C13    C14     1.401   .     A
C13    H43     1.079   .     S
C14    C20     1.467   .     S
C15    C21     1.464   .     S
C16    C791    1.474   1_554 S
C17    C790    1.474   .     S
C19    C26     1.399   .     A
C20    O77     1.313   .     A
C20    O74     1.310   .     A
C21    O76     1.311   .     A
C21    O75     1.311   .     A
C22    S79     1.850   .     S
C22    N46     1.401   .     A
C22    C541    1.463   1_545 S
C23    N45     1.392   .     A
C23    S80     1.827   .     S
C23    C282    1.463   .     S
C24    S81     1.854   .     S
C24    N46     1.399   .     A
C24    C539    1.463   1_545 S
C25    S82     1.838   .     S
C25    N45     1.394   .     A
C25    C280    1.463   .     S
C26    S83     1.772   .     S
C26    C175    1.396   1_455 S
Cu27   O74     1.960   .     S
Cu27   O69     1.983   .     S
Cu27   N45     2.050   .     S
Cu27   O76     1.962   .     S
Cu27   O47     1.972   .     S
Cu27   Cu28    2.728   .     S
Cu28   N46     2.050   .     S
Cu28   O73     1.983   .     S
Cu28   O77     1.962   .     S
Cu28   O58     1.972   .     S
Cu28   O75     1.960   .     S
H30    O52     0.991   .     S
H31    O55     0.991   .     S
H32    O59     0.991   .     S
H33    O62     0.989   .     S
H34    O65     0.991   .     S
H35    O68     0.991   .     S
H36    O72     0.991   .     S
H44    O49     0.991   .     S
O48    S79     1.496   .     D
O49    S79     1.673   .     S
O50    S80     1.497   .     D
O51    S80     1.502   .     D
O52    S80     1.673   .     S
O53    S81     1.503   .     D
O54    S81     1.496   .     D
O55    S81     1.675   .     S
O56    S82     1.499   .     D
O57    S82     1.502   .     D
O59    S82     1.675   .     S
O60    S83     1.503   .     D
O61    S83     1.500   .     D
O62    S83     1.671   .     S
O63    S84     1.500   .     D
O64    S84     1.501   .     D
O65    S84     1.681   .     S
O66    S85     1.500   .     D
O67    S85     1.500   .     D
O68    S85     1.679   .     S
O70    S86     1.503   .     D
O71    S86     1.498   .     D
O72    S86     1.675   .     S
O78    S79     1.502   .     D
C87    C105    1.484   .     S
C87    O133    1.315   .     A
C87    O159    1.316   .     A
C88    S170    1.789   .     S
C88    C104    1.423   .     A
C88    C176    1.407   .     S
C89    S171    1.778   .     S
C89    C104    1.419   .     A
C89    C198    1.396   .     S
C90    C105    1.402   .     A
C90    S172    1.779   .     S
C91    C102    1.404   .     A
C91    H115    1.083   .     S
C91    C95     1.390   .     A
C92    H123    1.083   .     S
C92    C103    1.404   .     A
C92    C96     1.390   .     A
C93    C97     1.390   .     A
C93    C103    1.404   .     A
C93    H124    1.082   .     S
C94    C99     1.390   .     A
C94    H125    1.083   .     S
C94    C102    1.404   .     A
C95    C100    1.402   .     A
C95    H126    1.080   .     S
C96    C101    1.401   .     A
C96    H127    1.081   .     S
C97    H128    1.080   .     S
C97    C101    1.401   .     A
C98    O144    1.319   .     A
C98    O155    1.315   .     A
C98    C104    1.488   .     S
C99    C100    1.401   .     A
C99    H129    1.079   .     S
C100   C106    1.467   .     S
C101   C107    1.464   .     S
C102   C877    1.474   1_554 S
C103   C876    1.474   .     S
C105   C112    1.399   .     A
C106   O163    1.313   .     A
C106   O160    1.310   .     A
C107   O162    1.311   .     A
C107   O161    1.311   .     A
C108   S165    1.850   .     S
C108   N132    1.401   .     A
C108   C627    1.463   1_545 S
C109   N131    1.392   .     A
C109   S166    1.827   .     S
C109   C368    1.463   .     S
C110   S167    1.854   .     S
C110   N132    1.399   .     A
C110   C625    1.463   1_545 S
C111   S168    1.838   .     S
C111   N131    1.394   .     A
C111   C366    1.463   .     S
C112   S169    1.772   .     S
Cu113  O160    1.960   .     S
Cu113  O155    1.983   .     S
Cu113  N131    2.050   .     S
Cu113  O162    1.962   .     S
Cu113  O133    1.972   .     S
Cu113  Cu114   2.728   .     S
Cu114  N132    2.050   .     S
Cu114  O159    1.983   .     S
Cu114  O163    1.962   .     S
Cu114  O144    1.972   .     S
Cu114  O161    1.960   .     S
H116   O138    0.991   .     S
H117   O141    0.991   .     S
H118   O145    0.991   .     S
H119   O148    0.989   .     S
H120   O151    0.991   .     S
H121   O154    0.991   .     S
H122   O158    0.991   .     S
H130   O135    0.991   .     S
O134   S165    1.496   .     D
O135   S165    1.673   .     S
O136   S166    1.497   .     D
O137   S166    1.502   .     D
O138   S166    1.673   .     S
O139   S167    1.503   .     D
O140   S167    1.496   .     D
O141   S167    1.675   .     S
O142   S168    1.499   .     D
O143   S168    1.502   .     D
O145   S168    1.675   .     S
O146   S169    1.503   .     D
O147   S169    1.500   .     D
O148   S169    1.671   .     S
O149   S170    1.500   .     D
O150   S170    1.501   .     D
O151   S170    1.681   .     S
O152   S171    1.500   .     D
O153   S171    1.500   .     D
O154   S171    1.679   .     S
O156   S172    1.503   .     D
O157   S172    1.498   .     D
O158   S172    1.675   .     S
O164   S165    1.502   .     D
C173   C191    1.484   .     S
C173   O219    1.315   .     A
C173   O245    1.316   .     A
C174   S256    1.789   .     S
C174   C190    1.423   .     A
C174   C4      1.407   1_655 S
C175   S257    1.778   .     S
C175   C190    1.419   .     A
C175   C26     1.396   1_655 S
C176   C191    1.402   .     A
C176   S258    1.779   .     S
C177   C188    1.404   .     A
C177   H201    1.083   .     S
C177   C181    1.390   .     A
C178   H209    1.083   .     S
C178   C189    1.404   .     A
C178   C182    1.390   .     A
C179   C183    1.390   .     A
C179   C189    1.404   .     A
C179   H210    1.082   .     S
C180   C185    1.390   .     A
C180   H211    1.083   .     S
C180   C188    1.404   .     A
C181   C186    1.402   .     A
C181   H212    1.080   .     S
C182   C187    1.401   .     A
C182   H213    1.081   .     S
C183   H214    1.080   .     S
C183   C187    1.401   .     A
C184   O230    1.319   .     A
C184   O241    1.315   .     A
C184   C190    1.488   .     S
C185   C186    1.401   .     A
C185   H215    1.079   .     S
C186   C192    1.467   .     S
C187   C193    1.464   .     S
C188   C963    1.474   1_554 S
C189   C962    1.474   .     S
C191   C198    1.399   .     A
C192   O249    1.313   .     A
C192   O246    1.310   .     A
C193   O248    1.311   .     A
C193   O247    1.311   .     A
C194   S251    1.850   .     S
C194   N218    1.401   .     A
C194   C713    1.463   1_545 S
C195   N217    1.392   .     A
C195   S252    1.827   .     S
C195   C454    1.463   .     S
C196   S253    1.854   .     S
C196   N218    1.399   .     A
C196   C711    1.463   1_545 S
C197   S254    1.838   .     S
C197   N217    1.394   .     A
C197   C452    1.463   .     S
C198   S255    1.772   .     S
Cu199  O246    1.960   .     S
Cu199  O241    1.983   .     S
Cu199  N217    2.050   .     S
Cu199  O248    1.962   .     S
Cu199  O219    1.972   .     S
Cu199  Cu200   2.728   .     S
Cu200  N218    2.050   .     S
Cu200  O245    1.983   .     S
Cu200  O249    1.962   .     S
Cu200  O230    1.972   .     S
Cu200  O247    1.960   .     S
H202   O224    0.991   .     S
H203   O227    0.991   .     S
H204   O231    0.991   .     S
H205   O234    0.989   .     S
H206   O237    0.991   .     S
H207   O240    0.991   .     S
H208   O244    0.991   .     S
H216   O221    0.991   .     S
O220   S251    1.496   .     D
O221   S251    1.673   .     S
O222   S252    1.497   .     D
O223   S252    1.502   .     D
O224   S252    1.673   .     S
O225   S253    1.503   .     D
O226   S253    1.496   .     D
O227   S253    1.675   .     S
O228   S254    1.499   .     D
O229   S254    1.502   .     D
O231   S254    1.675   .     S
O232   S255    1.503   .     D
O233   S255    1.500   .     D
O234   S255    1.671   .     S
O235   S256    1.500   .     D
O236   S256    1.501   .     D
O237   S256    1.681   .     S
O238   S257    1.500   .     D
O239   S257    1.500   .     D
O240   S257    1.679   .     S
O242   S258    1.503   .     D
O243   S258    1.498   .     D
O244   S258    1.675   .     S
O250   S251    1.502   .     D
C259   C277    1.484   .     S
C259   O305    1.315   .     A
C259   O331    1.316   .     A
C260   S342    1.789   .     S
C260   C276    1.423   .     A
C260   C348    1.407   .     S
C261   S343    1.778   .     S
C261   C276    1.419   .     A
C261   C370    1.396   .     S
C262   C277    1.402   .     A
C262   S344    1.779   .     S
C262   C432    1.407   1_455 S
C263   C274    1.404   .     A
C263   H287    1.083   .     S
C263   C267    1.390   .     A
C264   H295    1.083   .     S
C264   C275    1.404   .     A
C264   C268    1.390   .     A
C265   C269    1.390   .     A
C265   C275    1.404   .     A
C265   H296    1.082   .     S
C266   C271    1.390   .     A
C266   H297    1.083   .     S
C266   C274    1.404   .     A
C267   C272    1.402   .     A
C267   H298    1.080   .     S
C268   C273    1.401   .     A
C268   H299    1.081   .     S
C269   H300    1.080   .     S
C269   C273    1.401   .     A
C270   O316    1.319   .     A
C270   O327    1.315   .     A
C270   C276    1.488   .     S
C271   C272    1.401   .     A
C271   H301    1.079   .     S
C272   C278    1.467   .     S
C273   C279    1.464   .     S
C274   C1049   1.474   1_554 S
C275   C1048   1.474   .     S
C277   C284    1.399   .     A
C278   O335    1.313   .     A
C278   O332    1.310   .     A
C279   O334    1.311   .     A
C279   O333    1.311   .     A
C280   S337    1.850   .     S
C280   N304    1.401   .     A
C281   N303    1.392   .     A
C281   S338    1.827   .     S
C281   C540    1.463   .     S
C282   S339    1.854   .     S
C282   N304    1.399   .     A
C283   S340    1.838   .     S
C283   N303    1.394   .     A
C283   C538    1.463   .     S
C284   S341    1.772   .     S
C284   C433    1.396   1_455 S
Cu285  O332    1.960   .     S
Cu285  O327    1.983   .     S
Cu285  N303    2.050   .     S
Cu285  O334    1.962   .     S
Cu285  O305    1.972   .     S
Cu285  Cu286   2.728   .     S
Cu286  N304    2.050   .     S
Cu286  O331    1.983   .     S
Cu286  O335    1.962   .     S
Cu286  O316    1.972   .     S
Cu286  O333    1.960   .     S
H288   O310    0.991   .     S
H289   O313    0.991   .     S
H290   O317    0.991   .     S
H291   O320    0.989   .     S
H292   O323    0.991   .     S
H293   O326    0.991   .     S
H294   O330    0.991   .     S
H302   O307    0.991   .     S
O306   S337    1.496   .     D
O307   S337    1.673   .     S
O308   S338    1.497   .     D
O309   S338    1.502   .     D
O310   S338    1.673   .     S
O311   S339    1.503   .     D
O312   S339    1.496   .     D
O313   S339    1.675   .     S
O314   S340    1.499   .     D
O315   S340    1.502   .     D
O317   S340    1.675   .     S
O318   S341    1.503   .     D
O319   S341    1.500   .     D
O320   S341    1.671   .     S
O321   S342    1.500   .     D
O322   S342    1.501   .     D
O323   S342    1.681   .     S
O324   S343    1.500   .     D
O325   S343    1.500   .     D
O326   S343    1.679   .     S
O328   S344    1.503   .     D
O329   S344    1.498   .     D
O330   S344    1.675   .     S
O336   S337    1.502   .     D
C345   C363    1.484   .     S
C345   O391    1.315   .     A
C345   O417    1.316   .     A
C346   S428    1.789   .     S
C346   C362    1.423   .     A
C346   C434    1.407   .     S
C347   S429    1.778   .     S
C347   C362    1.419   .     A
C347   C456    1.396   .     S
C348   C363    1.402   .     A
C348   S430    1.779   .     S
C349   C360    1.404   .     A
C349   H373    1.083   .     S
C349   C353    1.390   .     A
C350   H381    1.083   .     S
C350   C361    1.404   .     A
C350   C354    1.390   .     A
C351   C355    1.390   .     A
C351   C361    1.404   .     A
C351   H382    1.082   .     S
C352   C357    1.390   .     A
C352   H383    1.083   .     S
C352   C360    1.404   .     A
C353   C358    1.402   .     A
C353   H384    1.080   .     S
C354   C359    1.401   .     A
C354   H385    1.081   .     S
C355   H386    1.080   .     S
C355   C359    1.401   .     A
C356   O402    1.319   .     A
C356   O413    1.315   .     A
C356   C362    1.488   .     S
C357   C358    1.401   .     A
C357   H387    1.079   .     S
C358   C364    1.467   .     S
C359   C365    1.464   .     S
C360   C1135   1.474   1_554 S
C361   C1134   1.474   .     S
C363   C370    1.399   .     A
C364   O421    1.313   .     A
C364   O418    1.310   .     A
C365   O420    1.311   .     A
C365   O419    1.311   .     A
C366   S423    1.850   .     S
C366   N390    1.401   .     A
C367   N389    1.392   .     A
C367   S424    1.827   .     S
C367   C626    1.463   .     S
C368   S425    1.854   .     S
C368   N390    1.399   .     A
C369   S426    1.838   .     S
C369   N389    1.394   .     A
C369   C624    1.463   .     S
C370   S427    1.772   .     S
Cu371  O418    1.960   .     S
Cu371  O413    1.983   .     S
Cu371  N389    2.050   .     S
Cu371  O420    1.962   .     S
Cu371  O391    1.972   .     S
Cu371  Cu372   2.728   .     S
Cu372  N390    2.050   .     S
Cu372  O417    1.983   .     S
Cu372  O421    1.962   .     S
Cu372  O402    1.972   .     S
Cu372  O419    1.960   .     S
H374   O396    0.991   .     S
H375   O399    0.991   .     S
H376   O403    0.991   .     S
H377   O406    0.989   .     S
H378   O409    0.991   .     S
H379   O412    0.991   .     S
H380   O416    0.991   .     S
H388   O393    0.991   .     S
O392   S423    1.496   .     D
O393   S423    1.673   .     S
O394   S424    1.497   .     D
O395   S424    1.502   .     D
O396   S424    1.673   .     S
O397   S425    1.503   .     D
O398   S425    1.496   .     D
O399   S425    1.675   .     S
O400   S426    1.499   .     D
O401   S426    1.502   .     D
O403   S426    1.675   .     S
O404   S427    1.503   .     D
O405   S427    1.500   .     D
O406   S427    1.671   .     S
O407   S428    1.500   .     D
O408   S428    1.501   .     D
O409   S428    1.681   .     S
O410   S429    1.500   .     D
O411   S429    1.500   .     D
O412   S429    1.679   .     S
O414   S430    1.503   .     D
O415   S430    1.498   .     D
O416   S430    1.675   .     S
O422   S423    1.502   .     D
C431   C449    1.484   .     S
C431   O477    1.315   .     A
C431   O503    1.316   .     A
C432   S514    1.789   .     S
C432   C448    1.423   .     A
C432   C262    1.407   1_655 S
C433   S515    1.778   .     S
C433   C448    1.419   .     A
C433   C284    1.396   1_655 S
C434   C449    1.402   .     A
C434   S516    1.779   .     S
C435   C446    1.404   .     A
C435   H459    1.083   .     S
C435   C439    1.390   .     A
C436   H467    1.083   .     S
C436   C447    1.404   .     A
C436   C440    1.390   .     A
C437   C441    1.390   .     A
C437   C447    1.404   .     A
C437   H468    1.082   .     S
C438   C443    1.390   .     A
C438   H469    1.083   .     S
C438   C446    1.404   .     A
C439   C444    1.402   .     A
C439   H470    1.080   .     S
C440   C445    1.401   .     A
C440   H471    1.081   .     S
C441   H472    1.080   .     S
C441   C445    1.401   .     A
C442   O488    1.319   .     A
C442   O499    1.315   .     A
C442   C448    1.488   .     S
C443   C444    1.401   .     A
C443   H473    1.079   .     S
C444   C450    1.467   .     S
C445   C451    1.464   .     S
C446   C1221   1.474   1_554 S
C447   C1220   1.474   .     S
C449   C456    1.399   .     A
C450   O507    1.313   .     A
C450   O504    1.310   .     A
C451   O506    1.311   .     A
C451   O505    1.311   .     A
C452   S509    1.850   .     S
C452   N476    1.401   .     A
C453   N475    1.392   .     A
C453   S510    1.827   .     S
C453   C712    1.463   .     S
C454   S511    1.854   .     S
C454   N476    1.399   .     A
C455   S512    1.838   .     S
C455   N475    1.394   .     A
C455   C710    1.463   .     S
C456   S513    1.772   .     S
Cu457  O504    1.960   .     S
Cu457  O499    1.983   .     S
Cu457  N475    2.050   .     S
Cu457  O506    1.962   .     S
Cu457  O477    1.972   .     S
Cu457  Cu458   2.728   .     S
Cu458  N476    2.050   .     S
Cu458  O503    1.983   .     S
Cu458  O507    1.962   .     S
Cu458  O488    1.972   .     S
Cu458  O505    1.960   .     S
H460   O482    0.991   .     S
H461   O485    0.991   .     S
H462   O489    0.991   .     S
H463   O492    0.989   .     S
H464   O495    0.991   .     S
H465   O498    0.991   .     S
H466   O502    0.991   .     S
H474   O479    0.991   .     S
O478   S509    1.496   .     D
O479   S509    1.673   .     S
O480   S510    1.497   .     D
O481   S510    1.502   .     D
O482   S510    1.673   .     S
O483   S511    1.503   .     D
O484   S511    1.496   .     D
O485   S511    1.675   .     S
O486   S512    1.499   .     D
O487   S512    1.502   .     D
O489   S512    1.675   .     S
O490   S513    1.503   .     D
O491   S513    1.500   .     D
O492   S513    1.671   .     S
O493   S514    1.500   .     D
O494   S514    1.501   .     D
O495   S514    1.681   .     S
O496   S515    1.500   .     D
O497   S515    1.500   .     D
O498   S515    1.679   .     S
O500   S516    1.503   .     D
O501   S516    1.498   .     D
O502   S516    1.675   .     S
O508   S509    1.502   .     D
C517   C535    1.484   .     S
C517   O563    1.315   .     A
C517   O589    1.316   .     A
C518   S600    1.789   .     S
C518   C534    1.423   .     A
C518   C606    1.407   .     S
C519   S601    1.778   .     S
C519   C534    1.419   .     A
C519   C628    1.396   .     S
C520   C535    1.402   .     A
C520   S602    1.779   .     S
C520   C690    1.407   1_455 S
C521   C532    1.404   .     A
C521   H545    1.083   .     S
C521   C525    1.390   .     A
C522   H553    1.083   .     S
C522   C533    1.404   .     A
C522   C526    1.390   .     A
C523   C527    1.390   .     A
C523   C533    1.404   .     A
C523   H554    1.082   .     S
C524   C529    1.390   .     A
C524   H555    1.083   .     S
C524   C532    1.404   .     A
C525   C530    1.402   .     A
C525   H556    1.080   .     S
C526   C531    1.401   .     A
C526   H557    1.081   .     S
C527   H558    1.080   .     S
C527   C531    1.401   .     A
C528   O574    1.319   .     A
C528   O585    1.315   .     A
C528   C534    1.488   .     S
C529   C530    1.401   .     A
C529   H559    1.079   .     S
C530   C536    1.467   .     S
C531   C537    1.464   .     S
C532   C1307   1.474   1_554 S
C533   C1306   1.474   .     S
C535   C542    1.399   .     A
C536   O593    1.313   .     A
C536   O590    1.310   .     A
C537   O592    1.311   .     A
C537   O591    1.311   .     A
C538   S595    1.850   .     S
C538   N562    1.401   .     A
C539   N561    1.392   .     A
C539   S596    1.827   .     S
C539   C24     1.463   1_565 S
C540   S597    1.854   .     S
C540   N562    1.399   .     A
C541   S598    1.838   .     S
C541   N561    1.394   .     A
C541   C22     1.463   1_565 S
C542   S599    1.772   .     S
C542   C691    1.396   1_455 S
Cu543  O590    1.960   .     S
Cu543  O585    1.983   .     S
Cu543  N561    2.050   .     S
Cu543  O592    1.962   .     S
Cu543  O563    1.972   .     S
Cu543  Cu544   2.728   .     S
Cu544  N562    2.050   .     S
Cu544  O589    1.983   .     S
Cu544  O593    1.962   .     S
Cu544  O574    1.972   .     S
Cu544  O591    1.960   .     S
H546   O568    0.991   .     S
H547   O571    0.991   .     S
H548   O575    0.991   .     S
H549   O578    0.989   .     S
H550   O581    0.991   .     S
H551   O584    0.991   .     S
H552   O588    0.991   .     S
H560   O565    0.991   .     S
O564   S595    1.496   .     D
O565   S595    1.673   .     S
O566   S596    1.497   .     D
O567   S596    1.502   .     D
O568   S596    1.673   .     S
O569   S597    1.503   .     D
O570   S597    1.496   .     D
O571   S597    1.675   .     S
O572   S598    1.499   .     D
O573   S598    1.502   .     D
O575   S598    1.675   .     S
O576   S599    1.503   .     D
O577   S599    1.500   .     D
O578   S599    1.671   .     S
O579   S600    1.500   .     D
O580   S600    1.501   .     D
O581   S600    1.681   .     S
O582   S601    1.500   .     D
O583   S601    1.500   .     D
O584   S601    1.679   .     S
O586   S602    1.503   .     D
O587   S602    1.498   .     D
O588   S602    1.675   .     S
O594   S595    1.502   .     D
C603   C621    1.484   .     S
C603   O649    1.315   .     A
C603   O675    1.316   .     A
C604   S686    1.789   .     S
C604   C620    1.423   .     A
C604   C692    1.407   .     S
C605   S687    1.778   .     S
C605   C620    1.419   .     A
C605   C714    1.396   .     S
C606   C621    1.402   .     A
C606   S688    1.779   .     S
C607   C618    1.404   .     A
C607   H631    1.083   .     S
C607   C611    1.390   .     A
C608   H639    1.083   .     S
C608   C619    1.404   .     A
C608   C612    1.390   .     A
C609   C613    1.390   .     A
C609   C619    1.404   .     A
C609   H640    1.082   .     S
C610   C615    1.390   .     A
C610   H641    1.083   .     S
C610   C618    1.404   .     A
C611   C616    1.402   .     A
C611   H642    1.080   .     S
C612   C617    1.401   .     A
C612   H643    1.081   .     S
C613   H644    1.080   .     S
C613   C617    1.401   .     A
C614   O660    1.319   .     A
C614   O671    1.315   .     A
C614   C620    1.488   .     S
C615   C616    1.401   .     A
C615   H645    1.079   .     S
C616   C622    1.467   .     S
C617   C623    1.464   .     S
C618   C1393   1.474   1_554 S
C619   C1392   1.474   .     S
C621   C628    1.399   .     A
C622   O679    1.313   .     A
C622   O676    1.310   .     A
C623   O678    1.311   .     A
C623   O677    1.311   .     A
C624   S681    1.850   .     S
C624   N648    1.401   .     A
C625   N647    1.392   .     A
C625   S682    1.827   .     S
C625   C110    1.463   1_565 S
C626   S683    1.854   .     S
C626   N648    1.399   .     A
C627   S684    1.838   .     S
C627   N647    1.394   .     A
C627   C108    1.463   1_565 S
C628   S685    1.772   .     S
Cu629  O676    1.960   .     S
Cu629  O671    1.983   .     S
Cu629  N647    2.050   .     S
Cu629  O678    1.962   .     S
Cu629  O649    1.972   .     S
Cu629  Cu630   2.728   .     S
Cu630  N648    2.050   .     S
Cu630  O675    1.983   .     S
Cu630  O679    1.962   .     S
Cu630  O660    1.972   .     S
Cu630  O677    1.960   .     S
H632   O654    0.991   .     S
H633   O657    0.991   .     S
H634   O661    0.991   .     S
H635   O664    0.989   .     S
H636   O667    0.991   .     S
H637   O670    0.991   .     S
H638   O674    0.991   .     S
H646   O651    0.991   .     S
O650   S681    1.496   .     D
O651   S681    1.673   .     S
O652   S682    1.497   .     D
O653   S682    1.502   .     D
O654   S682    1.673   .     S
O655   S683    1.503   .     D
O656   S683    1.496   .     D
O657   S683    1.675   .     S
O658   S684    1.499   .     D
O659   S684    1.502   .     D
O661   S684    1.675   .     S
O662   S685    1.503   .     D
O663   S685    1.500   .     D
O664   S685    1.671   .     S
O665   S686    1.500   .     D
O666   S686    1.501   .     D
O667   S686    1.681   .     S
O668   S687    1.500   .     D
O669   S687    1.500   .     D
O670   S687    1.679   .     S
O672   S688    1.503   .     D
O673   S688    1.498   .     D
O674   S688    1.675   .     S
O680   S681    1.502   .     D
C689   C707    1.484   .     S
C689   O735    1.315   .     A
C689   O761    1.316   .     A
C690   S772    1.789   .     S
C690   C706    1.423   .     A
C690   C520    1.407   1_655 S
C691   S773    1.778   .     S
C691   C706    1.419   .     A
C691   C542    1.396   1_655 S
C692   C707    1.402   .     A
C692   S774    1.779   .     S
C693   C704    1.404   .     A
C693   H717    1.083   .     S
C693   C697    1.390   .     A
C694   H725    1.083   .     S
C694   C705    1.404   .     A
C694   C698    1.390   .     A
C695   C699    1.390   .     A
C695   C705    1.404   .     A
C695   H726    1.082   .     S
C696   C701    1.390   .     A
C696   H727    1.083   .     S
C696   C704    1.404   .     A
C697   C702    1.402   .     A
C697   H728    1.080   .     S
C698   C703    1.401   .     A
C698   H729    1.081   .     S
C699   H730    1.080   .     S
C699   C703    1.401   .     A
C700   O746    1.319   .     A
C700   O757    1.315   .     A
C700   C706    1.488   .     S
C701   C702    1.401   .     A
C701   H731    1.079   .     S
C702   C708    1.467   .     S
C703   C709    1.464   .     S
C704   C1479   1.474   1_554 S
C705   C1478   1.474   .     S
C707   C714    1.399   .     A
C708   O765    1.313   .     A
C708   O762    1.310   .     A
C709   O764    1.311   .     A
C709   O763    1.311   .     A
C710   S767    1.850   .     S
C710   N734    1.401   .     A
C711   N733    1.392   .     A
C711   S768    1.827   .     S
C711   C196    1.463   1_565 S
C712   S769    1.854   .     S
C712   N734    1.399   .     A
C713   S770    1.838   .     S
C713   N733    1.394   .     A
C713   C194    1.463   1_565 S
C714   S771    1.772   .     S
Cu715  O762    1.960   .     S
Cu715  O757    1.983   .     S
Cu715  N733    2.050   .     S
Cu715  O764    1.962   .     S
Cu715  O735    1.972   .     S
Cu715  Cu716   2.728   .     S
Cu716  N734    2.050   .     S
Cu716  O761    1.983   .     S
Cu716  O765    1.962   .     S
Cu716  O746    1.972   .     S
Cu716  O763    1.960   .     S
H718   O740    0.991   .     S
H719   O743    0.991   .     S
H720   O747    0.991   .     S
H721   O750    0.989   .     S
H722   O753    0.991   .     S
H723   O756    0.991   .     S
H724   O760    0.991   .     S
H732   O737    0.991   .     S
O736   S767    1.496   .     D
O737   S767    1.673   .     S
O738   S768    1.497   .     D
O739   S768    1.502   .     D
O740   S768    1.673   .     S
O741   S769    1.503   .     D
O742   S769    1.496   .     D
O743   S769    1.675   .     S
O744   S770    1.499   .     D
O745   S770    1.502   .     D
O747   S770    1.675   .     S
O748   S771    1.503   .     D
O749   S771    1.500   .     D
O750   S771    1.671   .     S
O751   S772    1.500   .     D
O752   S772    1.501   .     D
O753   S772    1.681   .     S
O754   S773    1.500   .     D
O755   S773    1.500   .     D
O756   S773    1.679   .     S
O758   S774    1.503   .     D
O759   S774    1.498   .     D
O760   S774    1.675   .     S
O766   S767    1.502   .     D
C775   C793    1.484   .     S
C775   O821    1.315   .     A
C775   O847    1.316   .     A
C776   S858    1.789   .     S
C776   C792    1.423   .     A
C776   C864    1.407   .     S
C777   S859    1.778   .     S
C777   C792    1.419   .     A
C777   C886    1.396   .     S
C778   C793    1.402   .     A
C778   S860    1.779   .     S
C778   C948    1.407   1_455 S
C779   C790    1.404   .     A
C779   H803    1.083   .     S
C779   C783    1.390   .     A
C780   H811    1.083   .     S
C780   C791    1.404   .     A
C780   C784    1.390   .     A
C781   C785    1.390   .     A
C781   C791    1.404   .     A
C781   H812    1.082   .     S
C782   C787    1.390   .     A
C782   H813    1.083   .     S
C782   C790    1.404   .     A
C783   C788    1.402   .     A
C783   H814    1.080   .     S
C784   C789    1.401   .     A
C784   H815    1.081   .     S
C785   H816    1.080   .     S
C785   C789    1.401   .     A
C786   O832    1.319   .     A
C786   O843    1.315   .     A
C786   C792    1.488   .     S
C787   C788    1.401   .     A
C787   H817    1.079   .     S
C788   C794    1.467   .     S
C789   C795    1.464   .     S
C791   C16     1.474   1_556 S
C793   C800    1.399   .     A
C794   O851    1.313   .     A
C794   O848    1.310   .     A
C795   O850    1.311   .     A
C795   O849    1.311   .     A
C796   S853    1.850   .     S
C796   N820    1.401   .     A
C796   C1315   1.463   1_545 S
C797   N819    1.392   .     A
C797   S854    1.827   .     S
C797   C1056   1.463   .     S
C798   S855    1.854   .     S
C798   N820    1.399   .     A
C798   C1313   1.463   1_545 S
C799   S856    1.838   .     S
C799   N819    1.394   .     A
C799   C1054   1.463   .     S
C800   S857    1.772   .     S
C800   C949    1.396   1_455 S
Cu801  O848    1.960   .     S
Cu801  O843    1.983   .     S
Cu801  N819    2.050   .     S
Cu801  O850    1.962   .     S
Cu801  O821    1.972   .     S
Cu801  Cu802   2.728   .     S
Cu802  N820    2.050   .     S
Cu802  O847    1.983   .     S
Cu802  O851    1.962   .     S
Cu802  O832    1.972   .     S
Cu802  O849    1.960   .     S
H804   O826    0.991   .     S
H805   O829    0.991   .     S
H806   O833    0.991   .     S
H807   O836    0.989   .     S
H808   O839    0.991   .     S
H809   O842    0.991   .     S
H810   O846    0.991   .     S
H818   O823    0.991   .     S
O822   S853    1.496   .     D
O823   S853    1.673   .     S
O824   S854    1.497   .     D
O825   S854    1.502   .     D
O826   S854    1.673   .     S
O827   S855    1.503   .     D
O828   S855    1.496   .     D
O829   S855    1.675   .     S
O830   S856    1.499   .     D
O831   S856    1.502   .     D
O833   S856    1.675   .     S
O834   S857    1.503   .     D
O835   S857    1.500   .     D
O836   S857    1.671   .     S
O837   S858    1.500   .     D
O838   S858    1.501   .     D
O839   S858    1.681   .     S
O840   S859    1.500   .     D
O841   S859    1.500   .     D
O842   S859    1.679   .     S
O844   S860    1.503   .     D
O845   S860    1.498   .     D
O846   S860    1.675   .     S
O852   S853    1.502   .     D
C861   C879    1.484   .     S
C861   O907    1.315   .     A
C861   O933    1.316   .     A
C862   S944    1.789   .     S
C862   C878    1.423   .     A
C862   C950    1.407   .     S
C863   S945    1.778   .     S
C863   C878    1.419   .     A
C863   C972    1.396   .     S
C864   C879    1.402   .     A
C864   S946    1.779   .     S
C865   C876    1.404   .     A
C865   H889    1.083   .     S
C865   C869    1.390   .     A
C866   H897    1.083   .     S
C866   C877    1.404   .     A
C866   C870    1.390   .     A
C867   C871    1.390   .     A
C867   C877    1.404   .     A
C867   H898    1.082   .     S
C868   C873    1.390   .     A
C868   H899    1.083   .     S
C868   C876    1.404   .     A
C869   C874    1.402   .     A
C869   H900    1.080   .     S
C870   C875    1.401   .     A
C870   H901    1.081   .     S
C871   H902    1.080   .     S
C871   C875    1.401   .     A
C872   O918    1.319   .     A
C872   O929    1.315   .     A
C872   C878    1.488   .     S
C873   C874    1.401   .     A
C873   H903    1.079   .     S
C874   C880    1.467   .     S
C875   C881    1.464   .     S
C877   C102    1.474   1_556 S
C879   C886    1.399   .     A
C880   O937    1.313   .     A
C880   O934    1.310   .     A
C881   O936    1.311   .     A
C881   O935    1.311   .     A
C882   S939    1.850   .     S
C882   N906    1.401   .     A
C882   C1401   1.463   1_545 S
C883   N905    1.392   .     A
C883   S940    1.827   .     S
C883   C1142   1.463   .     S
C884   S941    1.854   .     S
C884   N906    1.399   .     A
C884   C1399   1.463   1_545 S
C885   S942    1.838   .     S
C885   N905    1.394   .     A
C885   C1140   1.463   .     S
C886   S943    1.772   .     S
Cu887  O934    1.960   .     S
Cu887  O929    1.983   .     S
Cu887  N905    2.050   .     S
Cu887  O936    1.962   .     S
Cu887  O907    1.972   .     S
Cu887  Cu888   2.728   .     S
Cu888  N906    2.050   .     S
Cu888  O933    1.983   .     S
Cu888  O937    1.962   .     S
Cu888  O918    1.972   .     S
Cu888  O935    1.960   .     S
H890   O912    0.991   .     S
H891   O915    0.991   .     S
H892   O919    0.991   .     S
H893   O922    0.989   .     S
H894   O925    0.991   .     S
H895   O928    0.991   .     S
H896   O932    0.991   .     S
H904   O909    0.991   .     S
O908   S939    1.496   .     D
O909   S939    1.673   .     S
O910   S940    1.497   .     D
O911   S940    1.502   .     D
O912   S940    1.673   .     S
O913   S941    1.503   .     D
O914   S941    1.496   .     D
O915   S941    1.675   .     S
O916   S942    1.499   .     D
O917   S942    1.502   .     D
O919   S942    1.675   .     S
O920   S943    1.503   .     D
O921   S943    1.500   .     D
O922   S943    1.671   .     S
O923   S944    1.500   .     D
O924   S944    1.501   .     D
O925   S944    1.681   .     S
O926   S945    1.500   .     D
O927   S945    1.500   .     D
O928   S945    1.679   .     S
O930   S946    1.503   .     D
O931   S946    1.498   .     D
O932   S946    1.675   .     S
O938   S939    1.502   .     D
C947   C965    1.484   .     S
C947   O993    1.315   .     A
C947   O1019   1.316   .     A
C948   S1030   1.789   .     S
C948   C964    1.423   .     A
C948   C778    1.407   1_655 S
C949   S1031   1.778   .     S
C949   C964    1.419   .     A
C949   C800    1.396   1_655 S
C950   C965    1.402   .     A
C950   S1032   1.779   .     S
C951   C962    1.404   .     A
C951   H975    1.083   .     S
C951   C955    1.390   .     A
C952   H983    1.083   .     S
C952   C963    1.404   .     A
C952   C956    1.390   .     A
C953   C957    1.390   .     A
C953   C963    1.404   .     A
C953   H984    1.082   .     S
C954   C959    1.390   .     A
C954   H985    1.083   .     S
C954   C962    1.404   .     A
C955   C960    1.402   .     A
C955   H986    1.080   .     S
C956   C961    1.401   .     A
C956   H987    1.081   .     S
C957   H988    1.080   .     S
C957   C961    1.401   .     A
C958   O1004   1.319   .     A
C958   O1015   1.315   .     A
C958   C964    1.488   .     S
C959   C960    1.401   .     A
C959   H989    1.079   .     S
C960   C966    1.467   .     S
C961   C967    1.464   .     S
C963   C188    1.474   1_556 S
C965   C972    1.399   .     A
C966   O1023   1.313   .     A
C966   O1020   1.310   .     A
C967   O1022   1.311   .     A
C967   O1021   1.311   .     A
C968   S1025   1.850   .     S
C968   N992    1.401   .     A
C968   C1487   1.463   1_545 S
C969   N991    1.392   .     A
C969   S1026   1.827   .     S
C969   C1228   1.463   .     S
C970   S1027   1.854   .     S
C970   N992    1.399   .     A
C970   C1485   1.463   1_545 S
C971   S1028   1.838   .     S
C971   N991    1.394   .     A
C971   C1226   1.463   .     S
C972   S1029   1.772   .     S
Cu973  O1020   1.960   .     S
Cu973  O1015   1.983   .     S
Cu973  N991    2.050   .     S
Cu973  O1022   1.962   .     S
Cu973  O993    1.972   .     S
Cu973  Cu974   2.728   .     S
Cu974  N992    2.050   .     S
Cu974  O1019   1.983   .     S
Cu974  O1023   1.962   .     S
Cu974  O1004   1.972   .     S
Cu974  O1021   1.960   .     S
H976   O998    0.991   .     S
H977   O1001   0.991   .     S
H978   O1005   0.991   .     S
H979   O1008   0.989   .     S
H980   O1011   0.991   .     S
H981   O1014   0.991   .     S
H982   O1018   0.991   .     S
H990   O995    0.991   .     S
O994   S1025   1.496   .     D
O995   S1025   1.673   .     S
O996   S1026   1.497   .     D
O997   S1026   1.502   .     D
O998   S1026   1.673   .     S
O999   S1027   1.503   .     D
O1000  S1027   1.496   .     D
O1001  S1027   1.675   .     S
O1002  S1028   1.499   .     D
O1003  S1028   1.502   .     D
O1005  S1028   1.675   .     S
O1006  S1029   1.503   .     D
O1007  S1029   1.500   .     D
O1008  S1029   1.671   .     S
O1009  S1030   1.500   .     D
O1010  S1030   1.501   .     D
O1011  S1030   1.681   .     S
O1012  S1031   1.500   .     D
O1013  S1031   1.500   .     D
O1014  S1031   1.679   .     S
O1016  S1032   1.503   .     D
O1017  S1032   1.498   .     D
O1018  S1032   1.675   .     S
O1024  S1025   1.502   .     D
C1033  C1051   1.484   .     S
C1033  O1079   1.315   .     A
C1033  O1105   1.316   .     A
C1034  S1116   1.789   .     S
C1034  C1050   1.423   .     A
C1034  C1122   1.407   .     S
C1035  S1117   1.778   .     S
C1035  C1050   1.419   .     A
C1035  C1144   1.396   .     S
C1036  C1051   1.402   .     A
C1036  S1118   1.779   .     S
C1036  C1206   1.407   1_455 S
C1037  C1048   1.404   .     A
C1037  H1061   1.083   .     S
C1037  C1041   1.390   .     A
C1038  H1069   1.083   .     S
C1038  C1049   1.404   .     A
C1038  C1042   1.390   .     A
C1039  C1043   1.390   .     A
C1039  C1049   1.404   .     A
C1039  H1070   1.082   .     S
C1040  C1045   1.390   .     A
C1040  H1071   1.083   .     S
C1040  C1048   1.404   .     A
C1041  C1046   1.402   .     A
C1041  H1072   1.080   .     S
C1042  C1047   1.401   .     A
C1042  H1073   1.081   .     S
C1043  H1074   1.080   .     S
C1043  C1047   1.401   .     A
C1044  O1090   1.319   .     A
C1044  O1101   1.315   .     A
C1044  C1050   1.488   .     S
C1045  C1046   1.401   .     A
C1045  H1075   1.079   .     S
C1046  C1052   1.467   .     S
C1047  C1053   1.464   .     S
C1049  C274    1.474   1_556 S
C1051  C1058   1.399   .     A
C1052  O1109   1.313   .     A
C1052  O1106   1.310   .     A
C1053  O1108   1.311   .     A
C1053  O1107   1.311   .     A
C1054  S1111   1.850   .     S
C1054  N1078   1.401   .     A
C1055  N1077   1.392   .     A
C1055  S1112   1.827   .     S
C1055  C1314   1.463   .     S
C1056  S1113   1.854   .     S
C1056  N1078   1.399   .     A
C1057  S1114   1.838   .     S
C1057  N1077   1.394   .     A
C1057  C1312   1.463   .     S
C1058  S1115   1.772   .     S
C1058  C1207   1.396   1_455 S
Cu1059 O1106   1.960   .     S
Cu1059 O1101   1.983   .     S
Cu1059 N1077   2.050   .     S
Cu1059 O1108   1.962   .     S
Cu1059 O1079   1.972   .     S
Cu1059 Cu1060  2.728   .     S
Cu1060 N1078   2.050   .     S
Cu1060 O1105   1.983   .     S
Cu1060 O1109   1.962   .     S
Cu1060 O1090   1.972   .     S
Cu1060 O1107   1.960   .     S
H1062  O1084   0.991   .     S
H1063  O1087   0.991   .     S
H1064  O1091   0.991   .     S
H1065  O1094   0.989   .     S
H1066  O1097   0.991   .     S
H1067  O1100   0.991   .     S
H1068  O1104   0.991   .     S
H1076  O1081   0.991   .     S
O1080  S1111   1.496   .     D
O1081  S1111   1.673   .     S
O1082  S1112   1.497   .     D
O1083  S1112   1.502   .     D
O1084  S1112   1.673   .     S
O1085  S1113   1.503   .     D
O1086  S1113   1.496   .     D
O1087  S1113   1.675   .     S
O1088  S1114   1.499   .     D
O1089  S1114   1.502   .     D
O1091  S1114   1.675   .     S
O1092  S1115   1.503   .     D
O1093  S1115   1.500   .     D
O1094  S1115   1.671   .     S
O1095  S1116   1.500   .     D
O1096  S1116   1.501   .     D
O1097  S1116   1.681   .     S
O1098  S1117   1.500   .     D
O1099  S1117   1.500   .     D
O1100  S1117   1.679   .     S
O1102  S1118   1.503   .     D
O1103  S1118   1.498   .     D
O1104  S1118   1.675   .     S
O1110  S1111   1.502   .     D
C1119  C1137   1.484   .     S
C1119  O1165   1.315   .     A
C1119  O1191   1.316   .     A
C1120  S1202   1.789   .     S
C1120  C1136   1.423   .     A
C1120  C1208   1.407   .     S
C1121  S1203   1.778   .     S
C1121  C1136   1.419   .     A
C1121  C1230   1.396   .     S
C1122  C1137   1.402   .     A
C1122  S1204   1.779   .     S
C1123  C1134   1.404   .     A
C1123  H1147   1.083   .     S
C1123  C1127   1.390   .     A
C1124  H1155   1.083   .     S
C1124  C1135   1.404   .     A
C1124  C1128   1.390   .     A
C1125  C1129   1.390   .     A
C1125  C1135   1.404   .     A
C1125  H1156   1.082   .     S
C1126  C1131   1.390   .     A
C1126  H1157   1.083   .     S
C1126  C1134   1.404   .     A
C1127  C1132   1.402   .     A
C1127  H1158   1.080   .     S
C1128  C1133   1.401   .     A
C1128  H1159   1.081   .     S
C1129  H1160   1.080   .     S
C1129  C1133   1.401   .     A
C1130  O1176   1.319   .     A
C1130  O1187   1.315   .     A
C1130  C1136   1.488   .     S
C1131  C1132   1.401   .     A
C1131  H1161   1.079   .     S
C1132  C1138   1.467   .     S
C1133  C1139   1.464   .     S
C1135  C360    1.474   1_556 S
C1137  C1144   1.399   .     A
C1138  O1195   1.313   .     A
C1138  O1192   1.310   .     A
C1139  O1194   1.311   .     A
C1139  O1193   1.311   .     A
C1140  S1197   1.850   .     S
C1140  N1164   1.401   .     A
C1141  N1163   1.392   .     A
C1141  S1198   1.827   .     S
C1141  C1400   1.463   .     S
C1142  S1199   1.854   .     S
C1142  N1164   1.399   .     A
C1143  S1200   1.838   .     S
C1143  N1163   1.394   .     A
C1143  C1398   1.463   .     S
C1144  S1201   1.772   .     S
Cu1145 O1192   1.960   .     S
Cu1145 O1187   1.983   .     S
Cu1145 N1163   2.050   .     S
Cu1145 O1194   1.962   .     S
Cu1145 O1165   1.972   .     S
Cu1145 Cu1146  2.728   .     S
Cu1146 N1164   2.050   .     S
Cu1146 O1191   1.983   .     S
Cu1146 O1195   1.962   .     S
Cu1146 O1176   1.972   .     S
Cu1146 O1193   1.960   .     S
H1148  O1170   0.991   .     S
H1149  O1173   0.991   .     S
H1150  O1177   0.991   .     S
H1151  O1180   0.989   .     S
H1152  O1183   0.991   .     S
H1153  O1186   0.991   .     S
H1154  O1190   0.991   .     S
H1162  O1167   0.991   .     S
O1166  S1197   1.496   .     D
O1167  S1197   1.673   .     S
O1168  S1198   1.497   .     D
O1169  S1198   1.502   .     D
O1170  S1198   1.673   .     S
O1171  S1199   1.503   .     D
O1172  S1199   1.496   .     D
O1173  S1199   1.675   .     S
O1174  S1200   1.499   .     D
O1175  S1200   1.502   .     D
O1177  S1200   1.675   .     S
O1178  S1201   1.503   .     D
O1179  S1201   1.500   .     D
O1180  S1201   1.671   .     S
O1181  S1202   1.500   .     D
O1182  S1202   1.501   .     D
O1183  S1202   1.681   .     S
O1184  S1203   1.500   .     D
O1185  S1203   1.500   .     D
O1186  S1203   1.679   .     S
O1188  S1204   1.503   .     D
O1189  S1204   1.498   .     D
O1190  S1204   1.675   .     S
O1196  S1197   1.502   .     D
C1205  C1223   1.484   .     S
C1205  O1251   1.315   .     A
C1205  O1277   1.316   .     A
C1206  S1288   1.789   .     S
C1206  C1222   1.423   .     A
C1206  C1036   1.407   1_655 S
C1207  S1289   1.778   .     S
C1207  C1222   1.419   .     A
C1207  C1058   1.396   1_655 S
C1208  C1223   1.402   .     A
C1208  S1290   1.779   .     S
C1209  C1220   1.404   .     A
C1209  H1233   1.083   .     S
C1209  C1213   1.390   .     A
C1210  H1241   1.083   .     S
C1210  C1221   1.404   .     A
C1210  C1214   1.390   .     A
C1211  C1215   1.390   .     A
C1211  C1221   1.404   .     A
C1211  H1242   1.082   .     S
C1212  C1217   1.390   .     A
C1212  H1243   1.083   .     S
C1212  C1220   1.404   .     A
C1213  C1218   1.402   .     A
C1213  H1244   1.080   .     S
C1214  C1219   1.401   .     A
C1214  H1245   1.081   .     S
C1215  H1246   1.080   .     S
C1215  C1219   1.401   .     A
C1216  O1262   1.319   .     A
C1216  O1273   1.315   .     A
C1216  C1222   1.488   .     S
C1217  C1218   1.401   .     A
C1217  H1247   1.079   .     S
C1218  C1224   1.467   .     S
C1219  C1225   1.464   .     S
C1221  C446    1.474   1_556 S
C1223  C1230   1.399   .     A
C1224  O1281   1.313   .     A
C1224  O1278   1.310   .     A
C1225  O1280   1.311   .     A
C1225  O1279   1.311   .     A
C1226  S1283   1.850   .     S
C1226  N1250   1.401   .     A
C1227  N1249   1.392   .     A
C1227  S1284   1.827   .     S
C1227  C1486   1.463   .     S
C1228  S1285   1.854   .     S
C1228  N1250   1.399   .     A
C1229  S1286   1.838   .     S
C1229  N1249   1.394   .     A
C1229  C1484   1.463   .     S
C1230  S1287   1.772   .     S
Cu1231 O1278   1.960   .     S
Cu1231 O1273   1.983   .     S
Cu1231 N1249   2.050   .     S
Cu1231 O1280   1.962   .     S
Cu1231 O1251   1.972   .     S
Cu1231 Cu1232  2.728   .     S
Cu1232 N1250   2.050   .     S
Cu1232 O1277   1.983   .     S
Cu1232 O1281   1.962   .     S
Cu1232 O1262   1.972   .     S
Cu1232 O1279   1.960   .     S
H1234  O1256   0.991   .     S
H1235  O1259   0.991   .     S
H1236  O1263   0.991   .     S
H1237  O1266   0.989   .     S
H1238  O1269   0.991   .     S
H1239  O1272   0.991   .     S
H1240  O1276   0.991   .     S
H1248  O1253   0.991   .     S
O1252  S1283   1.496   .     D
O1253  S1283   1.673   .     S
O1254  S1284   1.497   .     D
O1255  S1284   1.502   .     D
O1256  S1284   1.673   .     S
O1257  S1285   1.503   .     D
O1258  S1285   1.496   .     D
O1259  S1285   1.675   .     S
O1260  S1286   1.499   .     D
O1261  S1286   1.502   .     D
O1263  S1286   1.675   .     S
O1264  S1287   1.503   .     D
O1265  S1287   1.500   .     D
O1266  S1287   1.671   .     S
O1267  S1288   1.500   .     D
O1268  S1288   1.501   .     D
O1269  S1288   1.681   .     S
O1270  S1289   1.500   .     D
O1271  S1289   1.500   .     D
O1272  S1289   1.679   .     S
O1274  S1290   1.503   .     D
O1275  S1290   1.498   .     D
O1276  S1290   1.675   .     S
O1282  S1283   1.502   .     D
C1291  C1309   1.484   .     S
C1291  O1337   1.315   .     A
C1291  O1363   1.316   .     A
C1292  S1374   1.789   .     S
C1292  C1308   1.423   .     A
C1292  C1380   1.407   .     S
C1293  S1375   1.778   .     S
C1293  C1308   1.419   .     A
C1293  C1402   1.396   .     S
C1294  C1309   1.402   .     A
C1294  S1376   1.779   .     S
C1294  C1464   1.407   1_455 S
C1295  C1306   1.404   .     A
C1295  H1319   1.083   .     S
C1295  C1299   1.390   .     A
C1296  H1327   1.083   .     S
C1296  C1307   1.404   .     A
C1296  C1300   1.390   .     A
C1297  C1301   1.390   .     A
C1297  C1307   1.404   .     A
C1297  H1328   1.082   .     S
C1298  C1303   1.390   .     A
C1298  H1329   1.083   .     S
C1298  C1306   1.404   .     A
C1299  C1304   1.402   .     A
C1299  H1330   1.080   .     S
C1300  C1305   1.401   .     A
C1300  H1331   1.081   .     S
C1301  H1332   1.080   .     S
C1301  C1305   1.401   .     A
C1302  O1348   1.319   .     A
C1302  O1359   1.315   .     A
C1302  C1308   1.488   .     S
C1303  C1304   1.401   .     A
C1303  H1333   1.079   .     S
C1304  C1310   1.467   .     S
C1305  C1311   1.464   .     S
C1307  C532    1.474   1_556 S
C1309  C1316   1.399   .     A
C1310  O1367   1.313   .     A
C1310  O1364   1.310   .     A
C1311  O1366   1.311   .     A
C1311  O1365   1.311   .     A
C1312  S1369   1.850   .     S
C1312  N1336   1.401   .     A
C1313  N1335   1.392   .     A
C1313  S1370   1.827   .     S
C1313  C798    1.463   1_565 S
C1314  S1371   1.854   .     S
C1314  N1336   1.399   .     A
C1315  S1372   1.838   .     S
C1315  N1335   1.394   .     A
C1315  C796    1.463   1_565 S
C1316  S1373   1.772   .     S
C1316  C1465   1.396   1_455 S
Cu1317 O1364   1.960   .     S
Cu1317 O1359   1.983   .     S
Cu1317 N1335   2.050   .     S
Cu1317 O1366   1.962   .     S
Cu1317 O1337   1.972   .     S
Cu1317 Cu1318  2.728   .     S
Cu1318 N1336   2.050   .     S
Cu1318 O1363   1.983   .     S
Cu1318 O1367   1.962   .     S
Cu1318 O1348   1.972   .     S
Cu1318 O1365   1.960   .     S
H1320  O1342   0.991   .     S
H1321  O1345   0.991   .     S
H1322  O1349   0.991   .     S
H1323  O1352   0.989   .     S
H1324  O1355   0.991   .     S
H1325  O1358   0.991   .     S
H1326  O1362   0.991   .     S
H1334  O1339   0.991   .     S
O1338  S1369   1.496   .     D
O1339  S1369   1.673   .     S
O1340  S1370   1.497   .     D
O1341  S1370   1.502   .     D
O1342  S1370   1.673   .     S
O1343  S1371   1.503   .     D
O1344  S1371   1.496   .     D
O1345  S1371   1.675   .     S
O1346  S1372   1.499   .     D
O1347  S1372   1.502   .     D
O1349  S1372   1.675   .     S
O1350  S1373   1.503   .     D
O1351  S1373   1.500   .     D
O1352  S1373   1.671   .     S
O1353  S1374   1.500   .     D
O1354  S1374   1.501   .     D
O1355  S1374   1.681   .     S
O1356  S1375   1.500   .     D
O1357  S1375   1.500   .     D
O1358  S1375   1.679   .     S
O1360  S1376   1.503   .     D
O1361  S1376   1.498   .     D
O1362  S1376   1.675   .     S
O1368  S1369   1.502   .     D
C1377  C1395   1.484   .     S
C1377  O1423   1.315   .     A
C1377  O1449   1.316   .     A
C1378  S1460   1.789   .     S
C1378  C1394   1.423   .     A
C1378  C1466   1.407   .     S
C1379  S1461   1.778   .     S
C1379  C1394   1.419   .     A
C1379  C1488   1.396   .     S
C1380  C1395   1.402   .     A
C1380  S1462   1.779   .     S
C1381  C1392   1.404   .     A
C1381  H1405   1.083   .     S
C1381  C1385   1.390   .     A
C1382  H1413   1.083   .     S
C1382  C1393   1.404   .     A
C1382  C1386   1.390   .     A
C1383  C1387   1.390   .     A
C1383  C1393   1.404   .     A
C1383  H1414   1.082   .     S
C1384  C1389   1.390   .     A
C1384  H1415   1.083   .     S
C1384  C1392   1.404   .     A
C1385  C1390   1.402   .     A
C1385  H1416   1.080   .     S
C1386  C1391   1.401   .     A
C1386  H1417   1.081   .     S
C1387  H1418   1.080   .     S
C1387  C1391   1.401   .     A
C1388  O1434   1.319   .     A
C1388  O1445   1.315   .     A
C1388  C1394   1.488   .     S
C1389  C1390   1.401   .     A
C1389  H1419   1.079   .     S
C1390  C1396   1.467   .     S
C1391  C1397   1.464   .     S
C1393  C618    1.474   1_556 S
C1395  C1402   1.399   .     A
C1396  O1453   1.313   .     A
C1396  O1450   1.310   .     A
C1397  O1452   1.311   .     A
C1397  O1451   1.311   .     A
C1398  S1455   1.850   .     S
C1398  N1422   1.401   .     A
C1399  N1421   1.392   .     A
C1399  S1456   1.827   .     S
C1399  C884    1.463   1_565 S
C1400  S1457   1.854   .     S
C1400  N1422   1.399   .     A
C1401  S1458   1.838   .     S
C1401  N1421   1.394   .     A
C1401  C882    1.463   1_565 S
C1402  S1459   1.772   .     S
Cu1403 O1450   1.960   .     S
Cu1403 O1445   1.983   .     S
Cu1403 N1421   2.050   .     S
Cu1403 O1452   1.962   .     S
Cu1403 O1423   1.972   .     S
Cu1403 Cu1404  2.728   .     S
Cu1404 N1422   2.050   .     S
Cu1404 O1449   1.983   .     S
Cu1404 O1453   1.962   .     S
Cu1404 O1434   1.972   .     S
Cu1404 O1451   1.960   .     S
H1406  O1428   0.991   .     S
H1407  O1431   0.991   .     S
H1408  O1435   0.991   .     S
H1409  O1438   0.989   .     S
H1410  O1441   0.991   .     S
H1411  O1444   0.991   .     S
H1412  O1448   0.991   .     S
H1420  O1425   0.991   .     S
O1424  S1455   1.496   .     D
O1425  S1455   1.673   .     S
O1426  S1456   1.497   .     D
O1427  S1456   1.502   .     D
O1428  S1456   1.673   .     S
O1429  S1457   1.503   .     D
O1430  S1457   1.496   .     D
O1431  S1457   1.675   .     S
O1432  S1458   1.499   .     D
O1433  S1458   1.502   .     D
O1435  S1458   1.675   .     S
O1436  S1459   1.503   .     D
O1437  S1459   1.500   .     D
O1438  S1459   1.671   .     S
O1439  S1460   1.500   .     D
O1440  S1460   1.501   .     D
O1441  S1460   1.681   .     S
O1442  S1461   1.500   .     D
O1443  S1461   1.500   .     D
O1444  S1461   1.679   .     S
O1446  S1462   1.503   .     D
O1447  S1462   1.498   .     D
O1448  S1462   1.675   .     S
O1454  S1455   1.502   .     D
C1463  C1481   1.484   .     S
C1463  O1509   1.315   .     A
C1463  O1535   1.316   .     A
C1464  S1546   1.789   .     S
C1464  C1480   1.423   .     A
C1464  C1294   1.407   1_655 S
C1465  S1547   1.778   .     S
C1465  C1480   1.419   .     A
C1465  C1316   1.396   1_655 S
C1466  C1481   1.402   .     A
C1466  S1548   1.779   .     S
C1467  C1478   1.404   .     A
C1467  H1491   1.083   .     S
C1467  C1471   1.390   .     A
C1468  H1499   1.083   .     S
C1468  C1479   1.404   .     A
C1468  C1472   1.390   .     A
C1469  C1473   1.390   .     A
C1469  C1479   1.404   .     A
C1469  H1500   1.082   .     S
C1470  C1475   1.390   .     A
C1470  H1501   1.083   .     S
C1470  C1478   1.404   .     A
C1471  C1476   1.402   .     A
C1471  H1502   1.080   .     S
C1472  C1477   1.401   .     A
C1472  H1503   1.081   .     S
C1473  H1504   1.080   .     S
C1473  C1477   1.401   .     A
C1474  O1520   1.319   .     A
C1474  O1531   1.315   .     A
C1474  C1480   1.488   .     S
C1475  C1476   1.401   .     A
C1475  H1505   1.079   .     S
C1476  C1482   1.467   .     S
C1477  C1483   1.464   .     S
C1479  C704    1.474   1_556 S
C1481  C1488   1.399   .     A
C1482  O1539   1.313   .     A
C1482  O1536   1.310   .     A
C1483  O1538   1.311   .     A
C1483  O1537   1.311   .     A
C1484  S1541   1.850   .     S
C1484  N1508   1.401   .     A
C1485  N1507   1.392   .     A
C1485  S1542   1.827   .     S
C1485  C970    1.463   1_565 S
C1486  S1543   1.854   .     S
C1486  N1508   1.399   .     A
C1487  S1544   1.838   .     S
C1487  N1507   1.394   .     A
C1487  C968    1.463   1_565 S
C1488  S1545   1.772   .     S
Cu1489 O1536   1.960   .     S
Cu1489 O1531   1.983   .     S
Cu1489 N1507   2.050   .     S
Cu1489 O1538   1.962   .     S
Cu1489 O1509   1.972   .     S
Cu1489 Cu1490  2.728   .     S
Cu1490 N1508   2.050   .     S
Cu1490 O1535   1.983   .     S
Cu1490 O1539   1.962   .     S
Cu1490 O1520   1.972   .     S
Cu1490 O1537   1.960   .     S
H1492  O1514   0.991   .     S
H1493  O1517   0.991   .     S
H1494  O1521   0.991   .     S
H1495  O1524   0.989   .     S
H1496  O1527   0.991   .     S
H1497  O1530   0.991   .     S
H1498  O1534   0.991   .     S
H1506  O1511   0.991   .     S
O1510  S1541   1.496   .     D
O1511  S1541   1.673   .     S
O1512  S1542   1.497   .     D
O1513  S1542   1.502   .     D
O1514  S1542   1.673   .     S
O1515  S1543   1.503   .     D
O1516  S1543   1.496   .     D
O1517  S1543   1.675   .     S
O1518  S1544   1.499   .     D
O1519  S1544   1.502   .     D
O1521  S1544   1.675   .     S
O1522  S1545   1.503   .     D
O1523  S1545   1.500   .     D
O1524  S1545   1.671   .     S
O1525  S1546   1.500   .     D
O1526  S1546   1.501   .     D
O1527  S1546   1.681   .     S
O1528  S1547   1.500   .     D
O1529  S1547   1.500   .     D
O1530  S1547   1.679   .     S
O1532  S1548   1.503   .     D
O1533  S1548   1.498   .     D
O1534  S1548   1.675   .     S
O1540  S1541   1.502   .     D
