data_str_m3_o1_o17_pcu_sym.5
_audit_creation_date              2020-01-03
_audit_creation_method            'Materials Studio'
_symmetry_space_group_name_H-M    'P1'
_symmetry_Int_Tables_number       1
_symmetry_cell_setting            triclinic
loop_
_symmetry_equiv_pos_as_xyz
  x,y,z
_cell_length_a                    32.4248
_cell_length_b                    29.3978
_cell_length_c                    30.0182
_cell_angle_alpha                 90.0082
_cell_angle_beta                  90.0044
_cell_angle_gamma                 89.8871
loop_
_atom_site_label
_atom_site_type_symbol
_atom_site_fract_x
_atom_site_fract_y
_atom_site_fract_z
_atom_site_U_iso_or_equiv
_atom_site_adp_type
_atom_site_occupancy
C1     C     0.08644   0.16673   0.24984   0.00000  Uiso   1.00
C2     C     0.04205   0.16685   0.24952   0.00000  Uiso   1.00
C3     C     0.17528   0.02398   0.28804   0.00000  Uiso   1.00
C4     C     0.15808   0.30935   0.21195   0.00000  Uiso   1.00
C5     C     0.15817   0.02400   0.21194   0.00000  Uiso   1.00
C6     C     0.17541   0.30932   0.28801   0.00000  Uiso   1.00
C7     C     0.16669   0.16666   0.16323   0.00000  Uiso   1.00
C8     C     0.16674   0.16667   0.33677   0.00000  Uiso   1.00
C9     C     0.16694   0.20811   0.40760   0.00000  Uiso   1.00
C10    C     0.16742   0.12522   0.09240   0.00000  Uiso   1.00
C11    C     0.16709   0.16667   0.38471   0.00000  Uiso   1.00
C12    C     0.24667   0.16664   0.24996   0.00000  Uiso   1.00
C13    C     0.16700   0.16666   0.11529   0.00000  Uiso   1.00
C14    C     0.16762   0.12523   0.40759   0.00000  Uiso   1.00
C15    C     0.16698   0.20811   0.09241   0.00000  Uiso   1.00
C16    C     0.16783   0.12491   0.45365   0.00000  Uiso   1.00
C17    C     0.16722   0.20843   0.04635   0.00000  Uiso   1.00
C18    C     0.16757   0.16667   0.47683   0.00000  Uiso   1.00
C19    C     0.16754   0.16667   0.02317   0.00000  Uiso   1.00
C20    C     0.16721   0.20843   0.45367   0.00000  Uiso   1.00
C21    C     0.16771   0.12491   0.04633   0.00000  Uiso   1.00
C22    C     0.16816   0.08359   0.47684   0.00000  Uiso   1.00
C23    C     0.16808   0.08359   0.02312   0.00000  Uiso   1.00
C24    C     0.16703   0.24974   0.02316   0.00000  Uiso   1.00
C25    C     0.16700   0.24975   0.47688   0.00000  Uiso   1.00
C26    C     0.02017   0.12505   0.25029   0.00000  Uiso   1.00
C27    C     0.31208   0.20627   0.23689   0.00000  Uiso   1.00
C28    C     0.31244   0.12712   0.26216   0.00000  Uiso   1.00
C29    C     0.01991   0.20863   0.24851   0.00000  Uiso   1.00
C30    C     0.29066   0.16666   0.24970   0.00000  Uiso   1.00
H31    H     0.16654   0.24014   0.38968   0.00000  Uiso   1.00
H32    H     0.24469   0.24978   0.14888   0.00000  Uiso   1.00
H33    H     0.24834   0.08224   0.35238   0.00000  Uiso   1.00
H34    H     0.08370   0.28423   0.31671   0.00000  Uiso   1.00
H35    H     0.18235   0.04205   0.31842   0.00000  Uiso   1.00
H36    H     0.15101   0.29127   0.18157   0.00000  Uiso   1.00
H37    H     0.15137   0.04209   0.18149   0.00000  Uiso   1.00
H38    H     0.18258   0.29121   0.31836   0.00000  Uiso   1.00
H39    H     0.16750   0.09319   0.11032   0.00000  Uiso   1.00
H40    H     0.16838   0.05141   0.45921   0.00000  Uiso   1.00
H41    H     0.16681   0.28193   0.04079   0.00000  Uiso   1.00
H42    H     0.16824   0.05140   0.04074   0.00000  Uiso   1.00
H43    H     0.16676   0.28193   0.45926   0.00000  Uiso   1.00
H44    H     0.16780   0.09320   0.38965   0.00000  Uiso   1.00
H45    H     0.16672   0.24013   0.11034   0.00000  Uiso   1.00
H46    H     0.07380   0.05125   0.17112   0.00000  Uiso   1.00
N47    N     0.16667   0.28573   0.25000   0.00000  Uiso   1.00
N48    N     0.16667   0.04760   0.25000   0.00000  Uiso   1.00
O49    O     0.10559   0.20487   0.24999   0.00000  Uiso   1.00
O50    O     0.00472   0.04169   0.21590   0.00000  Uiso   1.00
O51    O     0.06932   0.08166   0.18450   0.00000  Uiso   1.00
O52    O     0.26772   0.28359   0.22766   0.00000  Uiso   1.00
O53    O     0.32467   0.27188   0.17527   0.00000  Uiso   1.00
O54    O     0.25847   0.22414   0.16431   0.00000  Uiso   1.00
O55    O     0.26908   0.04937   0.27076   0.00000  Uiso   1.00
O56    O     0.32615   0.06111   0.32294   0.00000  Uiso   1.00
O57    O     0.25936   0.10802   0.33482   0.00000  Uiso   1.00
O58    O     0.06389   0.28401   0.23051   0.00000  Uiso   1.00
O59    O     0.00475   0.29325   0.28044   0.00000  Uiso   1.00
O60    O     0.22774   0.12846   0.25000   0.00000  Uiso   1.00
O61    O     0.06987   0.25457   0.31217   0.00000  Uiso   1.00
O62    O     0.22774   0.20487   0.25000   0.00000  Uiso   1.00
O63    O     0.10559   0.12846   0.24999   0.00000  Uiso   1.00
O64    O     0.16666   0.20489   0.18392   0.00000  Uiso   1.00
O65    O     0.16667   0.12844   0.31607   0.00000  Uiso   1.00
O66    O     0.16667   0.20489   0.31607   0.00000  Uiso   1.00
O67    O     0.16666   0.12844   0.18392   0.00000  Uiso   1.00
O68    O     0.06471   0.04887   0.26498   0.00000  Uiso   1.00
S69    S     0.03965   0.07219   0.22954   0.00000  Uiso   1.00
S70    S     0.29086   0.24869   0.20085   0.00000  Uiso   1.00
S71    S     0.29188   0.08420   0.29785   0.00000  Uiso   1.00
S72    S     0.03950   0.26215   0.26729   0.00000  Uiso   1.00
Zn73   Zn    0.16667   0.21771   0.25000   0.00000  Uiso   1.00
Zn74   Zn    0.16667   0.11563   0.25000   0.00000  Uiso   1.00
C75    C     0.41977   0.16673   0.24984   0.00000  Uiso   1.00
C76    C     0.37538   0.16685   0.24952   0.00000  Uiso   1.00
C77    C     0.50861   0.02398   0.28804   0.00000  Uiso   1.00
C78    C     0.49142   0.30935   0.21195   0.00000  Uiso   1.00
C79    C     0.49150   0.02400   0.21194   0.00000  Uiso   1.00
C80    C     0.50874   0.30932   0.28801   0.00000  Uiso   1.00
C81    C     0.50002   0.16666   0.16323   0.00000  Uiso   1.00
C82    C     0.50007   0.16667   0.33677   0.00000  Uiso   1.00
C83    C     0.50027   0.20811   0.40760   0.00000  Uiso   1.00
C84    C     0.50076   0.12522   0.09240   0.00000  Uiso   1.00
C85    C     0.50042   0.16667   0.38471   0.00000  Uiso   1.00
C86    C     0.58000   0.16664   0.24996   0.00000  Uiso   1.00
C87    C     0.50034   0.16666   0.11529   0.00000  Uiso   1.00
C88    C     0.50095   0.12523   0.40759   0.00000  Uiso   1.00
C89    C     0.50032   0.20811   0.09241   0.00000  Uiso   1.00
C90    C     0.50116   0.12491   0.45365   0.00000  Uiso   1.00
C91    C     0.50055   0.20843   0.04635   0.00000  Uiso   1.00
C92    C     0.50090   0.16667   0.47683   0.00000  Uiso   1.00
C93    C     0.50088   0.16667   0.02317   0.00000  Uiso   1.00
C94    C     0.50054   0.20843   0.45367   0.00000  Uiso   1.00
C95    C     0.50105   0.12491   0.04633   0.00000  Uiso   1.00
C96    C     0.50149   0.08359   0.47684   0.00000  Uiso   1.00
C97    C     0.50141   0.08359   0.02312   0.00000  Uiso   1.00
C98    C     0.50037   0.24974   0.02316   0.00000  Uiso   1.00
C99    C     0.50034   0.24975   0.47688   0.00000  Uiso   1.00
C100   C     0.35350   0.12505   0.25029   0.00000  Uiso   1.00
C101   C     0.64541   0.20627   0.23689   0.00000  Uiso   1.00
C102   C     0.64578   0.12712   0.26216   0.00000  Uiso   1.00
C103   C     0.35324   0.20863   0.24851   0.00000  Uiso   1.00
C104   C     0.62400   0.16666   0.24970   0.00000  Uiso   1.00
H105   H     0.49988   0.24014   0.38968   0.00000  Uiso   1.00
H106   H     0.57802   0.24978   0.14888   0.00000  Uiso   1.00
H107   H     0.58168   0.08224   0.35238   0.00000  Uiso   1.00
H108   H     0.41704   0.28423   0.31671   0.00000  Uiso   1.00
H109   H     0.51568   0.04205   0.31842   0.00000  Uiso   1.00
H110   H     0.48434   0.29127   0.18157   0.00000  Uiso   1.00
H111   H     0.48470   0.04209   0.18149   0.00000  Uiso   1.00
H112   H     0.51592   0.29121   0.31836   0.00000  Uiso   1.00
H113   H     0.50083   0.09319   0.11032   0.00000  Uiso   1.00
H114   H     0.50172   0.05141   0.45921   0.00000  Uiso   1.00
H115   H     0.50015   0.28193   0.04079   0.00000  Uiso   1.00
H116   H     0.50158   0.05140   0.04074   0.00000  Uiso   1.00
H117   H     0.50009   0.28193   0.45926   0.00000  Uiso   1.00
H118   H     0.50113   0.09320   0.38965   0.00000  Uiso   1.00
H119   H     0.50005   0.24013   0.11034   0.00000  Uiso   1.00
H120   H     0.40713   0.05125   0.17112   0.00000  Uiso   1.00
N121   N     0.50000   0.28573   0.25000   0.00000  Uiso   1.00
N122   N     0.50000   0.04760   0.25000   0.00000  Uiso   1.00
O123   O     0.43892   0.20487   0.24999   0.00000  Uiso   1.00
O124   O     0.33805   0.04169   0.21590   0.00000  Uiso   1.00
O125   O     0.40266   0.08166   0.18450   0.00000  Uiso   1.00
O126   O     0.60105   0.28359   0.22766   0.00000  Uiso   1.00
O127   O     0.65800   0.27188   0.17527   0.00000  Uiso   1.00
O128   O     0.59180   0.22414   0.16431   0.00000  Uiso   1.00
O129   O     0.60241   0.04937   0.27076   0.00000  Uiso   1.00
O130   O     0.65948   0.06111   0.32294   0.00000  Uiso   1.00
O131   O     0.59270   0.10802   0.33482   0.00000  Uiso   1.00
O132   O     0.39722   0.28401   0.23051   0.00000  Uiso   1.00
O133   O     0.33808   0.29325   0.28044   0.00000  Uiso   1.00
O134   O     0.56108   0.12846   0.25000   0.00000  Uiso   1.00
O135   O     0.40320   0.25457   0.31217   0.00000  Uiso   1.00
O136   O     0.56108   0.20487   0.25000   0.00000  Uiso   1.00
O137   O     0.43892   0.12846   0.24999   0.00000  Uiso   1.00
O138   O     0.49999   0.20489   0.18392   0.00000  Uiso   1.00
O139   O     0.50001   0.12844   0.31607   0.00000  Uiso   1.00
O140   O     0.50001   0.20489   0.31607   0.00000  Uiso   1.00
O141   O     0.49999   0.12844   0.18392   0.00000  Uiso   1.00
O142   O     0.39804   0.04887   0.26498   0.00000  Uiso   1.00
S143   S     0.37299   0.07219   0.22954   0.00000  Uiso   1.00
S144   S     0.62420   0.24869   0.20085   0.00000  Uiso   1.00
S145   S     0.62521   0.08420   0.29785   0.00000  Uiso   1.00
S146   S     0.37283   0.26215   0.26729   0.00000  Uiso   1.00
Zn147  Zn    0.50000   0.21771   0.25000   0.00000  Uiso   1.00
Zn148  Zn    0.50000   0.11563   0.25000   0.00000  Uiso   1.00
C149   C     0.75310   0.16673   0.24984   0.00000  Uiso   1.00
C150   C     0.70871   0.16685   0.24952   0.00000  Uiso   1.00
C151   C     0.84195   0.02398   0.28804   0.00000  Uiso   1.00
C152   C     0.82475   0.30935   0.21195   0.00000  Uiso   1.00
C153   C     0.82483   0.02400   0.21194   0.00000  Uiso   1.00
C154   C     0.84208   0.30932   0.28801   0.00000  Uiso   1.00
C155   C     0.83336   0.16666   0.16323   0.00000  Uiso   1.00
C156   C     0.83341   0.16667   0.33677   0.00000  Uiso   1.00
C157   C     0.83361   0.20811   0.40760   0.00000  Uiso   1.00
C158   C     0.83409   0.12522   0.09240   0.00000  Uiso   1.00
C159   C     0.83375   0.16667   0.38471   0.00000  Uiso   1.00
C160   C     0.91333   0.16664   0.24996   0.00000  Uiso   1.00
C161   C     0.83367   0.16666   0.11529   0.00000  Uiso   1.00
C162   C     0.83429   0.12523   0.40759   0.00000  Uiso   1.00
C163   C     0.83365   0.20811   0.09241   0.00000  Uiso   1.00
C164   C     0.83449   0.12491   0.45365   0.00000  Uiso   1.00
C165   C     0.83389   0.20843   0.04635   0.00000  Uiso   1.00
C166   C     0.83424   0.16667   0.47683   0.00000  Uiso   1.00
C167   C     0.83421   0.16667   0.02317   0.00000  Uiso   1.00
C168   C     0.83387   0.20843   0.45367   0.00000  Uiso   1.00
C169   C     0.83438   0.12491   0.04633   0.00000  Uiso   1.00
C170   C     0.83483   0.08359   0.47684   0.00000  Uiso   1.00
C171   C     0.83475   0.08359   0.02312   0.00000  Uiso   1.00
C172   C     0.83370   0.24974   0.02316   0.00000  Uiso   1.00
C173   C     0.83367   0.24975   0.47688   0.00000  Uiso   1.00
C174   C     0.68684   0.12505   0.25029   0.00000  Uiso   1.00
C175   C     0.97875   0.20627   0.23689   0.00000  Uiso   1.00
C176   C     0.97911   0.12712   0.26216   0.00000  Uiso   1.00
C177   C     0.68658   0.20863   0.24851   0.00000  Uiso   1.00
C178   C     0.95733   0.16666   0.24970   0.00000  Uiso   1.00
H179   H     0.83321   0.24014   0.38968   0.00000  Uiso   1.00
H180   H     0.91135   0.24978   0.14888   0.00000  Uiso   1.00
H181   H     0.91501   0.08224   0.35238   0.00000  Uiso   1.00
H182   H     0.75037   0.28423   0.31671   0.00000  Uiso   1.00
H183   H     0.84901   0.04205   0.31842   0.00000  Uiso   1.00
H184   H     0.81767   0.29127   0.18157   0.00000  Uiso   1.00
H185   H     0.81803   0.04209   0.18149   0.00000  Uiso   1.00
H186   H     0.84925   0.29121   0.31836   0.00000  Uiso   1.00
H187   H     0.83416   0.09319   0.11032   0.00000  Uiso   1.00
H188   H     0.83505   0.05141   0.45921   0.00000  Uiso   1.00
H189   H     0.83348   0.28193   0.04079   0.00000  Uiso   1.00
H190   H     0.83491   0.05140   0.04074   0.00000  Uiso   1.00
H191   H     0.83343   0.28193   0.45926   0.00000  Uiso   1.00
H192   H     0.83446   0.09320   0.38965   0.00000  Uiso   1.00
H193   H     0.83338   0.24013   0.11034   0.00000  Uiso   1.00
H194   H     0.74047   0.05125   0.17112   0.00000  Uiso   1.00
N195   N     0.83333   0.28573   0.25000   0.00000  Uiso   1.00
N196   N     0.83333   0.04760   0.25000   0.00000  Uiso   1.00
O197   O     0.77226   0.20487   0.24999   0.00000  Uiso   1.00
O198   O     0.67139   0.04169   0.21590   0.00000  Uiso   1.00
O199   O     0.73599   0.08166   0.18450   0.00000  Uiso   1.00
O200   O     0.93438   0.28359   0.22766   0.00000  Uiso   1.00
O201   O     0.99134   0.27188   0.17527   0.00000  Uiso   1.00
O202   O     0.92513   0.22414   0.16431   0.00000  Uiso   1.00
O203   O     0.93575   0.04937   0.27076   0.00000  Uiso   1.00
O204   O     0.99281   0.06111   0.32294   0.00000  Uiso   1.00
O205   O     0.92603   0.10802   0.33482   0.00000  Uiso   1.00
O206   O     0.73055   0.28401   0.23051   0.00000  Uiso   1.00
O207   O     0.67141   0.29325   0.28044   0.00000  Uiso   1.00
O208   O     0.89441   0.12846   0.25000   0.00000  Uiso   1.00
O209   O     0.73654   0.25457   0.31217   0.00000  Uiso   1.00
O210   O     0.89441   0.20487   0.25000   0.00000  Uiso   1.00
O211   O     0.77226   0.12846   0.24999   0.00000  Uiso   1.00
O212   O     0.83333   0.20489   0.18392   0.00000  Uiso   1.00
O213   O     0.83334   0.12844   0.31607   0.00000  Uiso   1.00
O214   O     0.83334   0.20489   0.31607   0.00000  Uiso   1.00
O215   O     0.83333   0.12844   0.18392   0.00000  Uiso   1.00
O216   O     0.73138   0.04887   0.26498   0.00000  Uiso   1.00
S217   S     0.70632   0.07219   0.22954   0.00000  Uiso   1.00
S218   S     0.95753   0.24869   0.20085   0.00000  Uiso   1.00
S219   S     0.95855   0.08420   0.29785   0.00000  Uiso   1.00
S220   S     0.70617   0.26215   0.26729   0.00000  Uiso   1.00
Zn221  Zn    0.83333   0.21771   0.25000   0.00000  Uiso   1.00
Zn222  Zn    0.83333   0.11563   0.25000   0.00000  Uiso   1.00
C223   C     0.08644   0.50006   0.24984   0.00000  Uiso   1.00
C224   C     0.04205   0.50018   0.24952   0.00000  Uiso   1.00
C225   C     0.17528   0.35731   0.28804   0.00000  Uiso   1.00
C226   C     0.15808   0.64268   0.21195   0.00000  Uiso   1.00
C227   C     0.15817   0.35733   0.21194   0.00000  Uiso   1.00
C228   C     0.17541   0.64265   0.28801   0.00000  Uiso   1.00
C229   C     0.16669   0.50000   0.16323   0.00000  Uiso   1.00
C230   C     0.16674   0.50000   0.33677   0.00000  Uiso   1.00
C231   C     0.16694   0.54145   0.40760   0.00000  Uiso   1.00
C232   C     0.16742   0.45855   0.09240   0.00000  Uiso   1.00
C233   C     0.16709   0.50000   0.38471   0.00000  Uiso   1.00
C234   C     0.24667   0.49998   0.24996   0.00000  Uiso   1.00
C235   C     0.16700   0.50000   0.11529   0.00000  Uiso   1.00
C236   C     0.16762   0.45856   0.40759   0.00000  Uiso   1.00
C237   C     0.16698   0.54144   0.09241   0.00000  Uiso   1.00
C238   C     0.16783   0.45824   0.45365   0.00000  Uiso   1.00
C239   C     0.16722   0.54176   0.04635   0.00000  Uiso   1.00
C240   C     0.16757   0.50000   0.47683   0.00000  Uiso   1.00
C241   C     0.16754   0.50000   0.02317   0.00000  Uiso   1.00
C242   C     0.16721   0.54176   0.45367   0.00000  Uiso   1.00
C243   C     0.16771   0.45824   0.04633   0.00000  Uiso   1.00
C244   C     0.16816   0.41693   0.47684   0.00000  Uiso   1.00
C245   C     0.16808   0.41692   0.02312   0.00000  Uiso   1.00
C246   C     0.16703   0.58308   0.02316   0.00000  Uiso   1.00
C247   C     0.16700   0.58308   0.47688   0.00000  Uiso   1.00
C248   C     0.02017   0.45838   0.25029   0.00000  Uiso   1.00
C249   C     0.31208   0.53961   0.23689   0.00000  Uiso   1.00
C250   C     0.31244   0.46046   0.26216   0.00000  Uiso   1.00
C251   C     0.01991   0.54196   0.24851   0.00000  Uiso   1.00
C252   C     0.29066   0.50000   0.24970   0.00000  Uiso   1.00
H253   H     0.16654   0.57348   0.38968   0.00000  Uiso   1.00
H254   H     0.24469   0.58311   0.14888   0.00000  Uiso   1.00
H255   H     0.24834   0.41558   0.35238   0.00000  Uiso   1.00
H256   H     0.08370   0.61757   0.31671   0.00000  Uiso   1.00
H257   H     0.18235   0.37538   0.31842   0.00000  Uiso   1.00
H258   H     0.15101   0.62460   0.18157   0.00000  Uiso   1.00
H259   H     0.15137   0.37542   0.18149   0.00000  Uiso   1.00
H260   H     0.18258   0.62454   0.31836   0.00000  Uiso   1.00
H261   H     0.16750   0.42652   0.11032   0.00000  Uiso   1.00
H262   H     0.16838   0.38474   0.45921   0.00000  Uiso   1.00
H263   H     0.16681   0.61526   0.04079   0.00000  Uiso   1.00
H264   H     0.16824   0.38474   0.04074   0.00000  Uiso   1.00
H265   H     0.16676   0.61527   0.45926   0.00000  Uiso   1.00
H266   H     0.16780   0.42653   0.38965   0.00000  Uiso   1.00
H267   H     0.16672   0.57347   0.11034   0.00000  Uiso   1.00
H268   H     0.07380   0.38458   0.17112   0.00000  Uiso   1.00
N269   N     0.16667   0.61907   0.25000   0.00000  Uiso   1.00
N270   N     0.16667   0.38093   0.25000   0.00000  Uiso   1.00
O271   O     0.10559   0.53821   0.24999   0.00000  Uiso   1.00
O272   O     0.00472   0.37502   0.21590   0.00000  Uiso   1.00
O273   O     0.06932   0.41499   0.18450   0.00000  Uiso   1.00
O274   O     0.26772   0.61693   0.22766   0.00000  Uiso   1.00
O275   O     0.32467   0.60521   0.17527   0.00000  Uiso   1.00
O276   O     0.25847   0.55747   0.16431   0.00000  Uiso   1.00
O277   O     0.26908   0.38271   0.27076   0.00000  Uiso   1.00
O278   O     0.32615   0.39444   0.32294   0.00000  Uiso   1.00
O279   O     0.25936   0.44135   0.33482   0.00000  Uiso   1.00
O280   O     0.06389   0.61734   0.23051   0.00000  Uiso   1.00
O281   O     0.00475   0.62658   0.28044   0.00000  Uiso   1.00
O282   O     0.22774   0.46179   0.25000   0.00000  Uiso   1.00
O283   O     0.06987   0.58791   0.31217   0.00000  Uiso   1.00
O284   O     0.22774   0.53821   0.25000   0.00000  Uiso   1.00
O285   O     0.10559   0.46179   0.24999   0.00000  Uiso   1.00
O286   O     0.16666   0.53823   0.18392   0.00000  Uiso   1.00
O287   O     0.16667   0.46177   0.31607   0.00000  Uiso   1.00
O288   O     0.16667   0.53823   0.31607   0.00000  Uiso   1.00
O289   O     0.16666   0.46177   0.18392   0.00000  Uiso   1.00
O290   O     0.06471   0.38221   0.26498   0.00000  Uiso   1.00
S291   S     0.03965   0.40553   0.22954   0.00000  Uiso   1.00
S292   S     0.29086   0.58202   0.20085   0.00000  Uiso   1.00
S293   S     0.29188   0.41753   0.29785   0.00000  Uiso   1.00
S294   S     0.03950   0.59548   0.26729   0.00000  Uiso   1.00
Zn295  Zn    0.16667   0.55104   0.25000   0.00000  Uiso   1.00
Zn296  Zn    0.16667   0.44896   0.25000   0.00000  Uiso   1.00
C297   C     0.41977   0.50006   0.24984   0.00000  Uiso   1.00
C298   C     0.37538   0.50018   0.24952   0.00000  Uiso   1.00
C299   C     0.50861   0.35731   0.28804   0.00000  Uiso   1.00
C300   C     0.49142   0.64268   0.21195   0.00000  Uiso   1.00
C301   C     0.49150   0.35733   0.21194   0.00000  Uiso   1.00
C302   C     0.50874   0.64265   0.28801   0.00000  Uiso   1.00
C303   C     0.50002   0.50000   0.16323   0.00000  Uiso   1.00
C304   C     0.50007   0.50000   0.33677   0.00000  Uiso   1.00
C305   C     0.50027   0.54145   0.40760   0.00000  Uiso   1.00
C306   C     0.50076   0.45855   0.09240   0.00000  Uiso   1.00
C307   C     0.50042   0.50000   0.38471   0.00000  Uiso   1.00
C308   C     0.58000   0.49998   0.24996   0.00000  Uiso   1.00
C309   C     0.50034   0.50000   0.11529   0.00000  Uiso   1.00
C310   C     0.50095   0.45856   0.40759   0.00000  Uiso   1.00
C311   C     0.50032   0.54144   0.09241   0.00000  Uiso   1.00
C312   C     0.50116   0.45824   0.45365   0.00000  Uiso   1.00
C313   C     0.50055   0.54176   0.04635   0.00000  Uiso   1.00
C314   C     0.50090   0.50000   0.47683   0.00000  Uiso   1.00
C315   C     0.50088   0.50000   0.02317   0.00000  Uiso   1.00
C316   C     0.50054   0.54176   0.45367   0.00000  Uiso   1.00
C317   C     0.50105   0.45824   0.04633   0.00000  Uiso   1.00
C318   C     0.50149   0.41693   0.47684   0.00000  Uiso   1.00
C319   C     0.50141   0.41692   0.02312   0.00000  Uiso   1.00
C320   C     0.50037   0.58308   0.02316   0.00000  Uiso   1.00
C321   C     0.50034   0.58308   0.47688   0.00000  Uiso   1.00
C322   C     0.35350   0.45838   0.25029   0.00000  Uiso   1.00
C323   C     0.64541   0.53961   0.23689   0.00000  Uiso   1.00
C324   C     0.64578   0.46046   0.26216   0.00000  Uiso   1.00
C325   C     0.35324   0.54196   0.24851   0.00000  Uiso   1.00
C326   C     0.62400   0.50000   0.24970   0.00000  Uiso   1.00
H327   H     0.49988   0.57348   0.38968   0.00000  Uiso   1.00
H328   H     0.57802   0.58311   0.14888   0.00000  Uiso   1.00
H329   H     0.58168   0.41558   0.35238   0.00000  Uiso   1.00
H330   H     0.41704   0.61757   0.31671   0.00000  Uiso   1.00
H331   H     0.51568   0.37538   0.31842   0.00000  Uiso   1.00
H332   H     0.48434   0.62460   0.18157   0.00000  Uiso   1.00
H333   H     0.48470   0.37542   0.18149   0.00000  Uiso   1.00
H334   H     0.51592   0.62454   0.31836   0.00000  Uiso   1.00
H335   H     0.50083   0.42652   0.11032   0.00000  Uiso   1.00
H336   H     0.50172   0.38474   0.45921   0.00000  Uiso   1.00
H337   H     0.50015   0.61526   0.04079   0.00000  Uiso   1.00
H338   H     0.50158   0.38474   0.04074   0.00000  Uiso   1.00
H339   H     0.50009   0.61527   0.45926   0.00000  Uiso   1.00
H340   H     0.50113   0.42653   0.38965   0.00000  Uiso   1.00
H341   H     0.50005   0.57347   0.11034   0.00000  Uiso   1.00
H342   H     0.40713   0.38458   0.17112   0.00000  Uiso   1.00
N343   N     0.50000   0.61907   0.25000   0.00000  Uiso   1.00
N344   N     0.50000   0.38093   0.25000   0.00000  Uiso   1.00
O345   O     0.43892   0.53821   0.24999   0.00000  Uiso   1.00
O346   O     0.33805   0.37502   0.21590   0.00000  Uiso   1.00
O347   O     0.40266   0.41499   0.18450   0.00000  Uiso   1.00
O348   O     0.60105   0.61693   0.22766   0.00000  Uiso   1.00
O349   O     0.65800   0.60521   0.17527   0.00000  Uiso   1.00
O350   O     0.59180   0.55747   0.16431   0.00000  Uiso   1.00
O351   O     0.60241   0.38271   0.27076   0.00000  Uiso   1.00
O352   O     0.65948   0.39444   0.32294   0.00000  Uiso   1.00
O353   O     0.59270   0.44135   0.33482   0.00000  Uiso   1.00
O354   O     0.39722   0.61734   0.23051   0.00000  Uiso   1.00
O355   O     0.33808   0.62658   0.28044   0.00000  Uiso   1.00
O356   O     0.56108   0.46179   0.25000   0.00000  Uiso   1.00
O357   O     0.40320   0.58791   0.31217   0.00000  Uiso   1.00
O358   O     0.56108   0.53821   0.25000   0.00000  Uiso   1.00
O359   O     0.43892   0.46179   0.24999   0.00000  Uiso   1.00
O360   O     0.49999   0.53823   0.18392   0.00000  Uiso   1.00
O361   O     0.50001   0.46177   0.31607   0.00000  Uiso   1.00
O362   O     0.50001   0.53823   0.31607   0.00000  Uiso   1.00
O363   O     0.49999   0.46177   0.18392   0.00000  Uiso   1.00
O364   O     0.39804   0.38221   0.26498   0.00000  Uiso   1.00
S365   S     0.37299   0.40553   0.22954   0.00000  Uiso   1.00
S366   S     0.62420   0.58202   0.20085   0.00000  Uiso   1.00
S367   S     0.62521   0.41753   0.29785   0.00000  Uiso   1.00
S368   S     0.37283   0.59548   0.26729   0.00000  Uiso   1.00
Zn369  Zn    0.50000   0.55104   0.25000   0.00000  Uiso   1.00
Zn370  Zn    0.50000   0.44896   0.25000   0.00000  Uiso   1.00
C371   C     0.75310   0.50006   0.24984   0.00000  Uiso   1.00
C372   C     0.70871   0.50018   0.24952   0.00000  Uiso   1.00
C373   C     0.84195   0.35731   0.28804   0.00000  Uiso   1.00
C374   C     0.82475   0.64268   0.21195   0.00000  Uiso   1.00
C375   C     0.82483   0.35733   0.21194   0.00000  Uiso   1.00
C376   C     0.84208   0.64265   0.28801   0.00000  Uiso   1.00
C377   C     0.83336   0.50000   0.16323   0.00000  Uiso   1.00
C378   C     0.83341   0.50000   0.33677   0.00000  Uiso   1.00
C379   C     0.83361   0.54145   0.40760   0.00000  Uiso   1.00
C380   C     0.83409   0.45855   0.09240   0.00000  Uiso   1.00
C381   C     0.83375   0.50000   0.38471   0.00000  Uiso   1.00
C382   C     0.91333   0.49998   0.24996   0.00000  Uiso   1.00
C383   C     0.83367   0.50000   0.11529   0.00000  Uiso   1.00
C384   C     0.83429   0.45856   0.40759   0.00000  Uiso   1.00
C385   C     0.83365   0.54144   0.09241   0.00000  Uiso   1.00
C386   C     0.83449   0.45824   0.45365   0.00000  Uiso   1.00
C387   C     0.83389   0.54176   0.04635   0.00000  Uiso   1.00
C388   C     0.83424   0.50000   0.47683   0.00000  Uiso   1.00
C389   C     0.83421   0.50000   0.02317   0.00000  Uiso   1.00
C390   C     0.83387   0.54176   0.45367   0.00000  Uiso   1.00
C391   C     0.83438   0.45824   0.04633   0.00000  Uiso   1.00
C392   C     0.83483   0.41693   0.47684   0.00000  Uiso   1.00
C393   C     0.83475   0.41692   0.02312   0.00000  Uiso   1.00
C394   C     0.83370   0.58308   0.02316   0.00000  Uiso   1.00
C395   C     0.83367   0.58308   0.47688   0.00000  Uiso   1.00
C396   C     0.68684   0.45838   0.25029   0.00000  Uiso   1.00
C397   C     0.97875   0.53961   0.23689   0.00000  Uiso   1.00
C398   C     0.97911   0.46046   0.26216   0.00000  Uiso   1.00
C399   C     0.68658   0.54196   0.24851   0.00000  Uiso   1.00
C400   C     0.95733   0.50000   0.24970   0.00000  Uiso   1.00
H401   H     0.83321   0.57348   0.38968   0.00000  Uiso   1.00
H402   H     0.91135   0.58311   0.14888   0.00000  Uiso   1.00
H403   H     0.91501   0.41558   0.35238   0.00000  Uiso   1.00
H404   H     0.75037   0.61757   0.31671   0.00000  Uiso   1.00
H405   H     0.84901   0.37538   0.31842   0.00000  Uiso   1.00
H406   H     0.81767   0.62460   0.18157   0.00000  Uiso   1.00
H407   H     0.81803   0.37542   0.18149   0.00000  Uiso   1.00
H408   H     0.84925   0.62454   0.31836   0.00000  Uiso   1.00
H409   H     0.83416   0.42652   0.11032   0.00000  Uiso   1.00
H410   H     0.83505   0.38474   0.45921   0.00000  Uiso   1.00
H411   H     0.83348   0.61526   0.04079   0.00000  Uiso   1.00
H412   H     0.83491   0.38474   0.04074   0.00000  Uiso   1.00
H413   H     0.83343   0.61527   0.45926   0.00000  Uiso   1.00
H414   H     0.83446   0.42653   0.38965   0.00000  Uiso   1.00
H415   H     0.83338   0.57347   0.11034   0.00000  Uiso   1.00
H416   H     0.74047   0.38458   0.17112   0.00000  Uiso   1.00
N417   N     0.83333   0.61907   0.25000   0.00000  Uiso   1.00
N418   N     0.83333   0.38093   0.25000   0.00000  Uiso   1.00
O419   O     0.77226   0.53821   0.24999   0.00000  Uiso   1.00
O420   O     0.67139   0.37502   0.21590   0.00000  Uiso   1.00
O421   O     0.73599   0.41499   0.18450   0.00000  Uiso   1.00
O422   O     0.93438   0.61693   0.22766   0.00000  Uiso   1.00
O423   O     0.99134   0.60521   0.17527   0.00000  Uiso   1.00
O424   O     0.92513   0.55747   0.16431   0.00000  Uiso   1.00
O425   O     0.93575   0.38271   0.27076   0.00000  Uiso   1.00
O426   O     0.99281   0.39444   0.32294   0.00000  Uiso   1.00
O427   O     0.92603   0.44135   0.33482   0.00000  Uiso   1.00
O428   O     0.73055   0.61734   0.23051   0.00000  Uiso   1.00
O429   O     0.67141   0.62658   0.28044   0.00000  Uiso   1.00
O430   O     0.89441   0.46179   0.25000   0.00000  Uiso   1.00
O431   O     0.73654   0.58791   0.31217   0.00000  Uiso   1.00
O432   O     0.89441   0.53821   0.25000   0.00000  Uiso   1.00
O433   O     0.77226   0.46179   0.24999   0.00000  Uiso   1.00
O434   O     0.83333   0.53823   0.18392   0.00000  Uiso   1.00
O435   O     0.83334   0.46177   0.31607   0.00000  Uiso   1.00
O436   O     0.83334   0.53823   0.31607   0.00000  Uiso   1.00
O437   O     0.83333   0.46177   0.18392   0.00000  Uiso   1.00
O438   O     0.73138   0.38221   0.26498   0.00000  Uiso   1.00
S439   S     0.70632   0.40553   0.22954   0.00000  Uiso   1.00
S440   S     0.95753   0.58202   0.20085   0.00000  Uiso   1.00
S441   S     0.95855   0.41753   0.29785   0.00000  Uiso   1.00
S442   S     0.70617   0.59548   0.26729   0.00000  Uiso   1.00
Zn443  Zn    0.83333   0.55104   0.25000   0.00000  Uiso   1.00
Zn444  Zn    0.83333   0.44896   0.25000   0.00000  Uiso   1.00
C445   C     0.08644   0.83340   0.24984   0.00000  Uiso   1.00
C446   C     0.04205   0.83352   0.24952   0.00000  Uiso   1.00
C447   C     0.17528   0.69064   0.28804   0.00000  Uiso   1.00
C448   C     0.15808   0.97602   0.21195   0.00000  Uiso   1.00
C449   C     0.15817   0.69067   0.21194   0.00000  Uiso   1.00
C450   C     0.17541   0.97599   0.28801   0.00000  Uiso   1.00
C451   C     0.16669   0.83333   0.16323   0.00000  Uiso   1.00
C452   C     0.16674   0.83334   0.33677   0.00000  Uiso   1.00
C453   C     0.16694   0.87478   0.40760   0.00000  Uiso   1.00
C454   C     0.16742   0.79189   0.09240   0.00000  Uiso   1.00
C455   C     0.16709   0.83334   0.38471   0.00000  Uiso   1.00
C456   C     0.24667   0.83331   0.24996   0.00000  Uiso   1.00
C457   C     0.16700   0.83333   0.11529   0.00000  Uiso   1.00
C458   C     0.16762   0.79190   0.40759   0.00000  Uiso   1.00
C459   C     0.16698   0.87477   0.09241   0.00000  Uiso   1.00
C460   C     0.16783   0.79158   0.45365   0.00000  Uiso   1.00
C461   C     0.16722   0.87509   0.04635   0.00000  Uiso   1.00
C462   C     0.16757   0.83334   0.47683   0.00000  Uiso   1.00
C463   C     0.16754   0.83333   0.02317   0.00000  Uiso   1.00
C464   C     0.16721   0.87510   0.45367   0.00000  Uiso   1.00
C465   C     0.16771   0.79157   0.04633   0.00000  Uiso   1.00
C466   C     0.16816   0.75026   0.47684   0.00000  Uiso   1.00
C467   C     0.16808   0.75026   0.02312   0.00000  Uiso   1.00
C468   C     0.16703   0.91641   0.02316   0.00000  Uiso   1.00
C469   C     0.16700   0.91641   0.47688   0.00000  Uiso   1.00
C470   C     0.02017   0.79171   0.25029   0.00000  Uiso   1.00
C471   C     0.31208   0.87294   0.23689   0.00000  Uiso   1.00
C472   C     0.31244   0.79379   0.26216   0.00000  Uiso   1.00
C473   C     0.01991   0.87530   0.24851   0.00000  Uiso   1.00
C474   C     0.29066   0.83333   0.24970   0.00000  Uiso   1.00
H475   H     0.16654   0.90681   0.38968   0.00000  Uiso   1.00
H476   H     0.24469   0.91645   0.14888   0.00000  Uiso   1.00
H477   H     0.24834   0.74891   0.35238   0.00000  Uiso   1.00
H478   H     0.08370   0.95090   0.31671   0.00000  Uiso   1.00
H479   H     0.18235   0.70872   0.31842   0.00000  Uiso   1.00
H480   H     0.15101   0.95793   0.18157   0.00000  Uiso   1.00
H481   H     0.15137   0.70876   0.18149   0.00000  Uiso   1.00
H482   H     0.18258   0.95788   0.31836   0.00000  Uiso   1.00
H483   H     0.16750   0.75986   0.11032   0.00000  Uiso   1.00
H484   H     0.16838   0.71808   0.45921   0.00000  Uiso   1.00
H485   H     0.16681   0.94859   0.04079   0.00000  Uiso   1.00
H486   H     0.16824   0.71807   0.04074   0.00000  Uiso   1.00
H487   H     0.16676   0.94860   0.45926   0.00000  Uiso   1.00
H488   H     0.16780   0.75987   0.38965   0.00000  Uiso   1.00
H489   H     0.16672   0.90680   0.11034   0.00000  Uiso   1.00
H490   H     0.07380   0.71791   0.17112   0.00000  Uiso   1.00
N491   N     0.16667   0.95240   0.25000   0.00000  Uiso   1.00
N492   N     0.16667   0.71427   0.25000   0.00000  Uiso   1.00
O493   O     0.10559   0.87154   0.24999   0.00000  Uiso   1.00
O494   O     0.00472   0.70835   0.21590   0.00000  Uiso   1.00
O495   O     0.06932   0.74833   0.18450   0.00000  Uiso   1.00
O496   O     0.26772   0.95026   0.22766   0.00000  Uiso   1.00
O497   O     0.32467   0.93854   0.17527   0.00000  Uiso   1.00
O498   O     0.25847   0.89080   0.16431   0.00000  Uiso   1.00
O499   O     0.26908   0.71604   0.27076   0.00000  Uiso   1.00
O500   O     0.32615   0.72777   0.32294   0.00000  Uiso   1.00
O501   O     0.25936   0.77469   0.33482   0.00000  Uiso   1.00
O502   O     0.06389   0.95067   0.23051   0.00000  Uiso   1.00
O503   O     0.00475   0.95991   0.28044   0.00000  Uiso   1.00
O504   O     0.22774   0.79513   0.25000   0.00000  Uiso   1.00
O505   O     0.06987   0.92124   0.31217   0.00000  Uiso   1.00
O506   O     0.22774   0.87154   0.25000   0.00000  Uiso   1.00
O507   O     0.10559   0.79513   0.24999   0.00000  Uiso   1.00
O508   O     0.16666   0.87156   0.18392   0.00000  Uiso   1.00
O509   O     0.16667   0.79511   0.31607   0.00000  Uiso   1.00
O510   O     0.16667   0.87156   0.31607   0.00000  Uiso   1.00
O511   O     0.16666   0.79511   0.18392   0.00000  Uiso   1.00
O512   O     0.06471   0.71554   0.26498   0.00000  Uiso   1.00
S513   S     0.03965   0.73886   0.22954   0.00000  Uiso   1.00
S514   S     0.29086   0.91536   0.20085   0.00000  Uiso   1.00
S515   S     0.29188   0.75087   0.29785   0.00000  Uiso   1.00
S516   S     0.03950   0.92882   0.26729   0.00000  Uiso   1.00
Zn517  Zn    0.16667   0.88437   0.25000   0.00000  Uiso   1.00
Zn518  Zn    0.16667   0.78229   0.25000   0.00000  Uiso   1.00
C519   C     0.41977   0.83340   0.24984   0.00000  Uiso   1.00
C520   C     0.37538   0.83352   0.24952   0.00000  Uiso   1.00
C521   C     0.50861   0.69064   0.28804   0.00000  Uiso   1.00
C522   C     0.49142   0.97602   0.21195   0.00000  Uiso   1.00
C523   C     0.49150   0.69067   0.21194   0.00000  Uiso   1.00
C524   C     0.50874   0.97599   0.28801   0.00000  Uiso   1.00
C525   C     0.50002   0.83333   0.16323   0.00000  Uiso   1.00
C526   C     0.50007   0.83334   0.33677   0.00000  Uiso   1.00
C527   C     0.50027   0.87478   0.40760   0.00000  Uiso   1.00
C528   C     0.50076   0.79189   0.09240   0.00000  Uiso   1.00
C529   C     0.50042   0.83334   0.38471   0.00000  Uiso   1.00
C530   C     0.58000   0.83331   0.24996   0.00000  Uiso   1.00
C531   C     0.50034   0.83333   0.11529   0.00000  Uiso   1.00
C532   C     0.50095   0.79190   0.40759   0.00000  Uiso   1.00
C533   C     0.50032   0.87477   0.09241   0.00000  Uiso   1.00
C534   C     0.50116   0.79158   0.45365   0.00000  Uiso   1.00
C535   C     0.50055   0.87509   0.04635   0.00000  Uiso   1.00
C536   C     0.50090   0.83334   0.47683   0.00000  Uiso   1.00
C537   C     0.50088   0.83333   0.02317   0.00000  Uiso   1.00
C538   C     0.50054   0.87510   0.45367   0.00000  Uiso   1.00
C539   C     0.50105   0.79157   0.04633   0.00000  Uiso   1.00
C540   C     0.50149   0.75026   0.47684   0.00000  Uiso   1.00
C541   C     0.50141   0.75026   0.02312   0.00000  Uiso   1.00
C542   C     0.50037   0.91641   0.02316   0.00000  Uiso   1.00
C543   C     0.50034   0.91641   0.47688   0.00000  Uiso   1.00
C544   C     0.35350   0.79171   0.25029   0.00000  Uiso   1.00
C545   C     0.64541   0.87294   0.23689   0.00000  Uiso   1.00
C546   C     0.64578   0.79379   0.26216   0.00000  Uiso   1.00
C547   C     0.35324   0.87530   0.24851   0.00000  Uiso   1.00
C548   C     0.62400   0.83333   0.24970   0.00000  Uiso   1.00
H549   H     0.49988   0.90681   0.38968   0.00000  Uiso   1.00
H550   H     0.57802   0.91645   0.14888   0.00000  Uiso   1.00
H551   H     0.58168   0.74891   0.35238   0.00000  Uiso   1.00
H552   H     0.41704   0.95090   0.31671   0.00000  Uiso   1.00
H553   H     0.51568   0.70872   0.31842   0.00000  Uiso   1.00
H554   H     0.48434   0.95793   0.18157   0.00000  Uiso   1.00
H555   H     0.48470   0.70876   0.18149   0.00000  Uiso   1.00
H556   H     0.51592   0.95788   0.31836   0.00000  Uiso   1.00
H557   H     0.50083   0.75986   0.11032   0.00000  Uiso   1.00
H558   H     0.50172   0.71808   0.45921   0.00000  Uiso   1.00
H559   H     0.50015   0.94859   0.04079   0.00000  Uiso   1.00
H560   H     0.50158   0.71807   0.04074   0.00000  Uiso   1.00
H561   H     0.50009   0.94860   0.45926   0.00000  Uiso   1.00
H562   H     0.50113   0.75987   0.38965   0.00000  Uiso   1.00
H563   H     0.50005   0.90680   0.11034   0.00000  Uiso   1.00
H564   H     0.40713   0.71791   0.17112   0.00000  Uiso   1.00
N565   N     0.50000   0.95240   0.25000   0.00000  Uiso   1.00
N566   N     0.50000   0.71427   0.25000   0.00000  Uiso   1.00
O567   O     0.43892   0.87154   0.24999   0.00000  Uiso   1.00
O568   O     0.33805   0.70835   0.21590   0.00000  Uiso   1.00
O569   O     0.40266   0.74833   0.18450   0.00000  Uiso   1.00
O570   O     0.60105   0.95026   0.22766   0.00000  Uiso   1.00
O571   O     0.65800   0.93854   0.17527   0.00000  Uiso   1.00
O572   O     0.59180   0.89080   0.16431   0.00000  Uiso   1.00
O573   O     0.60241   0.71604   0.27076   0.00000  Uiso   1.00
O574   O     0.65948   0.72777   0.32294   0.00000  Uiso   1.00
O575   O     0.59270   0.77469   0.33482   0.00000  Uiso   1.00
O576   O     0.39722   0.95067   0.23051   0.00000  Uiso   1.00
O577   O     0.33808   0.95991   0.28044   0.00000  Uiso   1.00
O578   O     0.56108   0.79513   0.25000   0.00000  Uiso   1.00
O579   O     0.40320   0.92124   0.31217   0.00000  Uiso   1.00
O580   O     0.56108   0.87154   0.25000   0.00000  Uiso   1.00
O581   O     0.43892   0.79513   0.24999   0.00000  Uiso   1.00
O582   O     0.49999   0.87156   0.18392   0.00000  Uiso   1.00
O583   O     0.50001   0.79511   0.31607   0.00000  Uiso   1.00
O584   O     0.50001   0.87156   0.31607   0.00000  Uiso   1.00
O585   O     0.49999   0.79511   0.18392   0.00000  Uiso   1.00
O586   O     0.39804   0.71554   0.26498   0.00000  Uiso   1.00
S587   S     0.37299   0.73886   0.22954   0.00000  Uiso   1.00
S588   S     0.62420   0.91536   0.20085   0.00000  Uiso   1.00
S589   S     0.62521   0.75087   0.29785   0.00000  Uiso   1.00
S590   S     0.37283   0.92882   0.26729   0.00000  Uiso   1.00
Zn591  Zn    0.50000   0.88437   0.25000   0.00000  Uiso   1.00
Zn592  Zn    0.50000   0.78229   0.25000   0.00000  Uiso   1.00
C593   C     0.75310   0.83340   0.24984   0.00000  Uiso   1.00
C594   C     0.70871   0.83352   0.24952   0.00000  Uiso   1.00
C595   C     0.84195   0.69064   0.28804   0.00000  Uiso   1.00
C596   C     0.82475   0.97602   0.21195   0.00000  Uiso   1.00
C597   C     0.82483   0.69067   0.21194   0.00000  Uiso   1.00
C598   C     0.84208   0.97599   0.28801   0.00000  Uiso   1.00
C599   C     0.83336   0.83333   0.16323   0.00000  Uiso   1.00
C600   C     0.83341   0.83334   0.33677   0.00000  Uiso   1.00
C601   C     0.83361   0.87478   0.40760   0.00000  Uiso   1.00
C602   C     0.83409   0.79189   0.09240   0.00000  Uiso   1.00
C603   C     0.83375   0.83334   0.38471   0.00000  Uiso   1.00
C604   C     0.91333   0.83331   0.24996   0.00000  Uiso   1.00
C605   C     0.83367   0.83333   0.11529   0.00000  Uiso   1.00
C606   C     0.83429   0.79190   0.40759   0.00000  Uiso   1.00
C607   C     0.83365   0.87477   0.09241   0.00000  Uiso   1.00
C608   C     0.83449   0.79158   0.45365   0.00000  Uiso   1.00
C609   C     0.83389   0.87509   0.04635   0.00000  Uiso   1.00
C610   C     0.83424   0.83334   0.47683   0.00000  Uiso   1.00
C611   C     0.83421   0.83333   0.02317   0.00000  Uiso   1.00
C612   C     0.83387   0.87510   0.45367   0.00000  Uiso   1.00
C613   C     0.83438   0.79157   0.04633   0.00000  Uiso   1.00
C614   C     0.83483   0.75026   0.47684   0.00000  Uiso   1.00
C615   C     0.83475   0.75026   0.02312   0.00000  Uiso   1.00
C616   C     0.83370   0.91641   0.02316   0.00000  Uiso   1.00
C617   C     0.83367   0.91641   0.47688   0.00000  Uiso   1.00
C618   C     0.68684   0.79171   0.25029   0.00000  Uiso   1.00
C619   C     0.97875   0.87294   0.23689   0.00000  Uiso   1.00
C620   C     0.97911   0.79379   0.26216   0.00000  Uiso   1.00
C621   C     0.68658   0.87530   0.24851   0.00000  Uiso   1.00
C622   C     0.95733   0.83333   0.24970   0.00000  Uiso   1.00
H623   H     0.83321   0.90681   0.38968   0.00000  Uiso   1.00
H624   H     0.91135   0.91645   0.14888   0.00000  Uiso   1.00
H625   H     0.91501   0.74891   0.35238   0.00000  Uiso   1.00
H626   H     0.75037   0.95090   0.31671   0.00000  Uiso   1.00
H627   H     0.84901   0.70872   0.31842   0.00000  Uiso   1.00
H628   H     0.81767   0.95793   0.18157   0.00000  Uiso   1.00
H629   H     0.81803   0.70876   0.18149   0.00000  Uiso   1.00
H630   H     0.84925   0.95788   0.31836   0.00000  Uiso   1.00
H631   H     0.83416   0.75986   0.11032   0.00000  Uiso   1.00
H632   H     0.83505   0.71808   0.45921   0.00000  Uiso   1.00
H633   H     0.83348   0.94859   0.04079   0.00000  Uiso   1.00
H634   H     0.83491   0.71807   0.04074   0.00000  Uiso   1.00
H635   H     0.83343   0.94860   0.45926   0.00000  Uiso   1.00
H636   H     0.83446   0.75987   0.38965   0.00000  Uiso   1.00
H637   H     0.83338   0.90680   0.11034   0.00000  Uiso   1.00
H638   H     0.74047   0.71791   0.17112   0.00000  Uiso   1.00
N639   N     0.83333   0.95240   0.25000   0.00000  Uiso   1.00
N640   N     0.83333   0.71427   0.25000   0.00000  Uiso   1.00
O641   O     0.77226   0.87154   0.24999   0.00000  Uiso   1.00
O642   O     0.67139   0.70835   0.21590   0.00000  Uiso   1.00
O643   O     0.73599   0.74833   0.18450   0.00000  Uiso   1.00
O644   O     0.93438   0.95026   0.22766   0.00000  Uiso   1.00
O645   O     0.99134   0.93854   0.17527   0.00000  Uiso   1.00
O646   O     0.92513   0.89080   0.16431   0.00000  Uiso   1.00
O647   O     0.93575   0.71604   0.27076   0.00000  Uiso   1.00
O648   O     0.99281   0.72777   0.32294   0.00000  Uiso   1.00
O649   O     0.92603   0.77469   0.33482   0.00000  Uiso   1.00
O650   O     0.73055   0.95067   0.23051   0.00000  Uiso   1.00
O651   O     0.67141   0.95991   0.28044   0.00000  Uiso   1.00
O652   O     0.89441   0.79513   0.25000   0.00000  Uiso   1.00
O653   O     0.73654   0.92124   0.31217   0.00000  Uiso   1.00
O654   O     0.89441   0.87154   0.25000   0.00000  Uiso   1.00
O655   O     0.77226   0.79513   0.24999   0.00000  Uiso   1.00
O656   O     0.83333   0.87156   0.18392   0.00000  Uiso   1.00
O657   O     0.83334   0.79511   0.31607   0.00000  Uiso   1.00
O658   O     0.83334   0.87156   0.31607   0.00000  Uiso   1.00
O659   O     0.83333   0.79511   0.18392   0.00000  Uiso   1.00
O660   O     0.73138   0.71554   0.26498   0.00000  Uiso   1.00
S661   S     0.70632   0.73886   0.22954   0.00000  Uiso   1.00
S662   S     0.95753   0.91536   0.20085   0.00000  Uiso   1.00
S663   S     0.95855   0.75087   0.29785   0.00000  Uiso   1.00
S664   S     0.70617   0.92882   0.26729   0.00000  Uiso   1.00
Zn665  Zn    0.83333   0.88437   0.25000   0.00000  Uiso   1.00
Zn666  Zn    0.83333   0.78229   0.25000   0.00000  Uiso   1.00
C667   C     0.08644   0.16673   0.74984   0.00000  Uiso   1.00
C668   C     0.04205   0.16685   0.74952   0.00000  Uiso   1.00
C669   C     0.17528   0.02398   0.78804   0.00000  Uiso   1.00
C670   C     0.15808   0.30935   0.71195   0.00000  Uiso   1.00
C671   C     0.15817   0.02400   0.71194   0.00000  Uiso   1.00
C672   C     0.17541   0.30932   0.78801   0.00000  Uiso   1.00
C673   C     0.16669   0.16666   0.66323   0.00000  Uiso   1.00
C674   C     0.16674   0.16667   0.83677   0.00000  Uiso   1.00
C675   C     0.16694   0.20811   0.90760   0.00000  Uiso   1.00
C676   C     0.16742   0.12522   0.59240   0.00000  Uiso   1.00
C677   C     0.16709   0.16667   0.88471   0.00000  Uiso   1.00
C678   C     0.24667   0.16664   0.74996   0.00000  Uiso   1.00
C679   C     0.16700   0.16666   0.61529   0.00000  Uiso   1.00
C680   C     0.16762   0.12523   0.90759   0.00000  Uiso   1.00
C681   C     0.16698   0.20811   0.59241   0.00000  Uiso   1.00
C682   C     0.16783   0.12491   0.95365   0.00000  Uiso   1.00
C683   C     0.16722   0.20843   0.54635   0.00000  Uiso   1.00
C684   C     0.16757   0.16667   0.97683   0.00000  Uiso   1.00
C685   C     0.16754   0.16667   0.52317   0.00000  Uiso   1.00
C686   C     0.16721   0.20843   0.95367   0.00000  Uiso   1.00
C687   C     0.16771   0.12491   0.54633   0.00000  Uiso   1.00
C688   C     0.16816   0.08359   0.97684   0.00000  Uiso   1.00
C689   C     0.16808   0.08359   0.52312   0.00000  Uiso   1.00
C690   C     0.16703   0.24974   0.52316   0.00000  Uiso   1.00
C691   C     0.16700   0.24975   0.97688   0.00000  Uiso   1.00
C692   C     0.02017   0.12505   0.75029   0.00000  Uiso   1.00
C693   C     0.31208   0.20627   0.73689   0.00000  Uiso   1.00
C694   C     0.31244   0.12712   0.76216   0.00000  Uiso   1.00
C695   C     0.01991   0.20863   0.74851   0.00000  Uiso   1.00
C696   C     0.29066   0.16666   0.74970   0.00000  Uiso   1.00
H697   H     0.16654   0.24014   0.88968   0.00000  Uiso   1.00
H698   H     0.24469   0.24978   0.64888   0.00000  Uiso   1.00
H699   H     0.24834   0.08224   0.85238   0.00000  Uiso   1.00
H700   H     0.08370   0.28423   0.81671   0.00000  Uiso   1.00
H701   H     0.18235   0.04205   0.81842   0.00000  Uiso   1.00
H702   H     0.15101   0.29127   0.68157   0.00000  Uiso   1.00
H703   H     0.15137   0.04209   0.68149   0.00000  Uiso   1.00
H704   H     0.18258   0.29121   0.81836   0.00000  Uiso   1.00
H705   H     0.16750   0.09319   0.61032   0.00000  Uiso   1.00
H706   H     0.16838   0.05141   0.95921   0.00000  Uiso   1.00
H707   H     0.16681   0.28193   0.54079   0.00000  Uiso   1.00
H708   H     0.16824   0.05140   0.54074   0.00000  Uiso   1.00
H709   H     0.16676   0.28193   0.95926   0.00000  Uiso   1.00
H710   H     0.16780   0.09320   0.88965   0.00000  Uiso   1.00
H711   H     0.16672   0.24013   0.61034   0.00000  Uiso   1.00
H712   H     0.07380   0.05125   0.67112   0.00000  Uiso   1.00
N713   N     0.16667   0.28573   0.75000   0.00000  Uiso   1.00
N714   N     0.16667   0.04760   0.75000   0.00000  Uiso   1.00
O715   O     0.10559   0.20487   0.74999   0.00000  Uiso   1.00
O716   O     0.00472   0.04169   0.71590   0.00000  Uiso   1.00
O717   O     0.06932   0.08166   0.68450   0.00000  Uiso   1.00
O718   O     0.26772   0.28359   0.72766   0.00000  Uiso   1.00
O719   O     0.32467   0.27188   0.67527   0.00000  Uiso   1.00
O720   O     0.25847   0.22414   0.66431   0.00000  Uiso   1.00
O721   O     0.26908   0.04937   0.77076   0.00000  Uiso   1.00
O722   O     0.32615   0.06111   0.82294   0.00000  Uiso   1.00
O723   O     0.25936   0.10802   0.83482   0.00000  Uiso   1.00
O724   O     0.06389   0.28401   0.73051   0.00000  Uiso   1.00
O725   O     0.00475   0.29325   0.78044   0.00000  Uiso   1.00
O726   O     0.22774   0.12846   0.75000   0.00000  Uiso   1.00
O727   O     0.06987   0.25457   0.81217   0.00000  Uiso   1.00
O728   O     0.22774   0.20487   0.75000   0.00000  Uiso   1.00
O729   O     0.10559   0.12846   0.74999   0.00000  Uiso   1.00
O730   O     0.16666   0.20489   0.68392   0.00000  Uiso   1.00
O731   O     0.16667   0.12844   0.81607   0.00000  Uiso   1.00
O732   O     0.16667   0.20489   0.81607   0.00000  Uiso   1.00
O733   O     0.16666   0.12844   0.68392   0.00000  Uiso   1.00
O734   O     0.06471   0.04887   0.76498   0.00000  Uiso   1.00
S735   S     0.03965   0.07219   0.72954   0.00000  Uiso   1.00
S736   S     0.29086   0.24869   0.70085   0.00000  Uiso   1.00
S737   S     0.29188   0.08420   0.79785   0.00000  Uiso   1.00
S738   S     0.03950   0.26215   0.76729   0.00000  Uiso   1.00
Zn739  Zn    0.16667   0.21771   0.75000   0.00000  Uiso   1.00
Zn740  Zn    0.16667   0.11563   0.75000   0.00000  Uiso   1.00
C741   C     0.41977   0.16673   0.74984   0.00000  Uiso   1.00
C742   C     0.37538   0.16685   0.74952   0.00000  Uiso   1.00
C743   C     0.50861   0.02398   0.78804   0.00000  Uiso   1.00
C744   C     0.49142   0.30935   0.71195   0.00000  Uiso   1.00
C745   C     0.49150   0.02400   0.71194   0.00000  Uiso   1.00
C746   C     0.50874   0.30932   0.78801   0.00000  Uiso   1.00
C747   C     0.50002   0.16666   0.66323   0.00000  Uiso   1.00
C748   C     0.50007   0.16667   0.83677   0.00000  Uiso   1.00
C749   C     0.50027   0.20811   0.90760   0.00000  Uiso   1.00
C750   C     0.50076   0.12522   0.59240   0.00000  Uiso   1.00
C751   C     0.50042   0.16667   0.88471   0.00000  Uiso   1.00
C752   C     0.58000   0.16664   0.74996   0.00000  Uiso   1.00
C753   C     0.50034   0.16666   0.61529   0.00000  Uiso   1.00
C754   C     0.50095   0.12523   0.90759   0.00000  Uiso   1.00
C755   C     0.50032   0.20811   0.59241   0.00000  Uiso   1.00
C756   C     0.50116   0.12491   0.95365   0.00000  Uiso   1.00
C757   C     0.50055   0.20843   0.54635   0.00000  Uiso   1.00
C758   C     0.50090   0.16667   0.97683   0.00000  Uiso   1.00
C759   C     0.50088   0.16667   0.52317   0.00000  Uiso   1.00
C760   C     0.50054   0.20843   0.95367   0.00000  Uiso   1.00
C761   C     0.50105   0.12491   0.54633   0.00000  Uiso   1.00
C762   C     0.50149   0.08359   0.97684   0.00000  Uiso   1.00
C763   C     0.50141   0.08359   0.52312   0.00000  Uiso   1.00
C764   C     0.50037   0.24974   0.52316   0.00000  Uiso   1.00
C765   C     0.50034   0.24975   0.97688   0.00000  Uiso   1.00
C766   C     0.35350   0.12505   0.75029   0.00000  Uiso   1.00
C767   C     0.64541   0.20627   0.73689   0.00000  Uiso   1.00
C768   C     0.64578   0.12712   0.76216   0.00000  Uiso   1.00
C769   C     0.35324   0.20863   0.74851   0.00000  Uiso   1.00
C770   C     0.62400   0.16666   0.74970   0.00000  Uiso   1.00
H771   H     0.49988   0.24014   0.88968   0.00000  Uiso   1.00
H772   H     0.57802   0.24978   0.64888   0.00000  Uiso   1.00
H773   H     0.58168   0.08224   0.85238   0.00000  Uiso   1.00
H774   H     0.41704   0.28423   0.81671   0.00000  Uiso   1.00
H775   H     0.51568   0.04205   0.81842   0.00000  Uiso   1.00
H776   H     0.48434   0.29127   0.68157   0.00000  Uiso   1.00
H777   H     0.48470   0.04209   0.68149   0.00000  Uiso   1.00
H778   H     0.51592   0.29121   0.81836   0.00000  Uiso   1.00
H779   H     0.50083   0.09319   0.61032   0.00000  Uiso   1.00
H780   H     0.50172   0.05141   0.95921   0.00000  Uiso   1.00
H781   H     0.50015   0.28193   0.54079   0.00000  Uiso   1.00
H782   H     0.50158   0.05140   0.54074   0.00000  Uiso   1.00
H783   H     0.50009   0.28193   0.95926   0.00000  Uiso   1.00
H784   H     0.50113   0.09320   0.88965   0.00000  Uiso   1.00
H785   H     0.50005   0.24013   0.61034   0.00000  Uiso   1.00
H786   H     0.40713   0.05125   0.67112   0.00000  Uiso   1.00
N787   N     0.50000   0.28573   0.75000   0.00000  Uiso   1.00
N788   N     0.50000   0.04760   0.75000   0.00000  Uiso   1.00
O789   O     0.43892   0.20487   0.74999   0.00000  Uiso   1.00
O790   O     0.33805   0.04169   0.71590   0.00000  Uiso   1.00
O791   O     0.40266   0.08166   0.68450   0.00000  Uiso   1.00
O792   O     0.60105   0.28359   0.72766   0.00000  Uiso   1.00
O793   O     0.65800   0.27188   0.67527   0.00000  Uiso   1.00
O794   O     0.59180   0.22414   0.66431   0.00000  Uiso   1.00
O795   O     0.60241   0.04937   0.77076   0.00000  Uiso   1.00
O796   O     0.65948   0.06111   0.82294   0.00000  Uiso   1.00
O797   O     0.59270   0.10802   0.83482   0.00000  Uiso   1.00
O798   O     0.39722   0.28401   0.73051   0.00000  Uiso   1.00
O799   O     0.33808   0.29325   0.78044   0.00000  Uiso   1.00
O800   O     0.56108   0.12846   0.75000   0.00000  Uiso   1.00
O801   O     0.40320   0.25457   0.81217   0.00000  Uiso   1.00
O802   O     0.56108   0.20487   0.75000   0.00000  Uiso   1.00
O803   O     0.43892   0.12846   0.74999   0.00000  Uiso   1.00
O804   O     0.49999   0.20489   0.68392   0.00000  Uiso   1.00
O805   O     0.50001   0.12844   0.81607   0.00000  Uiso   1.00
O806   O     0.50001   0.20489   0.81607   0.00000  Uiso   1.00
O807   O     0.49999   0.12844   0.68392   0.00000  Uiso   1.00
O808   O     0.39804   0.04887   0.76498   0.00000  Uiso   1.00
S809   S     0.37299   0.07219   0.72954   0.00000  Uiso   1.00
S810   S     0.62420   0.24869   0.70085   0.00000  Uiso   1.00
S811   S     0.62521   0.08420   0.79785   0.00000  Uiso   1.00
S812   S     0.37283   0.26215   0.76729   0.00000  Uiso   1.00
Zn813  Zn    0.50000   0.21771   0.75000   0.00000  Uiso   1.00
Zn814  Zn    0.50000   0.11563   0.75000   0.00000  Uiso   1.00
C815   C     0.75310   0.16673   0.74984   0.00000  Uiso   1.00
C816   C     0.70871   0.16685   0.74952   0.00000  Uiso   1.00
C817   C     0.84195   0.02398   0.78804   0.00000  Uiso   1.00
C818   C     0.82475   0.30935   0.71195   0.00000  Uiso   1.00
C819   C     0.82483   0.02400   0.71194   0.00000  Uiso   1.00
C820   C     0.84208   0.30932   0.78801   0.00000  Uiso   1.00
C821   C     0.83336   0.16666   0.66323   0.00000  Uiso   1.00
C822   C     0.83341   0.16667   0.83677   0.00000  Uiso   1.00
C823   C     0.83361   0.20811   0.90760   0.00000  Uiso   1.00
C824   C     0.83409   0.12522   0.59240   0.00000  Uiso   1.00
C825   C     0.83375   0.16667   0.88471   0.00000  Uiso   1.00
C826   C     0.91333   0.16664   0.74996   0.00000  Uiso   1.00
C827   C     0.83367   0.16666   0.61529   0.00000  Uiso   1.00
C828   C     0.83429   0.12523   0.90759   0.00000  Uiso   1.00
C829   C     0.83365   0.20811   0.59241   0.00000  Uiso   1.00
C830   C     0.83449   0.12491   0.95365   0.00000  Uiso   1.00
C831   C     0.83389   0.20843   0.54635   0.00000  Uiso   1.00
C832   C     0.83424   0.16667   0.97683   0.00000  Uiso   1.00
C833   C     0.83421   0.16667   0.52317   0.00000  Uiso   1.00
C834   C     0.83387   0.20843   0.95367   0.00000  Uiso   1.00
C835   C     0.83438   0.12491   0.54633   0.00000  Uiso   1.00
C836   C     0.83483   0.08359   0.97684   0.00000  Uiso   1.00
C837   C     0.83475   0.08359   0.52312   0.00000  Uiso   1.00
C838   C     0.83370   0.24974   0.52316   0.00000  Uiso   1.00
C839   C     0.83367   0.24975   0.97688   0.00000  Uiso   1.00
C840   C     0.68684   0.12505   0.75029   0.00000  Uiso   1.00
C841   C     0.97875   0.20627   0.73689   0.00000  Uiso   1.00
C842   C     0.97911   0.12712   0.76216   0.00000  Uiso   1.00
C843   C     0.68658   0.20863   0.74851   0.00000  Uiso   1.00
C844   C     0.95733   0.16666   0.74970   0.00000  Uiso   1.00
H845   H     0.83321   0.24014   0.88968   0.00000  Uiso   1.00
H846   H     0.91135   0.24978   0.64888   0.00000  Uiso   1.00
H847   H     0.91501   0.08224   0.85238   0.00000  Uiso   1.00
H848   H     0.75037   0.28423   0.81671   0.00000  Uiso   1.00
H849   H     0.84901   0.04205   0.81842   0.00000  Uiso   1.00
H850   H     0.81767   0.29127   0.68157   0.00000  Uiso   1.00
H851   H     0.81803   0.04209   0.68149   0.00000  Uiso   1.00
H852   H     0.84925   0.29121   0.81836   0.00000  Uiso   1.00
H853   H     0.83416   0.09319   0.61032   0.00000  Uiso   1.00
H854   H     0.83505   0.05141   0.95921   0.00000  Uiso   1.00
H855   H     0.83348   0.28193   0.54079   0.00000  Uiso   1.00
H856   H     0.83491   0.05140   0.54074   0.00000  Uiso   1.00
H857   H     0.83343   0.28193   0.95926   0.00000  Uiso   1.00
H858   H     0.83446   0.09320   0.88965   0.00000  Uiso   1.00
H859   H     0.83338   0.24013   0.61034   0.00000  Uiso   1.00
H860   H     0.74047   0.05125   0.67112   0.00000  Uiso   1.00
N861   N     0.83333   0.28573   0.75000   0.00000  Uiso   1.00
N862   N     0.83333   0.04760   0.75000   0.00000  Uiso   1.00
O863   O     0.77226   0.20487   0.74999   0.00000  Uiso   1.00
O864   O     0.67139   0.04169   0.71590   0.00000  Uiso   1.00
O865   O     0.73599   0.08166   0.68450   0.00000  Uiso   1.00
O866   O     0.93438   0.28359   0.72766   0.00000  Uiso   1.00
O867   O     0.99134   0.27188   0.67527   0.00000  Uiso   1.00
O868   O     0.92513   0.22414   0.66431   0.00000  Uiso   1.00
O869   O     0.93575   0.04937   0.77076   0.00000  Uiso   1.00
O870   O     0.99281   0.06111   0.82294   0.00000  Uiso   1.00
O871   O     0.92603   0.10802   0.83482   0.00000  Uiso   1.00
O872   O     0.73055   0.28401   0.73051   0.00000  Uiso   1.00
O873   O     0.67141   0.29325   0.78044   0.00000  Uiso   1.00
O874   O     0.89441   0.12846   0.75000   0.00000  Uiso   1.00
O875   O     0.73654   0.25457   0.81217   0.00000  Uiso   1.00
O876   O     0.89441   0.20487   0.75000   0.00000  Uiso   1.00
O877   O     0.77226   0.12846   0.74999   0.00000  Uiso   1.00
O878   O     0.83333   0.20489   0.68392   0.00000  Uiso   1.00
O879   O     0.83334   0.12844   0.81607   0.00000  Uiso   1.00
O880   O     0.83334   0.20489   0.81607   0.00000  Uiso   1.00
O881   O     0.83333   0.12844   0.68392   0.00000  Uiso   1.00
O882   O     0.73138   0.04887   0.76498   0.00000  Uiso   1.00
S883   S     0.70632   0.07219   0.72954   0.00000  Uiso   1.00
S884   S     0.95753   0.24869   0.70085   0.00000  Uiso   1.00
S885   S     0.95855   0.08420   0.79785   0.00000  Uiso   1.00
S886   S     0.70617   0.26215   0.76729   0.00000  Uiso   1.00
Zn887  Zn    0.83333   0.21771   0.75000   0.00000  Uiso   1.00
Zn888  Zn    0.83333   0.11563   0.75000   0.00000  Uiso   1.00
C889   C     0.08644   0.50006   0.74984   0.00000  Uiso   1.00
C890   C     0.04205   0.50018   0.74952   0.00000  Uiso   1.00
C891   C     0.17528   0.35731   0.78804   0.00000  Uiso   1.00
C892   C     0.15808   0.64268   0.71195   0.00000  Uiso   1.00
C893   C     0.15817   0.35733   0.71194   0.00000  Uiso   1.00
C894   C     0.17541   0.64265   0.78801   0.00000  Uiso   1.00
C895   C     0.16669   0.50000   0.66323   0.00000  Uiso   1.00
C896   C     0.16674   0.50000   0.83677   0.00000  Uiso   1.00
C897   C     0.16694   0.54145   0.90760   0.00000  Uiso   1.00
C898   C     0.16742   0.45855   0.59240   0.00000  Uiso   1.00
C899   C     0.16709   0.50000   0.88471   0.00000  Uiso   1.00
C900   C     0.24667   0.49998   0.74996   0.00000  Uiso   1.00
C901   C     0.16700   0.50000   0.61529   0.00000  Uiso   1.00
C902   C     0.16762   0.45856   0.90759   0.00000  Uiso   1.00
C903   C     0.16698   0.54144   0.59241   0.00000  Uiso   1.00
C904   C     0.16783   0.45824   0.95365   0.00000  Uiso   1.00
C905   C     0.16722   0.54176   0.54635   0.00000  Uiso   1.00
C906   C     0.16757   0.50000   0.97683   0.00000  Uiso   1.00
C907   C     0.16754   0.50000   0.52317   0.00000  Uiso   1.00
C908   C     0.16721   0.54176   0.95367   0.00000  Uiso   1.00
C909   C     0.16771   0.45824   0.54633   0.00000  Uiso   1.00
C910   C     0.16816   0.41693   0.97684   0.00000  Uiso   1.00
C911   C     0.16808   0.41692   0.52312   0.00000  Uiso   1.00
C912   C     0.16703   0.58308   0.52316   0.00000  Uiso   1.00
C913   C     0.16700   0.58308   0.97688   0.00000  Uiso   1.00
C914   C     0.02017   0.45838   0.75029   0.00000  Uiso   1.00
C915   C     0.31208   0.53961   0.73689   0.00000  Uiso   1.00
C916   C     0.31244   0.46046   0.76216   0.00000  Uiso   1.00
C917   C     0.01991   0.54196   0.74851   0.00000  Uiso   1.00
C918   C     0.29066   0.50000   0.74970   0.00000  Uiso   1.00
H919   H     0.16654   0.57348   0.88968   0.00000  Uiso   1.00
H920   H     0.24469   0.58311   0.64888   0.00000  Uiso   1.00
H921   H     0.24834   0.41558   0.85238   0.00000  Uiso   1.00
H922   H     0.08370   0.61757   0.81671   0.00000  Uiso   1.00
H923   H     0.18235   0.37538   0.81842   0.00000  Uiso   1.00
H924   H     0.15101   0.62460   0.68157   0.00000  Uiso   1.00
H925   H     0.15137   0.37542   0.68149   0.00000  Uiso   1.00
H926   H     0.18258   0.62454   0.81836   0.00000  Uiso   1.00
H927   H     0.16750   0.42652   0.61032   0.00000  Uiso   1.00
H928   H     0.16838   0.38474   0.95921   0.00000  Uiso   1.00
H929   H     0.16681   0.61526   0.54079   0.00000  Uiso   1.00
H930   H     0.16824   0.38474   0.54074   0.00000  Uiso   1.00
H931   H     0.16676   0.61527   0.95926   0.00000  Uiso   1.00
H932   H     0.16780   0.42653   0.88965   0.00000  Uiso   1.00
H933   H     0.16672   0.57347   0.61034   0.00000  Uiso   1.00
H934   H     0.07380   0.38458   0.67112   0.00000  Uiso   1.00
N935   N     0.16667   0.61907   0.75000   0.00000  Uiso   1.00
N936   N     0.16667   0.38093   0.75000   0.00000  Uiso   1.00
O937   O     0.10559   0.53821   0.74999   0.00000  Uiso   1.00
O938   O     0.00472   0.37502   0.71590   0.00000  Uiso   1.00
O939   O     0.06932   0.41499   0.68450   0.00000  Uiso   1.00
O940   O     0.26772   0.61693   0.72766   0.00000  Uiso   1.00
O941   O     0.32467   0.60521   0.67527   0.00000  Uiso   1.00
O942   O     0.25847   0.55747   0.66431   0.00000  Uiso   1.00
O943   O     0.26908   0.38271   0.77076   0.00000  Uiso   1.00
O944   O     0.32615   0.39444   0.82294   0.00000  Uiso   1.00
O945   O     0.25936   0.44135   0.83482   0.00000  Uiso   1.00
O946   O     0.06389   0.61734   0.73051   0.00000  Uiso   1.00
O947   O     0.00475   0.62658   0.78044   0.00000  Uiso   1.00
O948   O     0.22774   0.46179   0.75000   0.00000  Uiso   1.00
O949   O     0.06987   0.58791   0.81217   0.00000  Uiso   1.00
O950   O     0.22774   0.53821   0.75000   0.00000  Uiso   1.00
O951   O     0.10559   0.46179   0.74999   0.00000  Uiso   1.00
O952   O     0.16666   0.53823   0.68392   0.00000  Uiso   1.00
O953   O     0.16667   0.46177   0.81607   0.00000  Uiso   1.00
O954   O     0.16667   0.53823   0.81607   0.00000  Uiso   1.00
O955   O     0.16666   0.46177   0.68392   0.00000  Uiso   1.00
O956   O     0.06471   0.38221   0.76498   0.00000  Uiso   1.00
S957   S     0.03965   0.40553   0.72954   0.00000  Uiso   1.00
S958   S     0.29086   0.58202   0.70085   0.00000  Uiso   1.00
S959   S     0.29188   0.41753   0.79785   0.00000  Uiso   1.00
S960   S     0.03950   0.59548   0.76729   0.00000  Uiso   1.00
Zn961  Zn    0.16667   0.55104   0.75000   0.00000  Uiso   1.00
Zn962  Zn    0.16667   0.44896   0.75000   0.00000  Uiso   1.00
C963   C     0.41977   0.50006   0.74984   0.00000  Uiso   1.00
C964   C     0.37538   0.50018   0.74952   0.00000  Uiso   1.00
C965   C     0.50861   0.35731   0.78804   0.00000  Uiso   1.00
C966   C     0.49142   0.64268   0.71195   0.00000  Uiso   1.00
C967   C     0.49150   0.35733   0.71194   0.00000  Uiso   1.00
C968   C     0.50874   0.64265   0.78801   0.00000  Uiso   1.00
C969   C     0.50002   0.50000   0.66323   0.00000  Uiso   1.00
C970   C     0.50007   0.50000   0.83677   0.00000  Uiso   1.00
C971   C     0.50027   0.54145   0.90760   0.00000  Uiso   1.00
C972   C     0.50076   0.45855   0.59240   0.00000  Uiso   1.00
C973   C     0.50042   0.50000   0.88471   0.00000  Uiso   1.00
C974   C     0.58000   0.49998   0.74996   0.00000  Uiso   1.00
C975   C     0.50034   0.50000   0.61529   0.00000  Uiso   1.00
C976   C     0.50095   0.45856   0.90759   0.00000  Uiso   1.00
C977   C     0.50032   0.54144   0.59241   0.00000  Uiso   1.00
C978   C     0.50116   0.45824   0.95365   0.00000  Uiso   1.00
C979   C     0.50055   0.54176   0.54635   0.00000  Uiso   1.00
C980   C     0.50090   0.50000   0.97683   0.00000  Uiso   1.00
C981   C     0.50088   0.50000   0.52317   0.00000  Uiso   1.00
C982   C     0.50054   0.54176   0.95367   0.00000  Uiso   1.00
C983   C     0.50105   0.45824   0.54633   0.00000  Uiso   1.00
C984   C     0.50149   0.41693   0.97684   0.00000  Uiso   1.00
C985   C     0.50141   0.41692   0.52312   0.00000  Uiso   1.00
C986   C     0.50037   0.58308   0.52316   0.00000  Uiso   1.00
C987   C     0.50034   0.58308   0.97688   0.00000  Uiso   1.00
C988   C     0.35350   0.45838   0.75029   0.00000  Uiso   1.00
C989   C     0.64541   0.53961   0.73689   0.00000  Uiso   1.00
C990   C     0.64578   0.46046   0.76216   0.00000  Uiso   1.00
C991   C     0.35324   0.54196   0.74851   0.00000  Uiso   1.00
C992   C     0.62400   0.50000   0.74970   0.00000  Uiso   1.00
H993   H     0.49988   0.57348   0.88968   0.00000  Uiso   1.00
H994   H     0.57802   0.58311   0.64888   0.00000  Uiso   1.00
H995   H     0.58168   0.41558   0.85238   0.00000  Uiso   1.00
H996   H     0.41704   0.61757   0.81671   0.00000  Uiso   1.00
H997   H     0.51568   0.37538   0.81842   0.00000  Uiso   1.00
H998   H     0.48434   0.62460   0.68157   0.00000  Uiso   1.00
H999   H     0.48470   0.37542   0.68149   0.00000  Uiso   1.00
H1000  H     0.51592   0.62454   0.81836   0.00000  Uiso   1.00
H1001  H     0.50083   0.42652   0.61032   0.00000  Uiso   1.00
H1002  H     0.50172   0.38474   0.95921   0.00000  Uiso   1.00
H1003  H     0.50015   0.61526   0.54079   0.00000  Uiso   1.00
H1004  H     0.50158   0.38474   0.54074   0.00000  Uiso   1.00
H1005  H     0.50009   0.61527   0.95926   0.00000  Uiso   1.00
H1006  H     0.50113   0.42653   0.88965   0.00000  Uiso   1.00
H1007  H     0.50005   0.57347   0.61034   0.00000  Uiso   1.00
H1008  H     0.40713   0.38458   0.67112   0.00000  Uiso   1.00
N1009  N     0.50000   0.61907   0.75000   0.00000  Uiso   1.00
N1010  N     0.50000   0.38093   0.75000   0.00000  Uiso   1.00
O1011  O     0.43892   0.53821   0.74999   0.00000  Uiso   1.00
O1012  O     0.33805   0.37502   0.71590   0.00000  Uiso   1.00
O1013  O     0.40266   0.41499   0.68450   0.00000  Uiso   1.00
O1014  O     0.60105   0.61693   0.72766   0.00000  Uiso   1.00
O1015  O     0.65800   0.60521   0.67527   0.00000  Uiso   1.00
O1016  O     0.59180   0.55747   0.66431   0.00000  Uiso   1.00
O1017  O     0.60241   0.38271   0.77076   0.00000  Uiso   1.00
O1018  O     0.65948   0.39444   0.82294   0.00000  Uiso   1.00
O1019  O     0.59270   0.44135   0.83482   0.00000  Uiso   1.00
O1020  O     0.39722   0.61734   0.73051   0.00000  Uiso   1.00
O1021  O     0.33808   0.62658   0.78044   0.00000  Uiso   1.00
O1022  O     0.56108   0.46179   0.75000   0.00000  Uiso   1.00
O1023  O     0.40320   0.58791   0.81217   0.00000  Uiso   1.00
O1024  O     0.56108   0.53821   0.75000   0.00000  Uiso   1.00
O1025  O     0.43892   0.46179   0.74999   0.00000  Uiso   1.00
O1026  O     0.49999   0.53823   0.68392   0.00000  Uiso   1.00
O1027  O     0.50001   0.46177   0.81607   0.00000  Uiso   1.00
O1028  O     0.50001   0.53823   0.81607   0.00000  Uiso   1.00
O1029  O     0.49999   0.46177   0.68392   0.00000  Uiso   1.00
O1030  O     0.39804   0.38221   0.76498   0.00000  Uiso   1.00
S1031  S     0.37299   0.40553   0.72954   0.00000  Uiso   1.00
S1032  S     0.62420   0.58202   0.70085   0.00000  Uiso   1.00
S1033  S     0.62521   0.41753   0.79785   0.00000  Uiso   1.00
S1034  S     0.37283   0.59548   0.76729   0.00000  Uiso   1.00
Zn1035 Zn    0.50000   0.55104   0.75000   0.00000  Uiso   1.00
Zn1036 Zn    0.50000   0.44896   0.75000   0.00000  Uiso   1.00
C1037  C     0.75310   0.50006   0.74984   0.00000  Uiso   1.00
C1038  C     0.70871   0.50018   0.74952   0.00000  Uiso   1.00
C1039  C     0.84195   0.35731   0.78804   0.00000  Uiso   1.00
C1040  C     0.82475   0.64268   0.71195   0.00000  Uiso   1.00
C1041  C     0.82483   0.35733   0.71194   0.00000  Uiso   1.00
C1042  C     0.84208   0.64265   0.78801   0.00000  Uiso   1.00
C1043  C     0.83336   0.50000   0.66323   0.00000  Uiso   1.00
C1044  C     0.83341   0.50000   0.83677   0.00000  Uiso   1.00
C1045  C     0.83361   0.54145   0.90760   0.00000  Uiso   1.00
C1046  C     0.83409   0.45855   0.59240   0.00000  Uiso   1.00
C1047  C     0.83375   0.50000   0.88471   0.00000  Uiso   1.00
C1048  C     0.91333   0.49998   0.74996   0.00000  Uiso   1.00
C1049  C     0.83367   0.50000   0.61529   0.00000  Uiso   1.00
C1050  C     0.83429   0.45856   0.90759   0.00000  Uiso   1.00
C1051  C     0.83365   0.54144   0.59241   0.00000  Uiso   1.00
C1052  C     0.83449   0.45824   0.95365   0.00000  Uiso   1.00
C1053  C     0.83389   0.54176   0.54635   0.00000  Uiso   1.00
C1054  C     0.83424   0.50000   0.97683   0.00000  Uiso   1.00
C1055  C     0.83421   0.50000   0.52317   0.00000  Uiso   1.00
C1056  C     0.83387   0.54176   0.95367   0.00000  Uiso   1.00
C1057  C     0.83438   0.45824   0.54633   0.00000  Uiso   1.00
C1058  C     0.83483   0.41693   0.97684   0.00000  Uiso   1.00
C1059  C     0.83475   0.41692   0.52312   0.00000  Uiso   1.00
C1060  C     0.83370   0.58308   0.52316   0.00000  Uiso   1.00
C1061  C     0.83367   0.58308   0.97688   0.00000  Uiso   1.00
C1062  C     0.68684   0.45838   0.75029   0.00000  Uiso   1.00
C1063  C     0.97875   0.53961   0.73689   0.00000  Uiso   1.00
C1064  C     0.97911   0.46046   0.76216   0.00000  Uiso   1.00
C1065  C     0.68658   0.54196   0.74851   0.00000  Uiso   1.00
C1066  C     0.95733   0.50000   0.74970   0.00000  Uiso   1.00
H1067  H     0.83321   0.57348   0.88968   0.00000  Uiso   1.00
H1068  H     0.91135   0.58311   0.64888   0.00000  Uiso   1.00
H1069  H     0.91501   0.41558   0.85238   0.00000  Uiso   1.00
H1070  H     0.75037   0.61757   0.81671   0.00000  Uiso   1.00
H1071  H     0.84901   0.37538   0.81842   0.00000  Uiso   1.00
H1072  H     0.81767   0.62460   0.68157   0.00000  Uiso   1.00
H1073  H     0.81803   0.37542   0.68149   0.00000  Uiso   1.00
H1074  H     0.84925   0.62454   0.81836   0.00000  Uiso   1.00
H1075  H     0.83416   0.42652   0.61032   0.00000  Uiso   1.00
H1076  H     0.83505   0.38474   0.95921   0.00000  Uiso   1.00
H1077  H     0.83348   0.61526   0.54079   0.00000  Uiso   1.00
H1078  H     0.83491   0.38474   0.54074   0.00000  Uiso   1.00
H1079  H     0.83343   0.61527   0.95926   0.00000  Uiso   1.00
H1080  H     0.83446   0.42653   0.88965   0.00000  Uiso   1.00
H1081  H     0.83338   0.57347   0.61034   0.00000  Uiso   1.00
H1082  H     0.74047   0.38458   0.67112   0.00000  Uiso   1.00
N1083  N     0.83333   0.61907   0.75000   0.00000  Uiso   1.00
N1084  N     0.83333   0.38093   0.75000   0.00000  Uiso   1.00
O1085  O     0.77226   0.53821   0.74999   0.00000  Uiso   1.00
O1086  O     0.67139   0.37502   0.71590   0.00000  Uiso   1.00
O1087  O     0.73599   0.41499   0.68450   0.00000  Uiso   1.00
O1088  O     0.93438   0.61693   0.72766   0.00000  Uiso   1.00
O1089  O     0.99134   0.60521   0.67527   0.00000  Uiso   1.00
O1090  O     0.92513   0.55747   0.66431   0.00000  Uiso   1.00
O1091  O     0.93575   0.38271   0.77076   0.00000  Uiso   1.00
O1092  O     0.99281   0.39444   0.82294   0.00000  Uiso   1.00
O1093  O     0.92603   0.44135   0.83482   0.00000  Uiso   1.00
O1094  O     0.73055   0.61734   0.73051   0.00000  Uiso   1.00
O1095  O     0.67141   0.62658   0.78044   0.00000  Uiso   1.00
O1096  O     0.89441   0.46179   0.75000   0.00000  Uiso   1.00
O1097  O     0.73654   0.58791   0.81217   0.00000  Uiso   1.00
O1098  O     0.89441   0.53821   0.75000   0.00000  Uiso   1.00
O1099  O     0.77226   0.46179   0.74999   0.00000  Uiso   1.00
O1100  O     0.83333   0.53823   0.68392   0.00000  Uiso   1.00
O1101  O     0.83334   0.46177   0.81607   0.00000  Uiso   1.00
O1102  O     0.83334   0.53823   0.81607   0.00000  Uiso   1.00
O1103  O     0.83333   0.46177   0.68392   0.00000  Uiso   1.00
O1104  O     0.73138   0.38221   0.76498   0.00000  Uiso   1.00
S1105  S     0.70632   0.40553   0.72954   0.00000  Uiso   1.00
S1106  S     0.95753   0.58202   0.70085   0.00000  Uiso   1.00
S1107  S     0.95855   0.41753   0.79785   0.00000  Uiso   1.00
S1108  S     0.70617   0.59548   0.76729   0.00000  Uiso   1.00
Zn1109 Zn    0.83333   0.55104   0.75000   0.00000  Uiso   1.00
Zn1110 Zn    0.83333   0.44896   0.75000   0.00000  Uiso   1.00
C1111  C     0.08644   0.83340   0.74984   0.00000  Uiso   1.00
C1112  C     0.04205   0.83352   0.74952   0.00000  Uiso   1.00
C1113  C     0.17528   0.69064   0.78804   0.00000  Uiso   1.00
C1114  C     0.15808   0.97602   0.71195   0.00000  Uiso   1.00
C1115  C     0.15817   0.69067   0.71194   0.00000  Uiso   1.00
C1116  C     0.17541   0.97599   0.78801   0.00000  Uiso   1.00
C1117  C     0.16669   0.83333   0.66323   0.00000  Uiso   1.00
C1118  C     0.16674   0.83334   0.83677   0.00000  Uiso   1.00
C1119  C     0.16694   0.87478   0.90760   0.00000  Uiso   1.00
C1120  C     0.16742   0.79189   0.59240   0.00000  Uiso   1.00
C1121  C     0.16709   0.83334   0.88471   0.00000  Uiso   1.00
C1122  C     0.24667   0.83331   0.74996   0.00000  Uiso   1.00
C1123  C     0.16700   0.83333   0.61529   0.00000  Uiso   1.00
C1124  C     0.16762   0.79190   0.90759   0.00000  Uiso   1.00
C1125  C     0.16698   0.87477   0.59241   0.00000  Uiso   1.00
C1126  C     0.16783   0.79158   0.95365   0.00000  Uiso   1.00
C1127  C     0.16722   0.87509   0.54635   0.00000  Uiso   1.00
C1128  C     0.16757   0.83334   0.97683   0.00000  Uiso   1.00
C1129  C     0.16754   0.83333   0.52317   0.00000  Uiso   1.00
C1130  C     0.16721   0.87510   0.95367   0.00000  Uiso   1.00
C1131  C     0.16771   0.79157   0.54633   0.00000  Uiso   1.00
C1132  C     0.16816   0.75026   0.97684   0.00000  Uiso   1.00
C1133  C     0.16808   0.75026   0.52312   0.00000  Uiso   1.00
C1134  C     0.16703   0.91641   0.52316   0.00000  Uiso   1.00
C1135  C     0.16700   0.91641   0.97688   0.00000  Uiso   1.00
C1136  C     0.02017   0.79171   0.75029   0.00000  Uiso   1.00
C1137  C     0.31208   0.87294   0.73689   0.00000  Uiso   1.00
C1138  C     0.31244   0.79379   0.76216   0.00000  Uiso   1.00
C1139  C     0.01991   0.87530   0.74851   0.00000  Uiso   1.00
C1140  C     0.29066   0.83333   0.74970   0.00000  Uiso   1.00
H1141  H     0.16654   0.90681   0.88968   0.00000  Uiso   1.00
H1142  H     0.24469   0.91645   0.64888   0.00000  Uiso   1.00
H1143  H     0.24834   0.74891   0.85238   0.00000  Uiso   1.00
H1144  H     0.08370   0.95090   0.81671   0.00000  Uiso   1.00
H1145  H     0.18235   0.70872   0.81842   0.00000  Uiso   1.00
H1146  H     0.15101   0.95793   0.68157   0.00000  Uiso   1.00
H1147  H     0.15137   0.70876   0.68149   0.00000  Uiso   1.00
H1148  H     0.18258   0.95788   0.81836   0.00000  Uiso   1.00
H1149  H     0.16750   0.75986   0.61032   0.00000  Uiso   1.00
H1150  H     0.16838   0.71808   0.95921   0.00000  Uiso   1.00
H1151  H     0.16681   0.94859   0.54079   0.00000  Uiso   1.00
H1152  H     0.16824   0.71807   0.54074   0.00000  Uiso   1.00
H1153  H     0.16676   0.94860   0.95926   0.00000  Uiso   1.00
H1154  H     0.16780   0.75987   0.88965   0.00000  Uiso   1.00
H1155  H     0.16672   0.90680   0.61034   0.00000  Uiso   1.00
H1156  H     0.07380   0.71791   0.67112   0.00000  Uiso   1.00
N1157  N     0.16667   0.95240   0.75000   0.00000  Uiso   1.00
N1158  N     0.16667   0.71427   0.75000   0.00000  Uiso   1.00
O1159  O     0.10559   0.87154   0.74999   0.00000  Uiso   1.00
O1160  O     0.00472   0.70835   0.71590   0.00000  Uiso   1.00
O1161  O     0.06932   0.74833   0.68450   0.00000  Uiso   1.00
O1162  O     0.26772   0.95026   0.72766   0.00000  Uiso   1.00
O1163  O     0.32467   0.93854   0.67527   0.00000  Uiso   1.00
O1164  O     0.25847   0.89080   0.66431   0.00000  Uiso   1.00
O1165  O     0.26908   0.71604   0.77076   0.00000  Uiso   1.00
O1166  O     0.32615   0.72777   0.82294   0.00000  Uiso   1.00
O1167  O     0.25936   0.77469   0.83482   0.00000  Uiso   1.00
O1168  O     0.06389   0.95067   0.73051   0.00000  Uiso   1.00
O1169  O     0.00475   0.95991   0.78044   0.00000  Uiso   1.00
O1170  O     0.22774   0.79513   0.75000   0.00000  Uiso   1.00
O1171  O     0.06987   0.92124   0.81217   0.00000  Uiso   1.00
O1172  O     0.22774   0.87154   0.75000   0.00000  Uiso   1.00
O1173  O     0.10559   0.79513   0.74999   0.00000  Uiso   1.00
O1174  O     0.16666   0.87156   0.68392   0.00000  Uiso   1.00
O1175  O     0.16667   0.79511   0.81607   0.00000  Uiso   1.00
O1176  O     0.16667   0.87156   0.81607   0.00000  Uiso   1.00
O1177  O     0.16666   0.79511   0.68392   0.00000  Uiso   1.00
O1178  O     0.06471   0.71554   0.76498   0.00000  Uiso   1.00
S1179  S     0.03965   0.73886   0.72954   0.00000  Uiso   1.00
S1180  S     0.29086   0.91536   0.70085   0.00000  Uiso   1.00
S1181  S     0.29188   0.75087   0.79785   0.00000  Uiso   1.00
S1182  S     0.03950   0.92882   0.76729   0.00000  Uiso   1.00
Zn1183 Zn    0.16667   0.88437   0.75000   0.00000  Uiso   1.00
Zn1184 Zn    0.16667   0.78229   0.75000   0.00000  Uiso   1.00
C1185  C     0.41977   0.83340   0.74984   0.00000  Uiso   1.00
C1186  C     0.37538   0.83352   0.74952   0.00000  Uiso   1.00
C1187  C     0.50861   0.69064   0.78804   0.00000  Uiso   1.00
C1188  C     0.49142   0.97602   0.71195   0.00000  Uiso   1.00
C1189  C     0.49150   0.69067   0.71194   0.00000  Uiso   1.00
C1190  C     0.50874   0.97599   0.78801   0.00000  Uiso   1.00
C1191  C     0.50002   0.83333   0.66323   0.00000  Uiso   1.00
C1192  C     0.50007   0.83334   0.83677   0.00000  Uiso   1.00
C1193  C     0.50027   0.87478   0.90760   0.00000  Uiso   1.00
C1194  C     0.50076   0.79189   0.59240   0.00000  Uiso   1.00
C1195  C     0.50042   0.83334   0.88471   0.00000  Uiso   1.00
C1196  C     0.58000   0.83331   0.74996   0.00000  Uiso   1.00
C1197  C     0.50034   0.83333   0.61529   0.00000  Uiso   1.00
C1198  C     0.50095   0.79190   0.90759   0.00000  Uiso   1.00
C1199  C     0.50032   0.87477   0.59241   0.00000  Uiso   1.00
C1200  C     0.50116   0.79158   0.95365   0.00000  Uiso   1.00
C1201  C     0.50055   0.87509   0.54635   0.00000  Uiso   1.00
C1202  C     0.50090   0.83334   0.97683   0.00000  Uiso   1.00
C1203  C     0.50088   0.83333   0.52317   0.00000  Uiso   1.00
C1204  C     0.50054   0.87510   0.95367   0.00000  Uiso   1.00
C1205  C     0.50105   0.79157   0.54633   0.00000  Uiso   1.00
C1206  C     0.50149   0.75026   0.97684   0.00000  Uiso   1.00
C1207  C     0.50141   0.75026   0.52312   0.00000  Uiso   1.00
C1208  C     0.50037   0.91641   0.52316   0.00000  Uiso   1.00
C1209  C     0.50034   0.91641   0.97688   0.00000  Uiso   1.00
C1210  C     0.35350   0.79171   0.75029   0.00000  Uiso   1.00
C1211  C     0.64541   0.87294   0.73689   0.00000  Uiso   1.00
C1212  C     0.64578   0.79379   0.76216   0.00000  Uiso   1.00
C1213  C     0.35324   0.87530   0.74851   0.00000  Uiso   1.00
C1214  C     0.62400   0.83333   0.74970   0.00000  Uiso   1.00
H1215  H     0.49988   0.90681   0.88968   0.00000  Uiso   1.00
H1216  H     0.57802   0.91645   0.64888   0.00000  Uiso   1.00
H1217  H     0.58168   0.74891   0.85238   0.00000  Uiso   1.00
H1218  H     0.41704   0.95090   0.81671   0.00000  Uiso   1.00
H1219  H     0.51568   0.70872   0.81842   0.00000  Uiso   1.00
H1220  H     0.48434   0.95793   0.68157   0.00000  Uiso   1.00
H1221  H     0.48470   0.70876   0.68149   0.00000  Uiso   1.00
H1222  H     0.51592   0.95788   0.81836   0.00000  Uiso   1.00
H1223  H     0.50083   0.75986   0.61032   0.00000  Uiso   1.00
H1224  H     0.50172   0.71808   0.95921   0.00000  Uiso   1.00
H1225  H     0.50015   0.94859   0.54079   0.00000  Uiso   1.00
H1226  H     0.50158   0.71807   0.54074   0.00000  Uiso   1.00
H1227  H     0.50009   0.94860   0.95926   0.00000  Uiso   1.00
H1228  H     0.50113   0.75987   0.88965   0.00000  Uiso   1.00
H1229  H     0.50005   0.90680   0.61034   0.00000  Uiso   1.00
H1230  H     0.40713   0.71791   0.67112   0.00000  Uiso   1.00
N1231  N     0.50000   0.95240   0.75000   0.00000  Uiso   1.00
N1232  N     0.50000   0.71427   0.75000   0.00000  Uiso   1.00
O1233  O     0.43892   0.87154   0.74999   0.00000  Uiso   1.00
O1234  O     0.33805   0.70835   0.71590   0.00000  Uiso   1.00
O1235  O     0.40266   0.74833   0.68450   0.00000  Uiso   1.00
O1236  O     0.60105   0.95026   0.72766   0.00000  Uiso   1.00
O1237  O     0.65800   0.93854   0.67527   0.00000  Uiso   1.00
O1238  O     0.59180   0.89080   0.66431   0.00000  Uiso   1.00
O1239  O     0.60241   0.71604   0.77076   0.00000  Uiso   1.00
O1240  O     0.65948   0.72777   0.82294   0.00000  Uiso   1.00
O1241  O     0.59270   0.77469   0.83482   0.00000  Uiso   1.00
O1242  O     0.39722   0.95067   0.73051   0.00000  Uiso   1.00
O1243  O     0.33808   0.95991   0.78044   0.00000  Uiso   1.00
O1244  O     0.56108   0.79513   0.75000   0.00000  Uiso   1.00
O1245  O     0.40320   0.92124   0.81217   0.00000  Uiso   1.00
O1246  O     0.56108   0.87154   0.75000   0.00000  Uiso   1.00
O1247  O     0.43892   0.79513   0.74999   0.00000  Uiso   1.00
O1248  O     0.49999   0.87156   0.68392   0.00000  Uiso   1.00
O1249  O     0.50001   0.79511   0.81607   0.00000  Uiso   1.00
O1250  O     0.50001   0.87156   0.81607   0.00000  Uiso   1.00
O1251  O     0.49999   0.79511   0.68392   0.00000  Uiso   1.00
O1252  O     0.39804   0.71554   0.76498   0.00000  Uiso   1.00
S1253  S     0.37299   0.73886   0.72954   0.00000  Uiso   1.00
S1254  S     0.62420   0.91536   0.70085   0.00000  Uiso   1.00
S1255  S     0.62521   0.75087   0.79785   0.00000  Uiso   1.00
S1256  S     0.37283   0.92882   0.76729   0.00000  Uiso   1.00
Zn1257 Zn    0.50000   0.88437   0.75000   0.00000  Uiso   1.00
Zn1258 Zn    0.50000   0.78229   0.75000   0.00000  Uiso   1.00
C1259  C     0.75310   0.83340   0.74984   0.00000  Uiso   1.00
C1260  C     0.70871   0.83352   0.74952   0.00000  Uiso   1.00
C1261  C     0.84195   0.69064   0.78804   0.00000  Uiso   1.00
C1262  C     0.82475   0.97602   0.71195   0.00000  Uiso   1.00
C1263  C     0.82483   0.69067   0.71194   0.00000  Uiso   1.00
C1264  C     0.84208   0.97599   0.78801   0.00000  Uiso   1.00
C1265  C     0.83336   0.83333   0.66323   0.00000  Uiso   1.00
C1266  C     0.83341   0.83334   0.83677   0.00000  Uiso   1.00
C1267  C     0.83361   0.87478   0.90760   0.00000  Uiso   1.00
C1268  C     0.83409   0.79189   0.59240   0.00000  Uiso   1.00
C1269  C     0.83375   0.83334   0.88471   0.00000  Uiso   1.00
C1270  C     0.91333   0.83331   0.74996   0.00000  Uiso   1.00
C1271  C     0.83367   0.83333   0.61529   0.00000  Uiso   1.00
C1272  C     0.83429   0.79190   0.90759   0.00000  Uiso   1.00
C1273  C     0.83365   0.87477   0.59241   0.00000  Uiso   1.00
C1274  C     0.83449   0.79158   0.95365   0.00000  Uiso   1.00
C1275  C     0.83389   0.87509   0.54635   0.00000  Uiso   1.00
C1276  C     0.83424   0.83334   0.97683   0.00000  Uiso   1.00
C1277  C     0.83421   0.83333   0.52317   0.00000  Uiso   1.00
C1278  C     0.83387   0.87510   0.95367   0.00000  Uiso   1.00
C1279  C     0.83438   0.79157   0.54633   0.00000  Uiso   1.00
C1280  C     0.83483   0.75026   0.97684   0.00000  Uiso   1.00
C1281  C     0.83475   0.75026   0.52312   0.00000  Uiso   1.00
C1282  C     0.83370   0.91641   0.52316   0.00000  Uiso   1.00
C1283  C     0.83367   0.91641   0.97688   0.00000  Uiso   1.00
C1284  C     0.68684   0.79171   0.75029   0.00000  Uiso   1.00
C1285  C     0.97875   0.87294   0.73689   0.00000  Uiso   1.00
C1286  C     0.97911   0.79379   0.76216   0.00000  Uiso   1.00
C1287  C     0.68658   0.87530   0.74851   0.00000  Uiso   1.00
C1288  C     0.95733   0.83333   0.74970   0.00000  Uiso   1.00
H1289  H     0.83321   0.90681   0.88968   0.00000  Uiso   1.00
H1290  H     0.91135   0.91645   0.64888   0.00000  Uiso   1.00
H1291  H     0.91501   0.74891   0.85238   0.00000  Uiso   1.00
H1292  H     0.75037   0.95090   0.81671   0.00000  Uiso   1.00
H1293  H     0.84901   0.70872   0.81842   0.00000  Uiso   1.00
H1294  H     0.81767   0.95793   0.68157   0.00000  Uiso   1.00
H1295  H     0.81803   0.70876   0.68149   0.00000  Uiso   1.00
H1296  H     0.84925   0.95788   0.81836   0.00000  Uiso   1.00
H1297  H     0.83416   0.75986   0.61032   0.00000  Uiso   1.00
H1298  H     0.83505   0.71808   0.95921   0.00000  Uiso   1.00
H1299  H     0.83348   0.94859   0.54079   0.00000  Uiso   1.00
H1300  H     0.83491   0.71807   0.54074   0.00000  Uiso   1.00
H1301  H     0.83343   0.94860   0.95926   0.00000  Uiso   1.00
H1302  H     0.83446   0.75987   0.88965   0.00000  Uiso   1.00
H1303  H     0.83338   0.90680   0.61034   0.00000  Uiso   1.00
H1304  H     0.74047   0.71791   0.67112   0.00000  Uiso   1.00
N1305  N     0.83333   0.95240   0.75000   0.00000  Uiso   1.00
N1306  N     0.83333   0.71427   0.75000   0.00000  Uiso   1.00
O1307  O     0.77226   0.87154   0.74999   0.00000  Uiso   1.00
O1308  O     0.67139   0.70835   0.71590   0.00000  Uiso   1.00
O1309  O     0.73599   0.74833   0.68450   0.00000  Uiso   1.00
O1310  O     0.93438   0.95026   0.72766   0.00000  Uiso   1.00
O1311  O     0.99134   0.93854   0.67527   0.00000  Uiso   1.00
O1312  O     0.92513   0.89080   0.66431   0.00000  Uiso   1.00
O1313  O     0.93575   0.71604   0.77076   0.00000  Uiso   1.00
O1314  O     0.99281   0.72777   0.82294   0.00000  Uiso   1.00
O1315  O     0.92603   0.77469   0.83482   0.00000  Uiso   1.00
O1316  O     0.73055   0.95067   0.73051   0.00000  Uiso   1.00
O1317  O     0.67141   0.95991   0.78044   0.00000  Uiso   1.00
O1318  O     0.89441   0.79513   0.75000   0.00000  Uiso   1.00
O1319  O     0.73654   0.92124   0.81217   0.00000  Uiso   1.00
O1320  O     0.89441   0.87154   0.75000   0.00000  Uiso   1.00
O1321  O     0.77226   0.79513   0.74999   0.00000  Uiso   1.00
O1322  O     0.83333   0.87156   0.68392   0.00000  Uiso   1.00
O1323  O     0.83334   0.79511   0.81607   0.00000  Uiso   1.00
O1324  O     0.83334   0.87156   0.81607   0.00000  Uiso   1.00
O1325  O     0.83333   0.79511   0.68392   0.00000  Uiso   1.00
O1326  O     0.73138   0.71554   0.76498   0.00000  Uiso   1.00
S1327  S     0.70632   0.73886   0.72954   0.00000  Uiso   1.00
S1328  S     0.95753   0.91536   0.70085   0.00000  Uiso   1.00
S1329  S     0.95855   0.75087   0.79785   0.00000  Uiso   1.00
S1330  S     0.70617   0.92882   0.76729   0.00000  Uiso   1.00
Zn1331 Zn    0.83333   0.88437   0.75000   0.00000  Uiso   1.00
Zn1332 Zn    0.83333   0.78229   0.75000   0.00000  Uiso   1.00
loop_
_geom_bond_atom_site_label_1
_geom_bond_atom_site_label_2
_geom_bond_distance
_geom_bond_site_symmetry_2
_ccdc_geom_bond_type
C1     O49     1.283   .     A
C1     O63     1.284   .     A
C1     C2      1.439   .     S
C2     C26     1.420   .     A
C2     C29     1.422   .     A
C3     H35     1.080   .     S
C3     N48     1.365   .     A
C3     C450    1.411   1_545 S
C4     H36     1.081   .     S
C4     N47     1.365   .     A
C4     C227    1.411   .     S
C5     H37     1.080   .     S
C5     N48     1.365   .     A
C5     C448    1.411   1_545 S
C6     H38     1.081   .     S
C6     N47     1.365   .     A
C6     C225    1.411   .     S
C7     O64     1.284   .     A
C7     O67     1.284   .     A
C7     C13     1.439   .     S
C8     O66     1.284   .     A
C8     O65     1.284   .     A
C8     C11     1.439   .     S
C9     C20     1.383   .     A
C9     C11     1.399   .     A
C9     H31     1.085   .     S
C10    C21     1.383   .     A
C10    C13     1.399   .     A
C10    H39     1.085   .     S
C11    C14     1.399   .     A
C12    O62     1.279   .     A
C12    C30     1.427   .     S
C12    O60     1.280   .     A
C13    C15     1.399   .     A
C14    H44     1.085   .     S
C14    C16     1.383   .     A
C15    C17     1.383   .     A
C15    H45     1.085   .     S
C16    C22     1.400   .     A
C16    C18     1.411   .     A
C17    C24     1.400   .     A
C17    C19     1.411   .     A
C18    C20     1.411   .     A
C18    C685    1.391   .     S
C19    C21     1.411   .     A
C19    C684    1.391   1_554 S
C20    C25     1.400   .     A
C21    C23     1.400   .     A
C22    H40     1.084   .     S
C22    C689    1.389   .     S
C23    H42     1.084   .     S
C23    C688    1.389   1_554 S
C24    H41     1.084   .     S
C24    C691    1.389   1_554 S
C25    H43     1.084   .     S
C25    C690    1.389   .     S
C26    S69     1.788   .     S
C26    C176    1.380   1_455 S
C27    C30     1.410   .     A
C27    S70     1.788   .     S
C27    C103    1.381   .     S
C28    C30     1.409   .     A
C28    S71     1.786   .     S
C28    C100    1.380   .     S
C29    S72     1.789   .     S
C29    C175    1.381   1_455 S
H32    O54     0.991   .     S
H33    O57     0.990   .     S
H34    O61     0.991   .     S
H46    O51     0.990   .     S
N47    Zn73    2.000   .     S
N48    Zn74    2.000   .     S
O49    Zn73    2.017   .     S
O50    S69     1.503   .     D
O51    S69     1.683   .     S
O52    S70     1.503   .     D
O53    S70     1.503   .     D
O54    S70     1.682   .     S
O55    S71     1.503   .     D
O56    S71     1.503   .     D
O57    S71     1.682   .     S
O58    S72     1.503   .     D
O59    S72     1.502   .     D
O60    Zn74    2.017   .     S
O61    S72     1.683   .     S
O62    Zn73    2.015   .     S
O63    Zn74    2.015   .     S
O64    Zn73    2.019   .     S
O65    Zn74    2.019   .     S
O66    Zn73    2.019   .     S
O67    Zn74    2.019   .     S
O68    S69     1.503   .     D
C75    O123    1.283   .     A
C75    O137    1.284   .     A
C75    C76     1.439   .     S
C76    C100    1.420   .     A
C76    C103    1.422   .     A
C77    H109    1.080   .     S
C77    N122    1.365   .     A
C77    C524    1.411   1_545 S
C78    H110    1.081   .     S
C78    N121    1.365   .     A
C78    C301    1.411   .     S
C79    H111    1.080   .     S
C79    N122    1.365   .     A
C79    C522    1.411   1_545 S
C80    H112    1.081   .     S
C80    N121    1.365   .     A
C80    C299    1.411   .     S
C81    O138    1.284   .     A
C81    O141    1.284   .     A
C81    C87     1.439   .     S
C82    O140    1.284   .     A
C82    O139    1.284   .     A
C82    C85     1.439   .     S
C83    C94     1.383   .     A
C83    C85     1.399   .     A
C83    H105    1.085   .     S
C84    C95     1.383   .     A
C84    C87     1.399   .     A
C84    H113    1.085   .     S
C85    C88     1.399   .     A
C86    O136    1.279   .     A
C86    C104    1.427   .     S
C86    O134    1.280   .     A
C87    C89     1.399   .     A
C88    H118    1.085   .     S
C88    C90     1.383   .     A
C89    C91     1.383   .     A
C89    H119    1.085   .     S
C90    C96     1.400   .     A
C90    C92     1.411   .     A
C91    C98     1.400   .     A
C91    C93     1.411   .     A
C92    C94     1.411   .     A
C92    C759    1.391   .     S
C93    C95     1.411   .     A
C93    C758    1.391   1_554 S
C94    C99     1.400   .     A
C95    C97     1.400   .     A
C96    H114    1.084   .     S
C96    C763    1.389   .     S
C97    H116    1.084   .     S
C97    C762    1.389   1_554 S
C98    H115    1.084   .     S
C98    C765    1.389   1_554 S
C99    H117    1.084   .     S
C99    C764    1.389   .     S
C100   S143    1.788   .     S
C101   C104    1.410   .     A
C101   S144    1.788   .     S
C101   C177    1.381   .     S
C102   C104    1.409   .     A
C102   S145    1.786   .     S
C102   C174    1.380   .     S
C103   S146    1.789   .     S
H106   O128    0.991   .     S
H107   O131    0.990   .     S
H108   O135    0.991   .     S
H120   O125    0.990   .     S
N121   Zn147   2.000   .     S
N122   Zn148   2.000   .     S
O123   Zn147   2.017   .     S
O124   S143    1.503   .     D
O125   S143    1.683   .     S
O126   S144    1.503   .     D
O127   S144    1.503   .     D
O128   S144    1.682   .     S
O129   S145    1.503   .     D
O130   S145    1.503   .     D
O131   S145    1.682   .     S
O132   S146    1.503   .     D
O133   S146    1.502   .     D
O134   Zn148   2.017   .     S
O135   S146    1.683   .     S
O136   Zn147   2.015   .     S
O137   Zn148   2.015   .     S
O138   Zn147   2.019   .     S
O139   Zn148   2.019   .     S
O140   Zn147   2.019   .     S
O141   Zn148   2.019   .     S
O142   S143    1.503   .     D
C149   O197    1.283   .     A
C149   O211    1.284   .     A
C149   C150    1.439   .     S
C150   C174    1.420   .     A
C150   C177    1.422   .     A
C151   H183    1.080   .     S
C151   N196    1.365   .     A
C151   C598    1.411   1_545 S
C152   H184    1.081   .     S
C152   N195    1.365   .     A
C152   C375    1.411   .     S
C153   H185    1.080   .     S
C153   N196    1.365   .     A
C153   C596    1.411   1_545 S
C154   H186    1.081   .     S
C154   N195    1.365   .     A
C154   C373    1.411   .     S
C155   O212    1.284   .     A
C155   O215    1.284   .     A
C155   C161    1.439   .     S
C156   O214    1.284   .     A
C156   O213    1.284   .     A
C156   C159    1.439   .     S
C157   C168    1.383   .     A
C157   C159    1.399   .     A
C157   H179    1.085   .     S
C158   C169    1.383   .     A
C158   C161    1.399   .     A
C158   H187    1.085   .     S
C159   C162    1.399   .     A
C160   O210    1.279   .     A
C160   C178    1.427   .     S
C160   O208    1.280   .     A
C161   C163    1.399   .     A
C162   H192    1.085   .     S
C162   C164    1.383   .     A
C163   C165    1.383   .     A
C163   H193    1.085   .     S
C164   C170    1.400   .     A
C164   C166    1.411   .     A
C165   C172    1.400   .     A
C165   C167    1.411   .     A
C166   C168    1.411   .     A
C166   C833    1.391   .     S
C167   C169    1.411   .     A
C167   C832    1.391   1_554 S
C168   C173    1.400   .     A
C169   C171    1.400   .     A
C170   H188    1.084   .     S
C170   C837    1.389   .     S
C171   H190    1.084   .     S
C171   C836    1.389   1_554 S
C172   H189    1.084   .     S
C172   C839    1.389   1_554 S
C173   H191    1.084   .     S
C173   C838    1.389   .     S
C174   S217    1.788   .     S
C175   C178    1.410   .     A
C175   S218    1.788   .     S
C175   C29     1.381   1_655 S
C176   C178    1.409   .     A
C176   S219    1.786   .     S
C176   C26     1.380   1_655 S
C177   S220    1.789   .     S
H180   O202    0.991   .     S
H181   O205    0.990   .     S
H182   O209    0.991   .     S
H194   O199    0.990   .     S
N195   Zn221   2.000   .     S
N196   Zn222   2.000   .     S
O197   Zn221   2.017   .     S
O198   S217    1.503   .     D
O199   S217    1.683   .     S
O200   S218    1.503   .     D
O201   S218    1.503   .     D
O202   S218    1.682   .     S
O203   S219    1.503   .     D
O204   S219    1.503   .     D
O205   S219    1.682   .     S
O206   S220    1.503   .     D
O207   S220    1.502   .     D
O208   Zn222   2.017   .     S
O209   S220    1.683   .     S
O210   Zn221   2.015   .     S
O211   Zn222   2.015   .     S
O212   Zn221   2.019   .     S
O213   Zn222   2.019   .     S
O214   Zn221   2.019   .     S
O215   Zn222   2.019   .     S
O216   S217    1.503   .     D
C223   O271    1.283   .     A
C223   O285    1.284   .     A
C223   C224    1.439   .     S
C224   C248    1.420   .     A
C224   C251    1.422   .     A
C225   H257    1.080   .     S
C225   N270    1.365   .     A
C226   H258    1.081   .     S
C226   N269    1.365   .     A
C226   C449    1.411   .     S
C227   H259    1.080   .     S
C227   N270    1.365   .     A
C228   H260    1.081   .     S
C228   N269    1.365   .     A
C228   C447    1.411   .     S
C229   O286    1.284   .     A
C229   O289    1.284   .     A
C229   C235    1.439   .     S
C230   O288    1.284   .     A
C230   O287    1.284   .     A
C230   C233    1.439   .     S
C231   C242    1.383   .     A
C231   C233    1.399   .     A
C231   H253    1.085   .     S
C232   C243    1.383   .     A
C232   C235    1.399   .     A
C232   H261    1.085   .     S
C233   C236    1.399   .     A
C234   O284    1.279   .     A
C234   C252    1.427   .     S
C234   O282    1.280   .     A
C235   C237    1.399   .     A
C236   H266    1.085   .     S
C236   C238    1.383   .     A
C237   C239    1.383   .     A
C237   H267    1.085   .     S
C238   C244    1.400   .     A
C238   C240    1.411   .     A
C239   C246    1.400   .     A
C239   C241    1.411   .     A
C240   C242    1.411   .     A
C240   C907    1.391   .     S
C241   C243    1.411   .     A
C241   C906    1.391   1_554 S
C242   C247    1.400   .     A
C243   C245    1.400   .     A
C244   H262    1.084   .     S
C244   C911    1.389   .     S
C245   H264    1.084   .     S
C245   C910    1.389   1_554 S
C246   H263    1.084   .     S
C246   C913    1.389   1_554 S
C247   H265    1.084   .     S
C247   C912    1.389   .     S
C248   S291    1.788   .     S
C248   C398    1.380   1_455 S
C249   C252    1.410   .     A
C249   S292    1.788   .     S
C249   C325    1.381   .     S
C250   C252    1.409   .     A
C250   S293    1.786   .     S
C250   C322    1.380   .     S
C251   S294    1.789   .     S
C251   C397    1.381   1_455 S
H254   O276    0.991   .     S
H255   O279    0.990   .     S
H256   O283    0.991   .     S
H268   O273    0.990   .     S
N269   Zn295   2.000   .     S
N270   Zn296   2.000   .     S
O271   Zn295   2.017   .     S
O272   S291    1.503   .     D
O273   S291    1.683   .     S
O274   S292    1.503   .     D
O275   S292    1.503   .     D
O276   S292    1.682   .     S
O277   S293    1.503   .     D
O278   S293    1.503   .     D
O279   S293    1.682   .     S
O280   S294    1.503   .     D
O281   S294    1.502   .     D
O282   Zn296   2.017   .     S
O283   S294    1.683   .     S
O284   Zn295   2.015   .     S
O285   Zn296   2.015   .     S
O286   Zn295   2.019   .     S
O287   Zn296   2.019   .     S
O288   Zn295   2.019   .     S
O289   Zn296   2.019   .     S
O290   S291    1.503   .     D
C297   O345    1.283   .     A
C297   O359    1.284   .     A
C297   C298    1.439   .     S
C298   C322    1.420   .     A
C298   C325    1.422   .     A
C299   H331    1.080   .     S
C299   N344    1.365   .     A
C300   H332    1.081   .     S
C300   N343    1.365   .     A
C300   C523    1.411   .     S
C301   H333    1.080   .     S
C301   N344    1.365   .     A
C302   H334    1.081   .     S
C302   N343    1.365   .     A
C302   C521    1.411   .     S
C303   O360    1.284   .     A
C303   O363    1.284   .     A
C303   C309    1.439   .     S
C304   O362    1.284   .     A
C304   O361    1.284   .     A
C304   C307    1.439   .     S
C305   C316    1.383   .     A
C305   C307    1.399   .     A
C305   H327    1.085   .     S
C306   C317    1.383   .     A
C306   C309    1.399   .     A
C306   H335    1.085   .     S
C307   C310    1.399   .     A
C308   O358    1.279   .     A
C308   C326    1.427   .     S
C308   O356    1.280   .     A
C309   C311    1.399   .     A
C310   H340    1.085   .     S
C310   C312    1.383   .     A
C311   C313    1.383   .     A
C311   H341    1.085   .     S
C312   C318    1.400   .     A
C312   C314    1.411   .     A
C313   C320    1.400   .     A
C313   C315    1.411   .     A
C314   C316    1.411   .     A
C314   C981    1.391   .     S
C315   C317    1.411   .     A
C315   C980    1.391   1_554 S
C316   C321    1.400   .     A
C317   C319    1.400   .     A
C318   H336    1.084   .     S
C318   C985    1.389   .     S
C319   H338    1.084   .     S
C319   C984    1.389   1_554 S
C320   H337    1.084   .     S
C320   C987    1.389   1_554 S
C321   H339    1.084   .     S
C321   C986    1.389   .     S
C322   S365    1.788   .     S
C323   C326    1.410   .     A
C323   S366    1.788   .     S
C323   C399    1.381   .     S
C324   C326    1.409   .     A
C324   S367    1.786   .     S
C324   C396    1.380   .     S
C325   S368    1.789   .     S
H328   O350    0.991   .     S
H329   O353    0.990   .     S
H330   O357    0.991   .     S
H342   O347    0.990   .     S
N343   Zn369   2.000   .     S
N344   Zn370   2.000   .     S
O345   Zn369   2.017   .     S
O346   S365    1.503   .     D
O347   S365    1.683   .     S
O348   S366    1.503   .     D
O349   S366    1.503   .     D
O350   S366    1.682   .     S
O351   S367    1.503   .     D
O352   S367    1.503   .     D
O353   S367    1.682   .     S
O354   S368    1.503   .     D
O355   S368    1.502   .     D
O356   Zn370   2.017   .     S
O357   S368    1.683   .     S
O358   Zn369   2.015   .     S
O359   Zn370   2.015   .     S
O360   Zn369   2.019   .     S
O361   Zn370   2.019   .     S
O362   Zn369   2.019   .     S
O363   Zn370   2.019   .     S
O364   S365    1.503   .     D
C371   O419    1.283   .     A
C371   O433    1.284   .     A
C371   C372    1.439   .     S
C372   C396    1.420   .     A
C372   C399    1.422   .     A
C373   H405    1.080   .     S
C373   N418    1.365   .     A
C374   H406    1.081   .     S
C374   N417    1.365   .     A
C374   C597    1.411   .     S
C375   H407    1.080   .     S
C375   N418    1.365   .     A
C376   H408    1.081   .     S
C376   N417    1.365   .     A
C376   C595    1.411   .     S
C377   O434    1.284   .     A
C377   O437    1.284   .     A
C377   C383    1.439   .     S
C378   O436    1.284   .     A
C378   O435    1.284   .     A
C378   C381    1.439   .     S
C379   C390    1.383   .     A
C379   C381    1.399   .     A
C379   H401    1.085   .     S
C380   C391    1.383   .     A
C380   C383    1.399   .     A
C380   H409    1.085   .     S
C381   C384    1.399   .     A
C382   O432    1.279   .     A
C382   C400    1.427   .     S
C382   O430    1.280   .     A
C383   C385    1.399   .     A
C384   H414    1.085   .     S
C384   C386    1.383   .     A
C385   C387    1.383   .     A
C385   H415    1.085   .     S
C386   C392    1.400   .     A
C386   C388    1.411   .     A
C387   C394    1.400   .     A
C387   C389    1.411   .     A
C388   C390    1.411   .     A
C388   C1055   1.391   .     S
C389   C391    1.411   .     A
C389   C1054   1.391   1_554 S
C390   C395    1.400   .     A
C391   C393    1.400   .     A
C392   H410    1.084   .     S
C392   C1059   1.389   .     S
C393   H412    1.084   .     S
C393   C1058   1.389   1_554 S
C394   H411    1.084   .     S
C394   C1061   1.389   1_554 S
C395   H413    1.084   .     S
C395   C1060   1.389   .     S
C396   S439    1.788   .     S
C397   C400    1.410   .     A
C397   S440    1.788   .     S
C397   C251    1.381   1_655 S
C398   C400    1.409   .     A
C398   S441    1.786   .     S
C398   C248    1.380   1_655 S
C399   S442    1.789   .     S
H402   O424    0.991   .     S
H403   O427    0.990   .     S
H404   O431    0.991   .     S
H416   O421    0.990   .     S
N417   Zn443   2.000   .     S
N418   Zn444   2.000   .     S
O419   Zn443   2.017   .     S
O420   S439    1.503   .     D
O421   S439    1.683   .     S
O422   S440    1.503   .     D
O423   S440    1.503   .     D
O424   S440    1.682   .     S
O425   S441    1.503   .     D
O426   S441    1.503   .     D
O427   S441    1.682   .     S
O428   S442    1.503   .     D
O429   S442    1.502   .     D
O430   Zn444   2.017   .     S
O431   S442    1.683   .     S
O432   Zn443   2.015   .     S
O433   Zn444   2.015   .     S
O434   Zn443   2.019   .     S
O435   Zn444   2.019   .     S
O436   Zn443   2.019   .     S
O437   Zn444   2.019   .     S
O438   S439    1.503   .     D
C445   O493    1.283   .     A
C445   O507    1.284   .     A
C445   C446    1.439   .     S
C446   C470    1.420   .     A
C446   C473    1.422   .     A
C447   H479    1.080   .     S
C447   N492    1.365   .     A
C448   H480    1.081   .     S
C448   N491    1.365   .     A
C448   C5      1.411   1_565 S
C449   H481    1.080   .     S
C449   N492    1.365   .     A
C450   H482    1.081   .     S
C450   N491    1.365   .     A
C450   C3      1.411   1_565 S
C451   O508    1.284   .     A
C451   O511    1.284   .     A
C451   C457    1.439   .     S
C452   O510    1.284   .     A
C452   O509    1.284   .     A
C452   C455    1.439   .     S
C453   C464    1.383   .     A
C453   C455    1.399   .     A
C453   H475    1.085   .     S
C454   C465    1.383   .     A
C454   C457    1.399   .     A
C454   H483    1.085   .     S
C455   C458    1.399   .     A
C456   O506    1.279   .     A
C456   C474    1.427   .     S
C456   O504    1.280   .     A
C457   C459    1.399   .     A
C458   H488    1.085   .     S
C458   C460    1.383   .     A
C459   C461    1.383   .     A
C459   H489    1.085   .     S
C460   C466    1.400   .     A
C460   C462    1.411   .     A
C461   C468    1.400   .     A
C461   C463    1.411   .     A
C462   C464    1.411   .     A
C462   C1129   1.391   .     S
C463   C465    1.411   .     A
C463   C1128   1.391   1_554 S
C464   C469    1.400   .     A
C465   C467    1.400   .     A
C466   H484    1.084   .     S
C466   C1133   1.389   .     S
C467   H486    1.084   .     S
C467   C1132   1.389   1_554 S
C468   H485    1.084   .     S
C468   C1135   1.389   1_554 S
C469   H487    1.084   .     S
C469   C1134   1.389   .     S
C470   S513    1.788   .     S
C470   C620    1.380   1_455 S
C471   C474    1.410   .     A
C471   S514    1.788   .     S
C471   C547    1.381   .     S
C472   C474    1.409   .     A
C472   S515    1.786   .     S
C472   C544    1.380   .     S
C473   S516    1.789   .     S
C473   C619    1.381   1_455 S
H476   O498    0.991   .     S
H477   O501    0.990   .     S
H478   O505    0.991   .     S
H490   O495    0.990   .     S
N491   Zn517   2.000   .     S
N492   Zn518   2.000   .     S
O493   Zn517   2.017   .     S
O494   S513    1.503   .     D
O495   S513    1.683   .     S
O496   S514    1.503   .     D
O497   S514    1.503   .     D
O498   S514    1.682   .     S
O499   S515    1.503   .     D
O500   S515    1.503   .     D
O501   S515    1.682   .     S
O502   S516    1.503   .     D
O503   S516    1.502   .     D
O504   Zn518   2.017   .     S
O505   S516    1.683   .     S
O506   Zn517   2.015   .     S
O507   Zn518   2.015   .     S
O508   Zn517   2.019   .     S
O509   Zn518   2.019   .     S
O510   Zn517   2.019   .     S
O511   Zn518   2.019   .     S
O512   S513    1.503   .     D
C519   O567    1.283   .     A
C519   O581    1.284   .     A
C519   C520    1.439   .     S
C520   C544    1.420   .     A
C520   C547    1.422   .     A
C521   H553    1.080   .     S
C521   N566    1.365   .     A
C522   H554    1.081   .     S
C522   N565    1.365   .     A
C522   C79     1.411   1_565 S
C523   H555    1.080   .     S
C523   N566    1.365   .     A
C524   H556    1.081   .     S
C524   N565    1.365   .     A
C524   C77     1.411   1_565 S
C525   O582    1.284   .     A
C525   O585    1.284   .     A
C525   C531    1.439   .     S
C526   O584    1.284   .     A
C526   O583    1.284   .     A
C526   C529    1.439   .     S
C527   C538    1.383   .     A
C527   C529    1.399   .     A
C527   H549    1.085   .     S
C528   C539    1.383   .     A
C528   C531    1.399   .     A
C528   H557    1.085   .     S
C529   C532    1.399   .     A
C530   O580    1.279   .     A
C530   C548    1.427   .     S
C530   O578    1.280   .     A
C531   C533    1.399   .     A
C532   H562    1.085   .     S
C532   C534    1.383   .     A
C533   C535    1.383   .     A
C533   H563    1.085   .     S
C534   C540    1.400   .     A
C534   C536    1.411   .     A
C535   C542    1.400   .     A
C535   C537    1.411   .     A
C536   C538    1.411   .     A
C536   C1203   1.391   .     S
C537   C539    1.411   .     A
C537   C1202   1.391   1_554 S
C538   C543    1.400   .     A
C539   C541    1.400   .     A
C540   H558    1.084   .     S
C540   C1207   1.389   .     S
C541   H560    1.084   .     S
C541   C1206   1.389   1_554 S
C542   H559    1.084   .     S
C542   C1209   1.389   1_554 S
C543   H561    1.084   .     S
C543   C1208   1.389   .     S
C544   S587    1.788   .     S
C545   C548    1.410   .     A
C545   S588    1.788   .     S
C545   C621    1.381   .     S
C546   C548    1.409   .     A
C546   S589    1.786   .     S
C546   C618    1.380   .     S
C547   S590    1.789   .     S
H550   O572    0.991   .     S
H551   O575    0.990   .     S
H552   O579    0.991   .     S
H564   O569    0.990   .     S
N565   Zn591   2.000   .     S
N566   Zn592   2.000   .     S
O567   Zn591   2.017   .     S
O568   S587    1.503   .     D
O569   S587    1.683   .     S
O570   S588    1.503   .     D
O571   S588    1.503   .     D
O572   S588    1.682   .     S
O573   S589    1.503   .     D
O574   S589    1.503   .     D
O575   S589    1.682   .     S
O576   S590    1.503   .     D
O577   S590    1.502   .     D
O578   Zn592   2.017   .     S
O579   S590    1.683   .     S
O580   Zn591   2.015   .     S
O581   Zn592   2.015   .     S
O582   Zn591   2.019   .     S
O583   Zn592   2.019   .     S
O584   Zn591   2.019   .     S
O585   Zn592   2.019   .     S
O586   S587    1.503   .     D
C593   O641    1.283   .     A
C593   O655    1.284   .     A
C593   C594    1.439   .     S
C594   C618    1.420   .     A
C594   C621    1.422   .     A
C595   H627    1.080   .     S
C595   N640    1.365   .     A
C596   H628    1.081   .     S
C596   N639    1.365   .     A
C596   C153    1.411   1_565 S
C597   H629    1.080   .     S
C597   N640    1.365   .     A
C598   H630    1.081   .     S
C598   N639    1.365   .     A
C598   C151    1.411   1_565 S
C599   O656    1.284   .     A
C599   O659    1.284   .     A
C599   C605    1.439   .     S
C600   O658    1.284   .     A
C600   O657    1.284   .     A
C600   C603    1.439   .     S
C601   C612    1.383   .     A
C601   C603    1.399   .     A
C601   H623    1.085   .     S
C602   C613    1.383   .     A
C602   C605    1.399   .     A
C602   H631    1.085   .     S
C603   C606    1.399   .     A
C604   O654    1.279   .     A
C604   C622    1.427   .     S
C604   O652    1.280   .     A
C605   C607    1.399   .     A
C606   H636    1.085   .     S
C606   C608    1.383   .     A
C607   C609    1.383   .     A
C607   H637    1.085   .     S
C608   C614    1.400   .     A
C608   C610    1.411   .     A
C609   C616    1.400   .     A
C609   C611    1.411   .     A
C610   C612    1.411   .     A
C610   C1277   1.391   .     S
C611   C613    1.411   .     A
C611   C1276   1.391   1_554 S
C612   C617    1.400   .     A
C613   C615    1.400   .     A
C614   H632    1.084   .     S
C614   C1281   1.389   .     S
C615   H634    1.084   .     S
C615   C1280   1.389   1_554 S
C616   H633    1.084   .     S
C616   C1283   1.389   1_554 S
C617   H635    1.084   .     S
C617   C1282   1.389   .     S
C618   S661    1.788   .     S
C619   C622    1.410   .     A
C619   S662    1.788   .     S
C619   C473    1.381   1_655 S
C620   C622    1.409   .     A
C620   S663    1.786   .     S
C620   C470    1.380   1_655 S
C621   S664    1.789   .     S
H624   O646    0.991   .     S
H625   O649    0.990   .     S
H626   O653    0.991   .     S
H638   O643    0.990   .     S
N639   Zn665   2.000   .     S
N640   Zn666   2.000   .     S
O641   Zn665   2.017   .     S
O642   S661    1.503   .     D
O643   S661    1.683   .     S
O644   S662    1.503   .     D
O645   S662    1.503   .     D
O646   S662    1.682   .     S
O647   S663    1.503   .     D
O648   S663    1.503   .     D
O649   S663    1.682   .     S
O650   S664    1.503   .     D
O651   S664    1.502   .     D
O652   Zn666   2.017   .     S
O653   S664    1.683   .     S
O654   Zn665   2.015   .     S
O655   Zn666   2.015   .     S
O656   Zn665   2.019   .     S
O657   Zn666   2.019   .     S
O658   Zn665   2.019   .     S
O659   Zn666   2.019   .     S
O660   S661    1.503   .     D
C667   O715    1.283   .     A
C667   O729    1.284   .     A
C667   C668    1.439   .     S
C668   C692    1.420   .     A
C668   C695    1.422   .     A
C669   H701    1.080   .     S
C669   N714    1.365   .     A
C669   C1116   1.411   1_545 S
C670   H702    1.081   .     S
C670   N713    1.365   .     A
C670   C893    1.411   .     S
C671   H703    1.080   .     S
C671   N714    1.365   .     A
C671   C1114   1.411   1_545 S
C672   H704    1.081   .     S
C672   N713    1.365   .     A
C672   C891    1.411   .     S
C673   O730    1.284   .     A
C673   O733    1.284   .     A
C673   C679    1.439   .     S
C674   O732    1.284   .     A
C674   O731    1.284   .     A
C674   C677    1.439   .     S
C675   C686    1.383   .     A
C675   C677    1.399   .     A
C675   H697    1.085   .     S
C676   C687    1.383   .     A
C676   C679    1.399   .     A
C676   H705    1.085   .     S
C677   C680    1.399   .     A
C678   O728    1.279   .     A
C678   C696    1.427   .     S
C678   O726    1.280   .     A
C679   C681    1.399   .     A
C680   H710    1.085   .     S
C680   C682    1.383   .     A
C681   C683    1.383   .     A
C681   H711    1.085   .     S
C682   C688    1.400   .     A
C682   C684    1.411   .     A
C683   C690    1.400   .     A
C683   C685    1.411   .     A
C684   C686    1.411   .     A
C684   C19     1.391   1_556 S
C685   C687    1.411   .     A
C686   C691    1.400   .     A
C687   C689    1.400   .     A
C688   H706    1.084   .     S
C688   C23     1.389   1_556 S
C689   H708    1.084   .     S
C690   H707    1.084   .     S
C691   H709    1.084   .     S
C691   C24     1.389   1_556 S
C692   S735    1.788   .     S
C692   C842    1.380   1_455 S
C693   C696    1.410   .     A
C693   S736    1.788   .     S
C693   C769    1.381   .     S
C694   C696    1.409   .     A
C694   S737    1.786   .     S
C694   C766    1.380   .     S
C695   S738    1.789   .     S
C695   C841    1.381   1_455 S
H698   O720    0.991   .     S
H699   O723    0.990   .     S
H700   O727    0.991   .     S
H712   O717    0.990   .     S
N713   Zn739   2.000   .     S
N714   Zn740   2.000   .     S
O715   Zn739   2.017   .     S
O716   S735    1.503   .     D
O717   S735    1.683   .     S
O718   S736    1.503   .     D
O719   S736    1.503   .     D
O720   S736    1.682   .     S
O721   S737    1.503   .     D
O722   S737    1.503   .     D
O723   S737    1.682   .     S
O724   S738    1.503   .     D
O725   S738    1.502   .     D
O726   Zn740   2.017   .     S
O727   S738    1.683   .     S
O728   Zn739   2.015   .     S
O729   Zn740   2.015   .     S
O730   Zn739   2.019   .     S
O731   Zn740   2.019   .     S
O732   Zn739   2.019   .     S
O733   Zn740   2.019   .     S
O734   S735    1.503   .     D
C741   O789    1.283   .     A
C741   O803    1.284   .     A
C741   C742    1.439   .     S
C742   C766    1.420   .     A
C742   C769    1.422   .     A
C743   H775    1.080   .     S
C743   N788    1.365   .     A
C743   C1190   1.411   1_545 S
C744   H776    1.081   .     S
C744   N787    1.365   .     A
C744   C967    1.411   .     S
C745   H777    1.080   .     S
C745   N788    1.365   .     A
C745   C1188   1.411   1_545 S
C746   H778    1.081   .     S
C746   N787    1.365   .     A
C746   C965    1.411   .     S
C747   O804    1.284   .     A
C747   O807    1.284   .     A
C747   C753    1.439   .     S
C748   O806    1.284   .     A
C748   O805    1.284   .     A
C748   C751    1.439   .     S
C749   C760    1.383   .     A
C749   C751    1.399   .     A
C749   H771    1.085   .     S
C750   C761    1.383   .     A
C750   C753    1.399   .     A
C750   H779    1.085   .     S
C751   C754    1.399   .     A
C752   O802    1.279   .     A
C752   C770    1.427   .     S
C752   O800    1.280   .     A
C753   C755    1.399   .     A
C754   H784    1.085   .     S
C754   C756    1.383   .     A
C755   C757    1.383   .     A
C755   H785    1.085   .     S
C756   C762    1.400   .     A
C756   C758    1.411   .     A
C757   C764    1.400   .     A
C757   C759    1.411   .     A
C758   C760    1.411   .     A
C758   C93     1.391   1_556 S
C759   C761    1.411   .     A
C760   C765    1.400   .     A
C761   C763    1.400   .     A
C762   H780    1.084   .     S
C762   C97     1.389   1_556 S
C763   H782    1.084   .     S
C764   H781    1.084   .     S
C765   H783    1.084   .     S
C765   C98     1.389   1_556 S
C766   S809    1.788   .     S
C767   C770    1.410   .     A
C767   S810    1.788   .     S
C767   C843    1.381   .     S
C768   C770    1.409   .     A
C768   S811    1.786   .     S
C768   C840    1.380   .     S
C769   S812    1.789   .     S
H772   O794    0.991   .     S
H773   O797    0.990   .     S
H774   O801    0.991   .     S
H786   O791    0.990   .     S
N787   Zn813   2.000   .     S
N788   Zn814   2.000   .     S
O789   Zn813   2.017   .     S
O790   S809    1.503   .     D
O791   S809    1.683   .     S
O792   S810    1.503   .     D
O793   S810    1.503   .     D
O794   S810    1.682   .     S
O795   S811    1.503   .     D
O796   S811    1.503   .     D
O797   S811    1.682   .     S
O798   S812    1.503   .     D
O799   S812    1.502   .     D
O800   Zn814   2.017   .     S
O801   S812    1.683   .     S
O802   Zn813   2.015   .     S
O803   Zn814   2.015   .     S
O804   Zn813   2.019   .     S
O805   Zn814   2.019   .     S
O806   Zn813   2.019   .     S
O807   Zn814   2.019   .     S
O808   S809    1.503   .     D
C815   O863    1.283   .     A
C815   O877    1.284   .     A
C815   C816    1.439   .     S
C816   C840    1.420   .     A
C816   C843    1.422   .     A
C817   H849    1.080   .     S
C817   N862    1.365   .     A
C817   C1264   1.411   1_545 S
C818   H850    1.081   .     S
C818   N861    1.365   .     A
C818   C1041   1.411   .     S
C819   H851    1.080   .     S
C819   N862    1.365   .     A
C819   C1262   1.411   1_545 S
C820   H852    1.081   .     S
C820   N861    1.365   .     A
C820   C1039   1.411   .     S
C821   O878    1.284   .     A
C821   O881    1.284   .     A
C821   C827    1.439   .     S
C822   O880    1.284   .     A
C822   O879    1.284   .     A
C822   C825    1.439   .     S
C823   C834    1.383   .     A
C823   C825    1.399   .     A
C823   H845    1.085   .     S
C824   C835    1.383   .     A
C824   C827    1.399   .     A
C824   H853    1.085   .     S
C825   C828    1.399   .     A
C826   O876    1.279   .     A
C826   C844    1.427   .     S
C826   O874    1.280   .     A
C827   C829    1.399   .     A
C828   H858    1.085   .     S
C828   C830    1.383   .     A
C829   C831    1.383   .     A
C829   H859    1.085   .     S
C830   C836    1.400   .     A
C830   C832    1.411   .     A
C831   C838    1.400   .     A
C831   C833    1.411   .     A
C832   C834    1.411   .     A
C832   C167    1.391   1_556 S
C833   C835    1.411   .     A
C834   C839    1.400   .     A
C835   C837    1.400   .     A
C836   H854    1.084   .     S
C836   C171    1.389   1_556 S
C837   H856    1.084   .     S
C838   H855    1.084   .     S
C839   H857    1.084   .     S
C839   C172    1.389   1_556 S
C840   S883    1.788   .     S
C841   C844    1.410   .     A
C841   S884    1.788   .     S
C841   C695    1.381   1_655 S
C842   C844    1.409   .     A
C842   S885    1.786   .     S
C842   C692    1.380   1_655 S
C843   S886    1.789   .     S
H846   O868    0.991   .     S
H847   O871    0.990   .     S
H848   O875    0.991   .     S
H860   O865    0.990   .     S
N861   Zn887   2.000   .     S
N862   Zn888   2.000   .     S
O863   Zn887   2.017   .     S
O864   S883    1.503   .     D
O865   S883    1.683   .     S
O866   S884    1.503   .     D
O867   S884    1.503   .     D
O868   S884    1.682   .     S
O869   S885    1.503   .     D
O870   S885    1.503   .     D
O871   S885    1.682   .     S
O872   S886    1.503   .     D
O873   S886    1.502   .     D
O874   Zn888   2.017   .     S
O875   S886    1.683   .     S
O876   Zn887   2.015   .     S
O877   Zn888   2.015   .     S
O878   Zn887   2.019   .     S
O879   Zn888   2.019   .     S
O880   Zn887   2.019   .     S
O881   Zn888   2.019   .     S
O882   S883    1.503   .     D
C889   O937    1.283   .     A
C889   O951    1.284   .     A
C889   C890    1.439   .     S
C890   C914    1.420   .     A
C890   C917    1.422   .     A
C891   H923    1.080   .     S
C891   N936    1.365   .     A
C892   H924    1.081   .     S
C892   N935    1.365   .     A
C892   C1115   1.411   .     S
C893   H925    1.080   .     S
C893   N936    1.365   .     A
C894   H926    1.081   .     S
C894   N935    1.365   .     A
C894   C1113   1.411   .     S
C895   O952    1.284   .     A
C895   O955    1.284   .     A
C895   C901    1.439   .     S
C896   O954    1.284   .     A
C896   O953    1.284   .     A
C896   C899    1.439   .     S
C897   C908    1.383   .     A
C897   C899    1.399   .     A
C897   H919    1.085   .     S
C898   C909    1.383   .     A
C898   C901    1.399   .     A
C898   H927    1.085   .     S
C899   C902    1.399   .     A
C900   O950    1.279   .     A
C900   C918    1.427   .     S
C900   O948    1.280   .     A
C901   C903    1.399   .     A
C902   H932    1.085   .     S
C902   C904    1.383   .     A
C903   C905    1.383   .     A
C903   H933    1.085   .     S
C904   C910    1.400   .     A
C904   C906    1.411   .     A
C905   C912    1.400   .     A
C905   C907    1.411   .     A
C906   C908    1.411   .     A
C906   C241    1.391   1_556 S
C907   C909    1.411   .     A
C908   C913    1.400   .     A
C909   C911    1.400   .     A
C910   H928    1.084   .     S
C910   C245    1.389   1_556 S
C911   H930    1.084   .     S
C912   H929    1.084   .     S
C913   H931    1.084   .     S
C913   C246    1.389   1_556 S
C914   S957    1.788   .     S
C914   C1064   1.380   1_455 S
C915   C918    1.410   .     A
C915   S958    1.788   .     S
C915   C991    1.381   .     S
C916   C918    1.409   .     A
C916   S959    1.786   .     S
C916   C988    1.380   .     S
C917   S960    1.789   .     S
C917   C1063   1.381   1_455 S
H920   O942    0.991   .     S
H921   O945    0.990   .     S
H922   O949    0.991   .     S
H934   O939    0.990   .     S
N935   Zn961   2.000   .     S
N936   Zn962   2.000   .     S
O937   Zn961   2.017   .     S
O938   S957    1.503   .     D
O939   S957    1.683   .     S
O940   S958    1.503   .     D
O941   S958    1.503   .     D
O942   S958    1.682   .     S
O943   S959    1.503   .     D
O944   S959    1.503   .     D
O945   S959    1.682   .     S
O946   S960    1.503   .     D
O947   S960    1.502   .     D
O948   Zn962   2.017   .     S
O949   S960    1.683   .     S
O950   Zn961   2.015   .     S
O951   Zn962   2.015   .     S
O952   Zn961   2.019   .     S
O953   Zn962   2.019   .     S
O954   Zn961   2.019   .     S
O955   Zn962   2.019   .     S
O956   S957    1.503   .     D
C963   O1011   1.283   .     A
C963   O1025   1.284   .     A
C963   C964    1.439   .     S
C964   C988    1.420   .     A
C964   C991    1.422   .     A
C965   H997    1.080   .     S
C965   N1010   1.365   .     A
C966   H998    1.081   .     S
C966   N1009   1.365   .     A
C966   C1189   1.411   .     S
C967   H999    1.080   .     S
C967   N1010   1.365   .     A
C968   H1000   1.081   .     S
C968   N1009   1.365   .     A
C968   C1187   1.411   .     S
C969   O1026   1.284   .     A
C969   O1029   1.284   .     A
C969   C975    1.439   .     S
C970   O1028   1.284   .     A
C970   O1027   1.284   .     A
C970   C973    1.439   .     S
C971   C982    1.383   .     A
C971   C973    1.399   .     A
C971   H993    1.085   .     S
C972   C983    1.383   .     A
C972   C975    1.399   .     A
C972   H1001   1.085   .     S
C973   C976    1.399   .     A
C974   O1024   1.279   .     A
C974   C992    1.427   .     S
C974   O1022   1.280   .     A
C975   C977    1.399   .     A
C976   H1006   1.085   .     S
C976   C978    1.383   .     A
C977   C979    1.383   .     A
C977   H1007   1.085   .     S
C978   C984    1.400   .     A
C978   C980    1.411   .     A
C979   C986    1.400   .     A
C979   C981    1.411   .     A
C980   C982    1.411   .     A
C980   C315    1.391   1_556 S
C981   C983    1.411   .     A
C982   C987    1.400   .     A
C983   C985    1.400   .     A
C984   H1002   1.084   .     S
C984   C319    1.389   1_556 S
C985   H1004   1.084   .     S
C986   H1003   1.084   .     S
C987   H1005   1.084   .     S
C987   C320    1.389   1_556 S
C988   S1031   1.788   .     S
C989   C992    1.410   .     A
C989   S1032   1.788   .     S
C989   C1065   1.381   .     S
C990   C992    1.409   .     A
C990   S1033   1.786   .     S
C990   C1062   1.380   .     S
C991   S1034   1.789   .     S
H994   O1016   0.991   .     S
H995   O1019   0.990   .     S
H996   O1023   0.991   .     S
H1008  O1013   0.990   .     S
N1009  Zn1035  2.000   .     S
N1010  Zn1036  2.000   .     S
O1011  Zn1035  2.017   .     S
O1012  S1031   1.503   .     D
O1013  S1031   1.683   .     S
O1014  S1032   1.503   .     D
O1015  S1032   1.503   .     D
O1016  S1032   1.682   .     S
O1017  S1033   1.503   .     D
O1018  S1033   1.503   .     D
O1019  S1033   1.682   .     S
O1020  S1034   1.503   .     D
O1021  S1034   1.502   .     D
O1022  Zn1036  2.017   .     S
O1023  S1034   1.683   .     S
O1024  Zn1035  2.015   .     S
O1025  Zn1036  2.015   .     S
O1026  Zn1035  2.019   .     S
O1027  Zn1036  2.019   .     S
O1028  Zn1035  2.019   .     S
O1029  Zn1036  2.019   .     S
O1030  S1031   1.503   .     D
C1037  O1085   1.283   .     A
C1037  O1099   1.284   .     A
C1037  C1038   1.439   .     S
C1038  C1062   1.420   .     A
C1038  C1065   1.422   .     A
C1039  H1071   1.080   .     S
C1039  N1084   1.365   .     A
C1040  H1072   1.081   .     S
C1040  N1083   1.365   .     A
C1040  C1263   1.411   .     S
C1041  H1073   1.080   .     S
C1041  N1084   1.365   .     A
C1042  H1074   1.081   .     S
C1042  N1083   1.365   .     A
C1042  C1261   1.411   .     S
C1043  O1100   1.284   .     A
C1043  O1103   1.284   .     A
C1043  C1049   1.439   .     S
C1044  O1102   1.284   .     A
C1044  O1101   1.284   .     A
C1044  C1047   1.439   .     S
C1045  C1056   1.383   .     A
C1045  C1047   1.399   .     A
C1045  H1067   1.085   .     S
C1046  C1057   1.383   .     A
C1046  C1049   1.399   .     A
C1046  H1075   1.085   .     S
C1047  C1050   1.399   .     A
C1048  O1098   1.279   .     A
C1048  C1066   1.427   .     S
C1048  O1096   1.280   .     A
C1049  C1051   1.399   .     A
C1050  H1080   1.085   .     S
C1050  C1052   1.383   .     A
C1051  C1053   1.383   .     A
C1051  H1081   1.085   .     S
C1052  C1058   1.400   .     A
C1052  C1054   1.411   .     A
C1053  C1060   1.400   .     A
C1053  C1055   1.411   .     A
C1054  C1056   1.411   .     A
C1054  C389    1.391   1_556 S
C1055  C1057   1.411   .     A
C1056  C1061   1.400   .     A
C1057  C1059   1.400   .     A
C1058  H1076   1.084   .     S
C1058  C393    1.389   1_556 S
C1059  H1078   1.084   .     S
C1060  H1077   1.084   .     S
C1061  H1079   1.084   .     S
C1061  C394    1.389   1_556 S
C1062  S1105   1.788   .     S
C1063  C1066   1.410   .     A
C1063  S1106   1.788   .     S
C1063  C917    1.381   1_655 S
C1064  C1066   1.409   .     A
C1064  S1107   1.786   .     S
C1064  C914    1.380   1_655 S
C1065  S1108   1.789   .     S
H1068  O1090   0.991   .     S
H1069  O1093   0.990   .     S
H1070  O1097   0.991   .     S
H1082  O1087   0.990   .     S
N1083  Zn1109  2.000   .     S
N1084  Zn1110  2.000   .     S
O1085  Zn1109  2.017   .     S
O1086  S1105   1.503   .     D
O1087  S1105   1.683   .     S
O1088  S1106   1.503   .     D
O1089  S1106   1.503   .     D
O1090  S1106   1.682   .     S
O1091  S1107   1.503   .     D
O1092  S1107   1.503   .     D
O1093  S1107   1.682   .     S
O1094  S1108   1.503   .     D
O1095  S1108   1.502   .     D
O1096  Zn1110  2.017   .     S
O1097  S1108   1.683   .     S
O1098  Zn1109  2.015   .     S
O1099  Zn1110  2.015   .     S
O1100  Zn1109  2.019   .     S
O1101  Zn1110  2.019   .     S
O1102  Zn1109  2.019   .     S
O1103  Zn1110  2.019   .     S
O1104  S1105   1.503   .     D
C1111  O1159   1.283   .     A
C1111  O1173   1.284   .     A
C1111  C1112   1.439   .     S
C1112  C1136   1.420   .     A
C1112  C1139   1.422   .     A
C1113  H1145   1.080   .     S
C1113  N1158   1.365   .     A
C1114  H1146   1.081   .     S
C1114  N1157   1.365   .     A
C1114  C671    1.411   1_565 S
C1115  H1147   1.080   .     S
C1115  N1158   1.365   .     A
C1116  H1148   1.081   .     S
C1116  N1157   1.365   .     A
C1116  C669    1.411   1_565 S
C1117  O1174   1.284   .     A
C1117  O1177   1.284   .     A
C1117  C1123   1.439   .     S
C1118  O1176   1.284   .     A
C1118  O1175   1.284   .     A
C1118  C1121   1.439   .     S
C1119  C1130   1.383   .     A
C1119  C1121   1.399   .     A
C1119  H1141   1.085   .     S
C1120  C1131   1.383   .     A
C1120  C1123   1.399   .     A
C1120  H1149   1.085   .     S
C1121  C1124   1.399   .     A
C1122  O1172   1.279   .     A
C1122  C1140   1.427   .     S
C1122  O1170   1.280   .     A
C1123  C1125   1.399   .     A
C1124  H1154   1.085   .     S
C1124  C1126   1.383   .     A
C1125  C1127   1.383   .     A
C1125  H1155   1.085   .     S
C1126  C1132   1.400   .     A
C1126  C1128   1.411   .     A
C1127  C1134   1.400   .     A
C1127  C1129   1.411   .     A
C1128  C1130   1.411   .     A
C1128  C463    1.391   1_556 S
C1129  C1131   1.411   .     A
C1130  C1135   1.400   .     A
C1131  C1133   1.400   .     A
C1132  H1150   1.084   .     S
C1132  C467    1.389   1_556 S
C1133  H1152   1.084   .     S
C1134  H1151   1.084   .     S
C1135  H1153   1.084   .     S
C1135  C468    1.389   1_556 S
C1136  S1179   1.788   .     S
C1136  C1286   1.380   1_455 S
C1137  C1140   1.410   .     A
C1137  S1180   1.788   .     S
C1137  C1213   1.381   .     S
C1138  C1140   1.409   .     A
C1138  S1181   1.786   .     S
C1138  C1210   1.380   .     S
C1139  S1182   1.789   .     S
C1139  C1285   1.381   1_455 S
H1142  O1164   0.991   .     S
H1143  O1167   0.990   .     S
H1144  O1171   0.991   .     S
H1156  O1161   0.990   .     S
N1157  Zn1183  2.000   .     S
N1158  Zn1184  2.000   .     S
O1159  Zn1183  2.017   .     S
O1160  S1179   1.503   .     D
O1161  S1179   1.683   .     S
O1162  S1180   1.503   .     D
O1163  S1180   1.503   .     D
O1164  S1180   1.682   .     S
O1165  S1181   1.503   .     D
O1166  S1181   1.503   .     D
O1167  S1181   1.682   .     S
O1168  S1182   1.503   .     D
O1169  S1182   1.502   .     D
O1170  Zn1184  2.017   .     S
O1171  S1182   1.683   .     S
O1172  Zn1183  2.015   .     S
O1173  Zn1184  2.015   .     S
O1174  Zn1183  2.019   .     S
O1175  Zn1184  2.019   .     S
O1176  Zn1183  2.019   .     S
O1177  Zn1184  2.019   .     S
O1178  S1179   1.503   .     D
C1185  O1233   1.283   .     A
C1185  O1247   1.284   .     A
C1185  C1186   1.439   .     S
C1186  C1210   1.420   .     A
C1186  C1213   1.422   .     A
C1187  H1219   1.080   .     S
C1187  N1232   1.365   .     A
C1188  H1220   1.081   .     S
C1188  N1231   1.365   .     A
C1188  C745    1.411   1_565 S
C1189  H1221   1.080   .     S
C1189  N1232   1.365   .     A
C1190  H1222   1.081   .     S
C1190  N1231   1.365   .     A
C1190  C743    1.411   1_565 S
C1191  O1248   1.284   .     A
C1191  O1251   1.284   .     A
C1191  C1197   1.439   .     S
C1192  O1250   1.284   .     A
C1192  O1249   1.284   .     A
C1192  C1195   1.439   .     S
C1193  C1204   1.383   .     A
C1193  C1195   1.399   .     A
C1193  H1215   1.085   .     S
C1194  C1205   1.383   .     A
C1194  C1197   1.399   .     A
C1194  H1223   1.085   .     S
C1195  C1198   1.399   .     A
C1196  O1246   1.279   .     A
C1196  C1214   1.427   .     S
C1196  O1244   1.280   .     A
C1197  C1199   1.399   .     A
C1198  H1228   1.085   .     S
C1198  C1200   1.383   .     A
C1199  C1201   1.383   .     A
C1199  H1229   1.085   .     S
C1200  C1206   1.400   .     A
C1200  C1202   1.411   .     A
C1201  C1208   1.400   .     A
C1201  C1203   1.411   .     A
C1202  C1204   1.411   .     A
C1202  C537    1.391   1_556 S
C1203  C1205   1.411   .     A
C1204  C1209   1.400   .     A
C1205  C1207   1.400   .     A
C1206  H1224   1.084   .     S
C1206  C541    1.389   1_556 S
C1207  H1226   1.084   .     S
C1208  H1225   1.084   .     S
C1209  H1227   1.084   .     S
C1209  C542    1.389   1_556 S
C1210  S1253   1.788   .     S
C1211  C1214   1.410   .     A
C1211  S1254   1.788   .     S
C1211  C1287   1.381   .     S
C1212  C1214   1.409   .     A
C1212  S1255   1.786   .     S
C1212  C1284   1.380   .     S
C1213  S1256   1.789   .     S
H1216  O1238   0.991   .     S
H1217  O1241   0.990   .     S
H1218  O1245   0.991   .     S
H1230  O1235   0.990   .     S
N1231  Zn1257  2.000   .     S
N1232  Zn1258  2.000   .     S
O1233  Zn1257  2.017   .     S
O1234  S1253   1.503   .     D
O1235  S1253   1.683   .     S
O1236  S1254   1.503   .     D
O1237  S1254   1.503   .     D
O1238  S1254   1.682   .     S
O1239  S1255   1.503   .     D
O1240  S1255   1.503   .     D
O1241  S1255   1.682   .     S
O1242  S1256   1.503   .     D
O1243  S1256   1.502   .     D
O1244  Zn1258  2.017   .     S
O1245  S1256   1.683   .     S
O1246  Zn1257  2.015   .     S
O1247  Zn1258  2.015   .     S
O1248  Zn1257  2.019   .     S
O1249  Zn1258  2.019   .     S
O1250  Zn1257  2.019   .     S
O1251  Zn1258  2.019   .     S
O1252  S1253   1.503   .     D
C1259  O1307   1.283   .     A
C1259  O1321   1.284   .     A
C1259  C1260   1.439   .     S
C1260  C1284   1.420   .     A
C1260  C1287   1.422   .     A
C1261  H1293   1.080   .     S
C1261  N1306   1.365   .     A
C1262  H1294   1.081   .     S
C1262  N1305   1.365   .     A
C1262  C819    1.411   1_565 S
C1263  H1295   1.080   .     S
C1263  N1306   1.365   .     A
C1264  H1296   1.081   .     S
C1264  N1305   1.365   .     A
C1264  C817    1.411   1_565 S
C1265  O1322   1.284   .     A
C1265  O1325   1.284   .     A
C1265  C1271   1.439   .     S
C1266  O1324   1.284   .     A
C1266  O1323   1.284   .     A
C1266  C1269   1.439   .     S
C1267  C1278   1.383   .     A
C1267  C1269   1.399   .     A
C1267  H1289   1.085   .     S
C1268  C1279   1.383   .     A
C1268  C1271   1.399   .     A
C1268  H1297   1.085   .     S
C1269  C1272   1.399   .     A
C1270  O1320   1.279   .     A
C1270  C1288   1.427   .     S
C1270  O1318   1.280   .     A
C1271  C1273   1.399   .     A
C1272  H1302   1.085   .     S
C1272  C1274   1.383   .     A
C1273  C1275   1.383   .     A
C1273  H1303   1.085   .     S
C1274  C1280   1.400   .     A
C1274  C1276   1.411   .     A
C1275  C1282   1.400   .     A
C1275  C1277   1.411   .     A
C1276  C1278   1.411   .     A
C1276  C611    1.391   1_556 S
C1277  C1279   1.411   .     A
C1278  C1283   1.400   .     A
C1279  C1281   1.400   .     A
C1280  H1298   1.084   .     S
C1280  C615    1.389   1_556 S
C1281  H1300   1.084   .     S
C1282  H1299   1.084   .     S
C1283  H1301   1.084   .     S
C1283  C616    1.389   1_556 S
C1284  S1327   1.788   .     S
C1285  C1288   1.410   .     A
C1285  S1328   1.788   .     S
C1285  C1139   1.381   1_655 S
C1286  C1288   1.409   .     A
C1286  S1329   1.786   .     S
C1286  C1136   1.380   1_655 S
C1287  S1330   1.789   .     S
H1290  O1312   0.991   .     S
H1291  O1315   0.990   .     S
H1292  O1319   0.991   .     S
H1304  O1309   0.990   .     S
N1305  Zn1331  2.000   .     S
N1306  Zn1332  2.000   .     S
O1307  Zn1331  2.017   .     S
O1308  S1327   1.503   .     D
O1309  S1327   1.683   .     S
O1310  S1328   1.503   .     D
O1311  S1328   1.503   .     D
O1312  S1328   1.682   .     S
O1313  S1329   1.503   .     D
O1314  S1329   1.503   .     D
O1315  S1329   1.682   .     S
O1316  S1330   1.503   .     D
O1317  S1330   1.502   .     D
O1318  Zn1332  2.017   .     S
O1319  S1330   1.683   .     S
O1320  Zn1331  2.015   .     S
O1321  Zn1332  2.015   .     S
O1322  Zn1331  2.019   .     S
O1323  Zn1332  2.019   .     S
O1324  Zn1331  2.019   .     S
O1325  Zn1332  2.019   .     S
O1326  S1327   1.503   .     D
