data_str_m1_o10_o16_pcu_sym.97
_audit_creation_date              2020-01-03
_audit_creation_method            'Materials Studio'
_symmetry_space_group_name_H-M    'P1'
_symmetry_Int_Tables_number       1
_symmetry_cell_setting            triclinic
loop_
_symmetry_equiv_pos_as_xyz
  x,y,z
_cell_length_a                    32.5126
_cell_length_b                    32.5486
_cell_length_c                    31.2367
_cell_angle_alpha                 96.0260
_cell_angle_beta                  74.4368
_cell_angle_gamma                 98.5606
loop_
_atom_site_label
_atom_site_type_symbol
_atom_site_fract_x
_atom_site_fract_y
_atom_site_fract_z
_atom_site_U_iso_or_equiv
_atom_site_adp_type
_atom_site_occupancy
Zn1    Zn    0.19338   0.13994   0.28734   0.00000  Uiso   1.00
Zn2    Zn    0.13379   0.12458   0.21875   0.00000  Uiso   1.00
Zn3    Zn    0.21056   0.19775   0.20657   0.00000  Uiso   1.00
Zn4    Zn    0.12893   0.20439   0.28733   0.00000  Uiso   1.00
O5     O     0.16667   0.16667   0.25000   0.00000  Uiso   1.00
O6     O     0.07071   0.18878   0.28213   0.00000  Uiso   1.00
O7     O     0.25491   0.15226   0.27013   0.00000  Uiso   1.00
O8     O     0.13760   0.06944   0.23413   0.00000  Uiso   1.00
O9     O     0.20345   0.25620   0.21360   0.00000  Uiso   1.00
O10    O     0.15451   0.12637   0.15458   0.00000  Uiso   1.00
O11    O     0.12940   0.20391   0.34968   0.00000  Uiso   1.00
O12    O     0.20824   0.17759   0.14606   0.00000  Uiso   1.00
O13    O     0.17451   0.15880   0.34968   0.00000  Uiso   1.00
O14    O     0.17930   0.08019   0.28213   0.00000  Uiso   1.00
O15    O     0.14632   0.26085   0.27013   0.00000  Uiso   1.00
O16    O     0.07412   0.13291   0.23413   0.00000  Uiso   1.00
O17    O     0.26693   0.19272   0.21360   0.00000  Uiso   1.00
C18    C     0.05283   0.15981   0.25990   0.00000  Uiso   1.00
C19    C     0.28085   0.17384   0.23989   0.00000  Uiso   1.00
C20    C     0.15583   0.05603   0.26072   0.00000  Uiso   1.00
C21    C     0.17631   0.27784   0.23937   0.00000  Uiso   1.00
C22    C     0.18542   0.14848   0.12955   0.00000  Uiso   1.00
C23    C     0.14911   0.18510   0.37066   0.00000  Uiso   1.00
C24    C     0.24349   0.13338   0.01095   0.00000  Uiso   1.00
H25    H     0.25057   0.11594   0.07235   0.00000  Uiso   1.00
H26    H     0.26656   0.15393   0.42744   0.00000  Uiso   1.00
H27    H     0.27428   0.12397   0.49233   0.00000  Uiso   1.00
C28    C     0.19238   0.14399   0.08166   0.00000  Uiso   1.00
C29    C     0.09493   0.19468   0.44163   0.00000  Uiso   1.00
C30    C     0.07863   0.18732   0.48630   0.00000  Uiso   1.00
C31    C     0.10475   0.17490   0.00989   0.00000  Uiso   1.00
C32    C     0.14915   0.17322   0.49037   0.00000  Uiso   1.00
C33    C     0.16554   0.17977   0.44427   0.00000  Uiso   1.00
C34    C     0.17706   0.16208   0.01432   0.00000  Uiso   1.00
C35    C     0.21802   0.15099   0.48999   0.00000  Uiso   1.00
C36    C     0.23410   0.15932   0.44537   0.00000  Uiso   1.00
C37    C     0.20918   0.17598   0.42365   0.00000  Uiso   1.00
C38    C     0.16648   0.16237   0.06148   0.00000  Uiso   1.00
C39    C     0.23000   0.12870   0.05635   0.00000  Uiso   1.00
C40    C     0.13753   0.18877   0.41964   0.00000  Uiso   1.00
H41    H     0.07304   0.20169   0.42344   0.00000  Uiso   1.00
H42    H     0.08894   0.16502   0.04278   0.00000  Uiso   1.00
H43    H     0.04491   0.18915   0.00215   0.00000  Uiso   1.00
H44    H     0.22447   0.18488   0.39017   0.00000  Uiso   1.00
C45    C     0.32685   0.17642   0.23551   0.00000  Uiso   1.00
H46    H     0.01610   0.19363   0.20911   0.00000  Uiso   1.00
C47    C     0.00747   0.15757   0.26392   0.00000  Uiso   1.00
H48    H     0.31886   0.14059   0.29085   0.00000  Uiso   1.00
C49    C     0.17982   0.32225   0.23346   0.00000  Uiso   1.00
C50    C     0.15355   0.01198   0.26376   0.00000  Uiso   1.00
H51    H     0.13100   0.33198   0.29282   0.00000  Uiso   1.00
N52    N     0.21085   0.00661   0.19540   0.00000  Uiso   1.00
O53    O     0.21892   0.31848   0.15719   0.00000  Uiso   1.00
O54    O     0.23365   0.04253   0.19948   0.00000  Uiso   1.00
N55    N     0.13583   0.18820   0.08885   0.00000  Uiso   1.00
O56    O     0.10545   0.17321   0.12189   0.00000  Uiso   1.00
O57    O     0.13891   0.22725   0.08127   0.00000  Uiso   1.00
Zn58   Zn    0.52672   0.13994   0.28734   0.00000  Uiso   1.00
Zn59   Zn    0.46713   0.12458   0.21875   0.00000  Uiso   1.00
Zn60   Zn    0.54389   0.19775   0.20657   0.00000  Uiso   1.00
Zn61   Zn    0.46226   0.20439   0.28733   0.00000  Uiso   1.00
O62    O     0.50000   0.16667   0.25000   0.00000  Uiso   1.00
O63    O     0.40405   0.18878   0.28213   0.00000  Uiso   1.00
O64    O     0.58824   0.15226   0.27013   0.00000  Uiso   1.00
O65    O     0.47093   0.06944   0.23413   0.00000  Uiso   1.00
O66    O     0.53678   0.25620   0.21360   0.00000  Uiso   1.00
O67    O     0.48784   0.12637   0.15458   0.00000  Uiso   1.00
O68    O     0.46274   0.20391   0.34968   0.00000  Uiso   1.00
O69    O     0.54157   0.17759   0.14606   0.00000  Uiso   1.00
O70    O     0.50785   0.15880   0.34968   0.00000  Uiso   1.00
O71    O     0.51264   0.08019   0.28213   0.00000  Uiso   1.00
O72    O     0.47965   0.26085   0.27013   0.00000  Uiso   1.00
O73    O     0.40745   0.13291   0.23413   0.00000  Uiso   1.00
O74    O     0.60026   0.19272   0.21360   0.00000  Uiso   1.00
C75    C     0.38616   0.15981   0.25990   0.00000  Uiso   1.00
C76    C     0.61419   0.17384   0.23989   0.00000  Uiso   1.00
C77    C     0.48916   0.05603   0.26072   0.00000  Uiso   1.00
C78    C     0.50965   0.27784   0.23937   0.00000  Uiso   1.00
C79    C     0.51876   0.14848   0.12955   0.00000  Uiso   1.00
C80    C     0.48244   0.18510   0.37066   0.00000  Uiso   1.00
C81    C     0.57683   0.13338   0.01095   0.00000  Uiso   1.00
H82    H     0.58391   0.11594   0.07235   0.00000  Uiso   1.00
H83    H     0.59990   0.15393   0.42744   0.00000  Uiso   1.00
H84    H     0.60761   0.12397   0.49233   0.00000  Uiso   1.00
C85    C     0.52572   0.14399   0.08166   0.00000  Uiso   1.00
C86    C     0.42826   0.19468   0.44163   0.00000  Uiso   1.00
C87    C     0.41197   0.18732   0.48630   0.00000  Uiso   1.00
C88    C     0.43809   0.17490   0.00989   0.00000  Uiso   1.00
C89    C     0.48249   0.17322   0.49037   0.00000  Uiso   1.00
C90    C     0.49888   0.17977   0.44427   0.00000  Uiso   1.00
C91    C     0.51039   0.16208   0.01432   0.00000  Uiso   1.00
C92    C     0.55136   0.15099   0.48999   0.00000  Uiso   1.00
C93    C     0.56743   0.15932   0.44537   0.00000  Uiso   1.00
C94    C     0.54251   0.17598   0.42365   0.00000  Uiso   1.00
C95    C     0.49982   0.16237   0.06148   0.00000  Uiso   1.00
C96    C     0.56334   0.12870   0.05635   0.00000  Uiso   1.00
C97    C     0.47086   0.18877   0.41964   0.00000  Uiso   1.00
H98    H     0.40637   0.20169   0.42344   0.00000  Uiso   1.00
H99    H     0.42227   0.16502   0.04278   0.00000  Uiso   1.00
H100   H     0.37824   0.18915   0.00215   0.00000  Uiso   1.00
H101   H     0.55781   0.18488   0.39017   0.00000  Uiso   1.00
C102   C     0.66019   0.17642   0.23551   0.00000  Uiso   1.00
H103   H     0.34944   0.19363   0.20911   0.00000  Uiso   1.00
C104   C     0.34081   0.15757   0.26392   0.00000  Uiso   1.00
H105   H     0.65220   0.14059   0.29085   0.00000  Uiso   1.00
C106   C     0.51315   0.32225   0.23346   0.00000  Uiso   1.00
C107   C     0.48688   0.01198   0.26376   0.00000  Uiso   1.00
H108   H     0.46433   0.33198   0.29282   0.00000  Uiso   1.00
N109   N     0.54419   0.00661   0.19540   0.00000  Uiso   1.00
O110   O     0.55226   0.31848   0.15719   0.00000  Uiso   1.00
O111   O     0.56698   0.04253   0.19948   0.00000  Uiso   1.00
N112   N     0.46916   0.18820   0.08885   0.00000  Uiso   1.00
O113   O     0.43878   0.17321   0.12189   0.00000  Uiso   1.00
O114   O     0.47224   0.22725   0.08127   0.00000  Uiso   1.00
Zn115  Zn    0.86005   0.13994   0.28734   0.00000  Uiso   1.00
Zn116  Zn    0.80046   0.12458   0.21875   0.00000  Uiso   1.00
Zn117  Zn    0.87723   0.19775   0.20657   0.00000  Uiso   1.00
Zn118  Zn    0.79560   0.20439   0.28733   0.00000  Uiso   1.00
O119   O     0.83333   0.16667   0.25000   0.00000  Uiso   1.00
O120   O     0.73738   0.18878   0.28213   0.00000  Uiso   1.00
O121   O     0.92158   0.15226   0.27013   0.00000  Uiso   1.00
O122   O     0.80426   0.06944   0.23413   0.00000  Uiso   1.00
O123   O     0.87012   0.25620   0.21360   0.00000  Uiso   1.00
O124   O     0.82118   0.12637   0.15458   0.00000  Uiso   1.00
O125   O     0.79607   0.20391   0.34968   0.00000  Uiso   1.00
O126   O     0.87491   0.17759   0.14606   0.00000  Uiso   1.00
O127   O     0.84118   0.15880   0.34968   0.00000  Uiso   1.00
O128   O     0.84597   0.08019   0.28213   0.00000  Uiso   1.00
O129   O     0.81298   0.26085   0.27013   0.00000  Uiso   1.00
O130   O     0.74078   0.13291   0.23413   0.00000  Uiso   1.00
O131   O     0.93360   0.19272   0.21360   0.00000  Uiso   1.00
C132   C     0.71949   0.15981   0.25990   0.00000  Uiso   1.00
C133   C     0.94752   0.17384   0.23989   0.00000  Uiso   1.00
C134   C     0.82250   0.05603   0.26072   0.00000  Uiso   1.00
C135   C     0.84298   0.27784   0.23937   0.00000  Uiso   1.00
C136   C     0.85209   0.14848   0.12955   0.00000  Uiso   1.00
C137   C     0.81578   0.18510   0.37066   0.00000  Uiso   1.00
C138   C     0.91016   0.13338   0.01095   0.00000  Uiso   1.00
H139   H     0.91724   0.11594   0.07235   0.00000  Uiso   1.00
H140   H     0.93323   0.15393   0.42744   0.00000  Uiso   1.00
H141   H     0.94095   0.12397   0.49233   0.00000  Uiso   1.00
C142   C     0.85905   0.14399   0.08166   0.00000  Uiso   1.00
C143   C     0.76159   0.19468   0.44163   0.00000  Uiso   1.00
C144   C     0.74530   0.18732   0.48630   0.00000  Uiso   1.00
C145   C     0.77142   0.17490   0.00989   0.00000  Uiso   1.00
C146   C     0.81582   0.17322   0.49037   0.00000  Uiso   1.00
C147   C     0.83221   0.17977   0.44427   0.00000  Uiso   1.00
C148   C     0.84372   0.16208   0.01432   0.00000  Uiso   1.00
C149   C     0.88469   0.15099   0.48999   0.00000  Uiso   1.00
C150   C     0.90077   0.15932   0.44537   0.00000  Uiso   1.00
C151   C     0.87585   0.17598   0.42365   0.00000  Uiso   1.00
C152   C     0.83315   0.16237   0.06148   0.00000  Uiso   1.00
C153   C     0.89667   0.12870   0.05635   0.00000  Uiso   1.00
C154   C     0.80419   0.18877   0.41964   0.00000  Uiso   1.00
H155   H     0.73970   0.20169   0.42344   0.00000  Uiso   1.00
H156   H     0.75561   0.16502   0.04278   0.00000  Uiso   1.00
H157   H     0.71158   0.18915   0.00215   0.00000  Uiso   1.00
H158   H     0.89114   0.18488   0.39017   0.00000  Uiso   1.00
C159   C     0.99352   0.17642   0.23551   0.00000  Uiso   1.00
H160   H     0.68277   0.19363   0.20911   0.00000  Uiso   1.00
C161   C     0.67414   0.15757   0.26392   0.00000  Uiso   1.00
H162   H     0.98553   0.14059   0.29085   0.00000  Uiso   1.00
C163   C     0.84649   0.32225   0.23346   0.00000  Uiso   1.00
C164   C     0.82021   0.01198   0.26376   0.00000  Uiso   1.00
H165   H     0.79766   0.33198   0.29282   0.00000  Uiso   1.00
N166   N     0.87752   0.00661   0.19540   0.00000  Uiso   1.00
O167   O     0.88559   0.31848   0.15719   0.00000  Uiso   1.00
O168   O     0.90031   0.04253   0.19948   0.00000  Uiso   1.00
N169   N     0.80250   0.18820   0.08885   0.00000  Uiso   1.00
O170   O     0.77212   0.17321   0.12189   0.00000  Uiso   1.00
O171   O     0.80557   0.22725   0.08127   0.00000  Uiso   1.00
Zn172  Zn    0.19338   0.47327   0.28734   0.00000  Uiso   1.00
Zn173  Zn    0.13379   0.45791   0.21875   0.00000  Uiso   1.00
Zn174  Zn    0.21056   0.53109   0.20657   0.00000  Uiso   1.00
Zn175  Zn    0.12893   0.53773   0.28733   0.00000  Uiso   1.00
O176   O     0.16667   0.50000   0.25000   0.00000  Uiso   1.00
O177   O     0.07071   0.52211   0.28213   0.00000  Uiso   1.00
O178   O     0.25491   0.48559   0.27013   0.00000  Uiso   1.00
O179   O     0.13760   0.40277   0.23413   0.00000  Uiso   1.00
O180   O     0.20345   0.58953   0.21360   0.00000  Uiso   1.00
O181   O     0.15451   0.45970   0.15458   0.00000  Uiso   1.00
O182   O     0.12940   0.53724   0.34968   0.00000  Uiso   1.00
O183   O     0.20824   0.51092   0.14606   0.00000  Uiso   1.00
O184   O     0.17451   0.49213   0.34968   0.00000  Uiso   1.00
O185   O     0.17930   0.41352   0.28213   0.00000  Uiso   1.00
O186   O     0.14632   0.59418   0.27013   0.00000  Uiso   1.00
O187   O     0.07412   0.46625   0.23413   0.00000  Uiso   1.00
O188   O     0.26693   0.52605   0.21360   0.00000  Uiso   1.00
C189   C     0.05283   0.49314   0.25990   0.00000  Uiso   1.00
C190   C     0.28085   0.50717   0.23989   0.00000  Uiso   1.00
C191   C     0.15583   0.38936   0.26072   0.00000  Uiso   1.00
C192   C     0.17631   0.61117   0.23937   0.00000  Uiso   1.00
C193   C     0.18542   0.48181   0.12955   0.00000  Uiso   1.00
C194   C     0.14911   0.51843   0.37066   0.00000  Uiso   1.00
C195   C     0.24349   0.46671   0.01095   0.00000  Uiso   1.00
H196   H     0.25057   0.44927   0.07235   0.00000  Uiso   1.00
H197   H     0.26656   0.48726   0.42744   0.00000  Uiso   1.00
H198   H     0.27428   0.45730   0.49233   0.00000  Uiso   1.00
C199   C     0.19238   0.47732   0.08166   0.00000  Uiso   1.00
C200   C     0.09493   0.52801   0.44163   0.00000  Uiso   1.00
C201   C     0.07863   0.52065   0.48630   0.00000  Uiso   1.00
C202   C     0.10475   0.50823   0.00989   0.00000  Uiso   1.00
C203   C     0.14915   0.50655   0.49037   0.00000  Uiso   1.00
C204   C     0.16554   0.51310   0.44427   0.00000  Uiso   1.00
C205   C     0.17706   0.49541   0.01432   0.00000  Uiso   1.00
C206   C     0.21802   0.48432   0.48999   0.00000  Uiso   1.00
C207   C     0.23410   0.49266   0.44537   0.00000  Uiso   1.00
C208   C     0.20918   0.50932   0.42365   0.00000  Uiso   1.00
C209   C     0.16648   0.49570   0.06148   0.00000  Uiso   1.00
C210   C     0.23000   0.46203   0.05635   0.00000  Uiso   1.00
C211   C     0.13753   0.52210   0.41964   0.00000  Uiso   1.00
H212   H     0.07304   0.53502   0.42344   0.00000  Uiso   1.00
H213   H     0.08894   0.49835   0.04278   0.00000  Uiso   1.00
H214   H     0.04491   0.52249   0.00215   0.00000  Uiso   1.00
H215   H     0.22447   0.51821   0.39017   0.00000  Uiso   1.00
C216   C     0.32685   0.50975   0.23551   0.00000  Uiso   1.00
H217   H     0.01610   0.52697   0.20911   0.00000  Uiso   1.00
C218   C     0.00747   0.49090   0.26392   0.00000  Uiso   1.00
H219   H     0.31886   0.47392   0.29085   0.00000  Uiso   1.00
C220   C     0.17982   0.65559   0.23346   0.00000  Uiso   1.00
C221   C     0.15355   0.34531   0.26376   0.00000  Uiso   1.00
H222   H     0.13100   0.66532   0.29282   0.00000  Uiso   1.00
N223   N     0.21085   0.33994   0.19540   0.00000  Uiso   1.00
O224   O     0.21892   0.65181   0.15719   0.00000  Uiso   1.00
O225   O     0.23365   0.37587   0.19948   0.00000  Uiso   1.00
N226   N     0.13583   0.52154   0.08885   0.00000  Uiso   1.00
O227   O     0.10545   0.50654   0.12189   0.00000  Uiso   1.00
O228   O     0.13891   0.56059   0.08127   0.00000  Uiso   1.00
Zn229  Zn    0.52672   0.47327   0.28734   0.00000  Uiso   1.00
Zn230  Zn    0.46713   0.45791   0.21875   0.00000  Uiso   1.00
Zn231  Zn    0.54389   0.53109   0.20657   0.00000  Uiso   1.00
Zn232  Zn    0.46226   0.53773   0.28733   0.00000  Uiso   1.00
O233   O     0.50000   0.50000   0.25000   0.00000  Uiso   1.00
O234   O     0.40405   0.52211   0.28213   0.00000  Uiso   1.00
O235   O     0.58824   0.48559   0.27013   0.00000  Uiso   1.00
O236   O     0.47093   0.40277   0.23413   0.00000  Uiso   1.00
O237   O     0.53678   0.58953   0.21360   0.00000  Uiso   1.00
O238   O     0.48784   0.45970   0.15458   0.00000  Uiso   1.00
O239   O     0.46274   0.53724   0.34968   0.00000  Uiso   1.00
O240   O     0.54157   0.51092   0.14606   0.00000  Uiso   1.00
O241   O     0.50785   0.49213   0.34968   0.00000  Uiso   1.00
O242   O     0.51264   0.41352   0.28213   0.00000  Uiso   1.00
O243   O     0.47965   0.59418   0.27013   0.00000  Uiso   1.00
O244   O     0.40745   0.46625   0.23413   0.00000  Uiso   1.00
O245   O     0.60026   0.52605   0.21360   0.00000  Uiso   1.00
C246   C     0.38616   0.49314   0.25990   0.00000  Uiso   1.00
C247   C     0.61419   0.50717   0.23989   0.00000  Uiso   1.00
C248   C     0.48916   0.38936   0.26072   0.00000  Uiso   1.00
C249   C     0.50965   0.61117   0.23937   0.00000  Uiso   1.00
C250   C     0.51876   0.48181   0.12955   0.00000  Uiso   1.00
C251   C     0.48244   0.51843   0.37066   0.00000  Uiso   1.00
C252   C     0.57683   0.46671   0.01095   0.00000  Uiso   1.00
H253   H     0.58391   0.44927   0.07235   0.00000  Uiso   1.00
H254   H     0.59990   0.48726   0.42744   0.00000  Uiso   1.00
H255   H     0.60761   0.45730   0.49233   0.00000  Uiso   1.00
C256   C     0.52572   0.47732   0.08166   0.00000  Uiso   1.00
C257   C     0.42826   0.52801   0.44163   0.00000  Uiso   1.00
C258   C     0.41197   0.52065   0.48630   0.00000  Uiso   1.00
C259   C     0.43809   0.50823   0.00989   0.00000  Uiso   1.00
C260   C     0.48249   0.50655   0.49037   0.00000  Uiso   1.00
C261   C     0.49888   0.51310   0.44427   0.00000  Uiso   1.00
C262   C     0.51039   0.49541   0.01432   0.00000  Uiso   1.00
C263   C     0.55136   0.48432   0.48999   0.00000  Uiso   1.00
C264   C     0.56743   0.49266   0.44537   0.00000  Uiso   1.00
C265   C     0.54251   0.50932   0.42365   0.00000  Uiso   1.00
C266   C     0.49982   0.49570   0.06148   0.00000  Uiso   1.00
C267   C     0.56334   0.46203   0.05635   0.00000  Uiso   1.00
C268   C     0.47086   0.52210   0.41964   0.00000  Uiso   1.00
H269   H     0.40637   0.53502   0.42344   0.00000  Uiso   1.00
H270   H     0.42227   0.49835   0.04278   0.00000  Uiso   1.00
H271   H     0.37824   0.52249   0.00215   0.00000  Uiso   1.00
H272   H     0.55781   0.51821   0.39017   0.00000  Uiso   1.00
C273   C     0.66019   0.50975   0.23551   0.00000  Uiso   1.00
H274   H     0.34944   0.52697   0.20911   0.00000  Uiso   1.00
C275   C     0.34081   0.49090   0.26392   0.00000  Uiso   1.00
H276   H     0.65220   0.47392   0.29085   0.00000  Uiso   1.00
C277   C     0.51315   0.65559   0.23346   0.00000  Uiso   1.00
C278   C     0.48688   0.34531   0.26376   0.00000  Uiso   1.00
H279   H     0.46433   0.66532   0.29282   0.00000  Uiso   1.00
N280   N     0.54419   0.33994   0.19540   0.00000  Uiso   1.00
O281   O     0.55226   0.65181   0.15719   0.00000  Uiso   1.00
O282   O     0.56698   0.37587   0.19948   0.00000  Uiso   1.00
N283   N     0.46916   0.52154   0.08885   0.00000  Uiso   1.00
O284   O     0.43878   0.50654   0.12189   0.00000  Uiso   1.00
O285   O     0.47224   0.56059   0.08127   0.00000  Uiso   1.00
Zn286  Zn    0.86005   0.47327   0.28734   0.00000  Uiso   1.00
Zn287  Zn    0.80046   0.45791   0.21875   0.00000  Uiso   1.00
Zn288  Zn    0.87723   0.53109   0.20657   0.00000  Uiso   1.00
Zn289  Zn    0.79560   0.53773   0.28733   0.00000  Uiso   1.00
O290   O     0.83333   0.50000   0.25000   0.00000  Uiso   1.00
O291   O     0.73738   0.52211   0.28213   0.00000  Uiso   1.00
O292   O     0.92158   0.48559   0.27013   0.00000  Uiso   1.00
O293   O     0.80426   0.40277   0.23413   0.00000  Uiso   1.00
O294   O     0.87012   0.58953   0.21360   0.00000  Uiso   1.00
O295   O     0.82118   0.45970   0.15458   0.00000  Uiso   1.00
O296   O     0.79607   0.53724   0.34968   0.00000  Uiso   1.00
O297   O     0.87491   0.51092   0.14606   0.00000  Uiso   1.00
O298   O     0.84118   0.49213   0.34968   0.00000  Uiso   1.00
O299   O     0.84597   0.41352   0.28213   0.00000  Uiso   1.00
O300   O     0.81298   0.59418   0.27013   0.00000  Uiso   1.00
O301   O     0.74078   0.46625   0.23413   0.00000  Uiso   1.00
O302   O     0.93360   0.52605   0.21360   0.00000  Uiso   1.00
C303   C     0.71949   0.49314   0.25990   0.00000  Uiso   1.00
C304   C     0.94752   0.50717   0.23989   0.00000  Uiso   1.00
C305   C     0.82250   0.38936   0.26072   0.00000  Uiso   1.00
C306   C     0.84298   0.61117   0.23937   0.00000  Uiso   1.00
C307   C     0.85209   0.48181   0.12955   0.00000  Uiso   1.00
C308   C     0.81578   0.51843   0.37066   0.00000  Uiso   1.00
C309   C     0.91016   0.46671   0.01095   0.00000  Uiso   1.00
H310   H     0.91724   0.44927   0.07235   0.00000  Uiso   1.00
H311   H     0.93323   0.48726   0.42744   0.00000  Uiso   1.00
H312   H     0.94095   0.45730   0.49233   0.00000  Uiso   1.00
C313   C     0.85905   0.47732   0.08166   0.00000  Uiso   1.00
C314   C     0.76159   0.52801   0.44163   0.00000  Uiso   1.00
C315   C     0.74530   0.52065   0.48630   0.00000  Uiso   1.00
C316   C     0.77142   0.50823   0.00989   0.00000  Uiso   1.00
C317   C     0.81582   0.50655   0.49037   0.00000  Uiso   1.00
C318   C     0.83221   0.51310   0.44427   0.00000  Uiso   1.00
C319   C     0.84372   0.49541   0.01432   0.00000  Uiso   1.00
C320   C     0.88469   0.48432   0.48999   0.00000  Uiso   1.00
C321   C     0.90077   0.49266   0.44537   0.00000  Uiso   1.00
C322   C     0.87585   0.50932   0.42365   0.00000  Uiso   1.00
C323   C     0.83315   0.49570   0.06148   0.00000  Uiso   1.00
C324   C     0.89667   0.46203   0.05635   0.00000  Uiso   1.00
C325   C     0.80419   0.52210   0.41964   0.00000  Uiso   1.00
H326   H     0.73970   0.53502   0.42344   0.00000  Uiso   1.00
H327   H     0.75561   0.49835   0.04278   0.00000  Uiso   1.00
H328   H     0.71158   0.52249   0.00215   0.00000  Uiso   1.00
H329   H     0.89114   0.51821   0.39017   0.00000  Uiso   1.00
C330   C     0.99352   0.50975   0.23551   0.00000  Uiso   1.00
H331   H     0.68277   0.52697   0.20911   0.00000  Uiso   1.00
C332   C     0.67414   0.49090   0.26392   0.00000  Uiso   1.00
H333   H     0.98553   0.47392   0.29085   0.00000  Uiso   1.00
C334   C     0.84649   0.65559   0.23346   0.00000  Uiso   1.00
C335   C     0.82021   0.34531   0.26376   0.00000  Uiso   1.00
H336   H     0.79766   0.66532   0.29282   0.00000  Uiso   1.00
N337   N     0.87752   0.33994   0.19540   0.00000  Uiso   1.00
O338   O     0.88559   0.65181   0.15719   0.00000  Uiso   1.00
O339   O     0.90031   0.37587   0.19948   0.00000  Uiso   1.00
N340   N     0.80250   0.52154   0.08885   0.00000  Uiso   1.00
O341   O     0.77212   0.50654   0.12189   0.00000  Uiso   1.00
O342   O     0.80557   0.56059   0.08127   0.00000  Uiso   1.00
Zn343  Zn    0.19338   0.80661   0.28734   0.00000  Uiso   1.00
Zn344  Zn    0.13379   0.79124   0.21875   0.00000  Uiso   1.00
Zn345  Zn    0.21056   0.86442   0.20657   0.00000  Uiso   1.00
Zn346  Zn    0.12893   0.87106   0.28733   0.00000  Uiso   1.00
O347   O     0.16667   0.83333   0.25000   0.00000  Uiso   1.00
O348   O     0.07071   0.85544   0.28213   0.00000  Uiso   1.00
O349   O     0.25491   0.81892   0.27013   0.00000  Uiso   1.00
O350   O     0.13760   0.73610   0.23413   0.00000  Uiso   1.00
O351   O     0.20345   0.92286   0.21360   0.00000  Uiso   1.00
O352   O     0.15451   0.79304   0.15458   0.00000  Uiso   1.00
O353   O     0.12940   0.87058   0.34968   0.00000  Uiso   1.00
O354   O     0.20824   0.84425   0.14606   0.00000  Uiso   1.00
O355   O     0.17451   0.82546   0.34968   0.00000  Uiso   1.00
O356   O     0.17930   0.74686   0.28213   0.00000  Uiso   1.00
O357   O     0.14632   0.92751   0.27013   0.00000  Uiso   1.00
O358   O     0.07412   0.79958   0.23413   0.00000  Uiso   1.00
O359   O     0.26693   0.85939   0.21360   0.00000  Uiso   1.00
C360   C     0.05283   0.82648   0.25990   0.00000  Uiso   1.00
C361   C     0.28085   0.84051   0.23989   0.00000  Uiso   1.00
C362   C     0.15583   0.72270   0.26072   0.00000  Uiso   1.00
C363   C     0.17631   0.94451   0.23937   0.00000  Uiso   1.00
C364   C     0.18542   0.81514   0.12955   0.00000  Uiso   1.00
C365   C     0.14911   0.85177   0.37066   0.00000  Uiso   1.00
C366   C     0.24349   0.80004   0.01095   0.00000  Uiso   1.00
H367   H     0.25057   0.78261   0.07235   0.00000  Uiso   1.00
H368   H     0.26656   0.82059   0.42744   0.00000  Uiso   1.00
H369   H     0.27428   0.79063   0.49233   0.00000  Uiso   1.00
C370   C     0.19238   0.81065   0.08166   0.00000  Uiso   1.00
C371   C     0.09493   0.86135   0.44163   0.00000  Uiso   1.00
C372   C     0.07863   0.85399   0.48630   0.00000  Uiso   1.00
C373   C     0.10475   0.84157   0.00989   0.00000  Uiso   1.00
C374   C     0.14915   0.83988   0.49037   0.00000  Uiso   1.00
C375   C     0.16554   0.84643   0.44427   0.00000  Uiso   1.00
C376   C     0.17706   0.82875   0.01432   0.00000  Uiso   1.00
C377   C     0.21802   0.81765   0.48999   0.00000  Uiso   1.00
C378   C     0.23410   0.82599   0.44537   0.00000  Uiso   1.00
C379   C     0.20918   0.84265   0.42365   0.00000  Uiso   1.00
C380   C     0.16648   0.82903   0.06148   0.00000  Uiso   1.00
C381   C     0.23000   0.79537   0.05635   0.00000  Uiso   1.00
C382   C     0.13753   0.85543   0.41964   0.00000  Uiso   1.00
H383   H     0.07304   0.86836   0.42344   0.00000  Uiso   1.00
H384   H     0.08894   0.83169   0.04278   0.00000  Uiso   1.00
H385   H     0.04491   0.85582   0.00215   0.00000  Uiso   1.00
H386   H     0.22447   0.85154   0.39017   0.00000  Uiso   1.00
C387   C     0.32685   0.84308   0.23551   0.00000  Uiso   1.00
H388   H     0.01610   0.86030   0.20911   0.00000  Uiso   1.00
C389   C     0.00747   0.82424   0.26392   0.00000  Uiso   1.00
H390   H     0.31886   0.80725   0.29085   0.00000  Uiso   1.00
C391   C     0.17982   0.98892   0.23346   0.00000  Uiso   1.00
C392   C     0.15355   0.67865   0.26376   0.00000  Uiso   1.00
H393   H     0.13100   0.99865   0.29282   0.00000  Uiso   1.00
N394   N     0.21085   0.67327   0.19540   0.00000  Uiso   1.00
O395   O     0.21892   0.98514   0.15719   0.00000  Uiso   1.00
O396   O     0.23365   0.70920   0.19948   0.00000  Uiso   1.00
N397   N     0.13583   0.85487   0.08885   0.00000  Uiso   1.00
O398   O     0.10545   0.83987   0.12189   0.00000  Uiso   1.00
O399   O     0.13891   0.89392   0.08127   0.00000  Uiso   1.00
Zn400  Zn    0.52672   0.80661   0.28734   0.00000  Uiso   1.00
Zn401  Zn    0.46713   0.79124   0.21875   0.00000  Uiso   1.00
Zn402  Zn    0.54389   0.86442   0.20657   0.00000  Uiso   1.00
Zn403  Zn    0.46226   0.87106   0.28733   0.00000  Uiso   1.00
O404   O     0.50000   0.83333   0.25000   0.00000  Uiso   1.00
O405   O     0.40405   0.85544   0.28213   0.00000  Uiso   1.00
O406   O     0.58824   0.81892   0.27013   0.00000  Uiso   1.00
O407   O     0.47093   0.73610   0.23413   0.00000  Uiso   1.00
O408   O     0.53678   0.92286   0.21360   0.00000  Uiso   1.00
O409   O     0.48784   0.79304   0.15458   0.00000  Uiso   1.00
O410   O     0.46274   0.87058   0.34968   0.00000  Uiso   1.00
O411   O     0.54157   0.84425   0.14606   0.00000  Uiso   1.00
O412   O     0.50785   0.82546   0.34968   0.00000  Uiso   1.00
O413   O     0.51264   0.74686   0.28213   0.00000  Uiso   1.00
O414   O     0.47965   0.92751   0.27013   0.00000  Uiso   1.00
O415   O     0.40745   0.79958   0.23413   0.00000  Uiso   1.00
O416   O     0.60026   0.85939   0.21360   0.00000  Uiso   1.00
C417   C     0.38616   0.82648   0.25990   0.00000  Uiso   1.00
C418   C     0.61419   0.84051   0.23989   0.00000  Uiso   1.00
C419   C     0.48916   0.72270   0.26072   0.00000  Uiso   1.00
C420   C     0.50965   0.94451   0.23937   0.00000  Uiso   1.00
C421   C     0.51876   0.81514   0.12955   0.00000  Uiso   1.00
C422   C     0.48244   0.85177   0.37066   0.00000  Uiso   1.00
C423   C     0.57683   0.80004   0.01095   0.00000  Uiso   1.00
H424   H     0.58391   0.78261   0.07235   0.00000  Uiso   1.00
H425   H     0.59990   0.82059   0.42744   0.00000  Uiso   1.00
H426   H     0.60761   0.79063   0.49233   0.00000  Uiso   1.00
C427   C     0.52572   0.81065   0.08166   0.00000  Uiso   1.00
C428   C     0.42826   0.86135   0.44163   0.00000  Uiso   1.00
C429   C     0.41197   0.85399   0.48630   0.00000  Uiso   1.00
C430   C     0.43809   0.84157   0.00989   0.00000  Uiso   1.00
C431   C     0.48249   0.83988   0.49037   0.00000  Uiso   1.00
C432   C     0.49888   0.84643   0.44427   0.00000  Uiso   1.00
C433   C     0.51039   0.82875   0.01432   0.00000  Uiso   1.00
C434   C     0.55136   0.81765   0.48999   0.00000  Uiso   1.00
C435   C     0.56743   0.82599   0.44537   0.00000  Uiso   1.00
C436   C     0.54251   0.84265   0.42365   0.00000  Uiso   1.00
C437   C     0.49982   0.82903   0.06148   0.00000  Uiso   1.00
C438   C     0.56334   0.79537   0.05635   0.00000  Uiso   1.00
C439   C     0.47086   0.85543   0.41964   0.00000  Uiso   1.00
H440   H     0.40637   0.86836   0.42344   0.00000  Uiso   1.00
H441   H     0.42227   0.83169   0.04278   0.00000  Uiso   1.00
H442   H     0.37824   0.85582   0.00215   0.00000  Uiso   1.00
H443   H     0.55781   0.85154   0.39017   0.00000  Uiso   1.00
C444   C     0.66019   0.84308   0.23551   0.00000  Uiso   1.00
H445   H     0.34944   0.86030   0.20911   0.00000  Uiso   1.00
C446   C     0.34081   0.82424   0.26392   0.00000  Uiso   1.00
H447   H     0.65220   0.80725   0.29085   0.00000  Uiso   1.00
C448   C     0.51315   0.98892   0.23346   0.00000  Uiso   1.00
C449   C     0.48688   0.67865   0.26376   0.00000  Uiso   1.00
H450   H     0.46433   0.99865   0.29282   0.00000  Uiso   1.00
N451   N     0.54419   0.67327   0.19540   0.00000  Uiso   1.00
O452   O     0.55226   0.98514   0.15719   0.00000  Uiso   1.00
O453   O     0.56698   0.70920   0.19948   0.00000  Uiso   1.00
N454   N     0.46916   0.85487   0.08885   0.00000  Uiso   1.00
O455   O     0.43878   0.83987   0.12189   0.00000  Uiso   1.00
O456   O     0.47224   0.89392   0.08127   0.00000  Uiso   1.00
Zn457  Zn    0.86005   0.80661   0.28734   0.00000  Uiso   1.00
Zn458  Zn    0.80046   0.79124   0.21875   0.00000  Uiso   1.00
Zn459  Zn    0.87723   0.86442   0.20657   0.00000  Uiso   1.00
Zn460  Zn    0.79560   0.87106   0.28733   0.00000  Uiso   1.00
O461   O     0.83333   0.83333   0.25000   0.00000  Uiso   1.00
O462   O     0.73738   0.85544   0.28213   0.00000  Uiso   1.00
O463   O     0.92158   0.81892   0.27013   0.00000  Uiso   1.00
O464   O     0.80426   0.73610   0.23413   0.00000  Uiso   1.00
O465   O     0.87012   0.92286   0.21360   0.00000  Uiso   1.00
O466   O     0.82118   0.79304   0.15458   0.00000  Uiso   1.00
O467   O     0.79607   0.87058   0.34968   0.00000  Uiso   1.00
O468   O     0.87491   0.84425   0.14606   0.00000  Uiso   1.00
O469   O     0.84118   0.82546   0.34968   0.00000  Uiso   1.00
O470   O     0.84597   0.74686   0.28213   0.00000  Uiso   1.00
O471   O     0.81298   0.92751   0.27013   0.00000  Uiso   1.00
O472   O     0.74078   0.79958   0.23413   0.00000  Uiso   1.00
O473   O     0.93360   0.85939   0.21360   0.00000  Uiso   1.00
C474   C     0.71949   0.82648   0.25990   0.00000  Uiso   1.00
C475   C     0.94752   0.84051   0.23989   0.00000  Uiso   1.00
C476   C     0.82250   0.72270   0.26072   0.00000  Uiso   1.00
C477   C     0.84298   0.94451   0.23937   0.00000  Uiso   1.00
C478   C     0.85209   0.81514   0.12955   0.00000  Uiso   1.00
C479   C     0.81578   0.85177   0.37066   0.00000  Uiso   1.00
C480   C     0.91016   0.80004   0.01095   0.00000  Uiso   1.00
H481   H     0.91724   0.78261   0.07235   0.00000  Uiso   1.00
H482   H     0.93323   0.82059   0.42744   0.00000  Uiso   1.00
H483   H     0.94095   0.79063   0.49233   0.00000  Uiso   1.00
C484   C     0.85905   0.81065   0.08166   0.00000  Uiso   1.00
C485   C     0.76159   0.86135   0.44163   0.00000  Uiso   1.00
C486   C     0.74530   0.85399   0.48630   0.00000  Uiso   1.00
C487   C     0.77142   0.84157   0.00989   0.00000  Uiso   1.00
C488   C     0.81582   0.83988   0.49037   0.00000  Uiso   1.00
C489   C     0.83221   0.84643   0.44427   0.00000  Uiso   1.00
C490   C     0.84372   0.82875   0.01432   0.00000  Uiso   1.00
C491   C     0.88469   0.81765   0.48999   0.00000  Uiso   1.00
C492   C     0.90077   0.82599   0.44537   0.00000  Uiso   1.00
C493   C     0.87585   0.84265   0.42365   0.00000  Uiso   1.00
C494   C     0.83315   0.82903   0.06148   0.00000  Uiso   1.00
C495   C     0.89667   0.79537   0.05635   0.00000  Uiso   1.00
C496   C     0.80419   0.85543   0.41964   0.00000  Uiso   1.00
H497   H     0.73970   0.86836   0.42344   0.00000  Uiso   1.00
H498   H     0.75561   0.83169   0.04278   0.00000  Uiso   1.00
H499   H     0.71158   0.85582   0.00215   0.00000  Uiso   1.00
H500   H     0.89114   0.85154   0.39017   0.00000  Uiso   1.00
C501   C     0.99352   0.84308   0.23551   0.00000  Uiso   1.00
H502   H     0.68277   0.86030   0.20911   0.00000  Uiso   1.00
C503   C     0.67414   0.82424   0.26392   0.00000  Uiso   1.00
H504   H     0.98553   0.80725   0.29085   0.00000  Uiso   1.00
C505   C     0.84649   0.98892   0.23346   0.00000  Uiso   1.00
C506   C     0.82021   0.67865   0.26376   0.00000  Uiso   1.00
H507   H     0.79766   0.99865   0.29282   0.00000  Uiso   1.00
N508   N     0.87752   0.67327   0.19540   0.00000  Uiso   1.00
O509   O     0.88559   0.98514   0.15719   0.00000  Uiso   1.00
O510   O     0.90031   0.70920   0.19948   0.00000  Uiso   1.00
N511   N     0.80250   0.85487   0.08885   0.00000  Uiso   1.00
O512   O     0.77212   0.83987   0.12189   0.00000  Uiso   1.00
O513   O     0.80557   0.89392   0.08127   0.00000  Uiso   1.00
Zn514  Zn    0.19338   0.13994   0.78734   0.00000  Uiso   1.00
Zn515  Zn    0.13379   0.12458   0.71875   0.00000  Uiso   1.00
Zn516  Zn    0.21056   0.19775   0.70657   0.00000  Uiso   1.00
Zn517  Zn    0.12893   0.20439   0.78733   0.00000  Uiso   1.00
O518   O     0.16667   0.16667   0.75000   0.00000  Uiso   1.00
O519   O     0.07071   0.18878   0.78213   0.00000  Uiso   1.00
O520   O     0.25491   0.15226   0.77013   0.00000  Uiso   1.00
O521   O     0.13760   0.06944   0.73413   0.00000  Uiso   1.00
O522   O     0.20345   0.25620   0.71360   0.00000  Uiso   1.00
O523   O     0.15451   0.12637   0.65458   0.00000  Uiso   1.00
O524   O     0.12940   0.20391   0.84968   0.00000  Uiso   1.00
O525   O     0.20824   0.17759   0.64606   0.00000  Uiso   1.00
O526   O     0.17451   0.15880   0.84968   0.00000  Uiso   1.00
O527   O     0.17930   0.08019   0.78213   0.00000  Uiso   1.00
O528   O     0.14632   0.26085   0.77013   0.00000  Uiso   1.00
O529   O     0.07412   0.13291   0.73413   0.00000  Uiso   1.00
O530   O     0.26693   0.19272   0.71360   0.00000  Uiso   1.00
C531   C     0.05283   0.15981   0.75990   0.00000  Uiso   1.00
C532   C     0.28085   0.17384   0.73989   0.00000  Uiso   1.00
C533   C     0.15583   0.05603   0.76072   0.00000  Uiso   1.00
C534   C     0.17631   0.27784   0.73937   0.00000  Uiso   1.00
C535   C     0.18542   0.14848   0.62955   0.00000  Uiso   1.00
C536   C     0.14911   0.18510   0.87066   0.00000  Uiso   1.00
C537   C     0.24349   0.13338   0.51095   0.00000  Uiso   1.00
H538   H     0.25057   0.11594   0.57235   0.00000  Uiso   1.00
H539   H     0.26656   0.15393   0.92744   0.00000  Uiso   1.00
H540   H     0.27428   0.12397   0.99233   0.00000  Uiso   1.00
C541   C     0.19238   0.14399   0.58166   0.00000  Uiso   1.00
C542   C     0.09493   0.19468   0.94163   0.00000  Uiso   1.00
C543   C     0.07863   0.18732   0.98630   0.00000  Uiso   1.00
C544   C     0.10475   0.17490   0.50989   0.00000  Uiso   1.00
C545   C     0.14915   0.17322   0.99037   0.00000  Uiso   1.00
C546   C     0.16554   0.17977   0.94427   0.00000  Uiso   1.00
C547   C     0.17706   0.16208   0.51432   0.00000  Uiso   1.00
C548   C     0.21802   0.15099   0.98999   0.00000  Uiso   1.00
C549   C     0.23410   0.15932   0.94537   0.00000  Uiso   1.00
C550   C     0.20918   0.17598   0.92365   0.00000  Uiso   1.00
C551   C     0.16648   0.16237   0.56148   0.00000  Uiso   1.00
C552   C     0.23000   0.12870   0.55635   0.00000  Uiso   1.00
C553   C     0.13753   0.18877   0.91964   0.00000  Uiso   1.00
H554   H     0.07304   0.20169   0.92344   0.00000  Uiso   1.00
H555   H     0.08894   0.16502   0.54278   0.00000  Uiso   1.00
H556   H     0.04491   0.18915   0.50215   0.00000  Uiso   1.00
H557   H     0.22447   0.18488   0.89017   0.00000  Uiso   1.00
C558   C     0.32685   0.17642   0.73551   0.00000  Uiso   1.00
H559   H     0.01610   0.19363   0.70911   0.00000  Uiso   1.00
C560   C     0.00747   0.15757   0.76392   0.00000  Uiso   1.00
H561   H     0.31886   0.14059   0.79085   0.00000  Uiso   1.00
C562   C     0.17982   0.32225   0.73346   0.00000  Uiso   1.00
C563   C     0.15355   0.01198   0.76376   0.00000  Uiso   1.00
H564   H     0.13100   0.33198   0.79282   0.00000  Uiso   1.00
N565   N     0.21085   0.00661   0.69540   0.00000  Uiso   1.00
O566   O     0.21892   0.31848   0.65719   0.00000  Uiso   1.00
O567   O     0.23365   0.04253   0.69948   0.00000  Uiso   1.00
N568   N     0.13583   0.18820   0.58885   0.00000  Uiso   1.00
O569   O     0.10545   0.17321   0.62189   0.00000  Uiso   1.00
O570   O     0.13891   0.22725   0.58127   0.00000  Uiso   1.00
Zn571  Zn    0.52672   0.13994   0.78734   0.00000  Uiso   1.00
Zn572  Zn    0.46713   0.12458   0.71875   0.00000  Uiso   1.00
Zn573  Zn    0.54389   0.19775   0.70657   0.00000  Uiso   1.00
Zn574  Zn    0.46226   0.20439   0.78733   0.00000  Uiso   1.00
O575   O     0.50000   0.16667   0.75000   0.00000  Uiso   1.00
O576   O     0.40405   0.18878   0.78213   0.00000  Uiso   1.00
O577   O     0.58824   0.15226   0.77013   0.00000  Uiso   1.00
O578   O     0.47093   0.06944   0.73413   0.00000  Uiso   1.00
O579   O     0.53678   0.25620   0.71360   0.00000  Uiso   1.00
O580   O     0.48784   0.12637   0.65458   0.00000  Uiso   1.00
O581   O     0.46274   0.20391   0.84968   0.00000  Uiso   1.00
O582   O     0.54157   0.17759   0.64606   0.00000  Uiso   1.00
O583   O     0.50785   0.15880   0.84968   0.00000  Uiso   1.00
O584   O     0.51264   0.08019   0.78213   0.00000  Uiso   1.00
O585   O     0.47965   0.26085   0.77013   0.00000  Uiso   1.00
O586   O     0.40745   0.13291   0.73413   0.00000  Uiso   1.00
O587   O     0.60026   0.19272   0.71360   0.00000  Uiso   1.00
C588   C     0.38616   0.15981   0.75990   0.00000  Uiso   1.00
C589   C     0.61419   0.17384   0.73989   0.00000  Uiso   1.00
C590   C     0.48916   0.05603   0.76072   0.00000  Uiso   1.00
C591   C     0.50965   0.27784   0.73937   0.00000  Uiso   1.00
C592   C     0.51876   0.14848   0.62955   0.00000  Uiso   1.00
C593   C     0.48244   0.18510   0.87066   0.00000  Uiso   1.00
C594   C     0.57683   0.13338   0.51095   0.00000  Uiso   1.00
H595   H     0.58391   0.11594   0.57235   0.00000  Uiso   1.00
H596   H     0.59990   0.15393   0.92744   0.00000  Uiso   1.00
H597   H     0.60761   0.12397   0.99233   0.00000  Uiso   1.00
C598   C     0.52572   0.14399   0.58166   0.00000  Uiso   1.00
C599   C     0.42826   0.19468   0.94163   0.00000  Uiso   1.00
C600   C     0.41197   0.18732   0.98630   0.00000  Uiso   1.00
C601   C     0.43809   0.17490   0.50989   0.00000  Uiso   1.00
C602   C     0.48249   0.17322   0.99037   0.00000  Uiso   1.00
C603   C     0.49888   0.17977   0.94427   0.00000  Uiso   1.00
C604   C     0.51039   0.16208   0.51432   0.00000  Uiso   1.00
C605   C     0.55136   0.15099   0.98999   0.00000  Uiso   1.00
C606   C     0.56743   0.15932   0.94537   0.00000  Uiso   1.00
C607   C     0.54251   0.17598   0.92365   0.00000  Uiso   1.00
C608   C     0.49982   0.16237   0.56148   0.00000  Uiso   1.00
C609   C     0.56334   0.12870   0.55635   0.00000  Uiso   1.00
C610   C     0.47086   0.18877   0.91964   0.00000  Uiso   1.00
H611   H     0.40637   0.20169   0.92344   0.00000  Uiso   1.00
H612   H     0.42227   0.16502   0.54278   0.00000  Uiso   1.00
H613   H     0.37824   0.18915   0.50215   0.00000  Uiso   1.00
H614   H     0.55781   0.18488   0.89017   0.00000  Uiso   1.00
C615   C     0.66019   0.17642   0.73551   0.00000  Uiso   1.00
H616   H     0.34944   0.19363   0.70911   0.00000  Uiso   1.00
C617   C     0.34081   0.15757   0.76392   0.00000  Uiso   1.00
H618   H     0.65220   0.14059   0.79085   0.00000  Uiso   1.00
C619   C     0.51315   0.32225   0.73346   0.00000  Uiso   1.00
C620   C     0.48688   0.01198   0.76376   0.00000  Uiso   1.00
H621   H     0.46433   0.33198   0.79282   0.00000  Uiso   1.00
N622   N     0.54419   0.00661   0.69540   0.00000  Uiso   1.00
O623   O     0.55226   0.31848   0.65719   0.00000  Uiso   1.00
O624   O     0.56698   0.04253   0.69948   0.00000  Uiso   1.00
N625   N     0.46916   0.18820   0.58885   0.00000  Uiso   1.00
O626   O     0.43878   0.17321   0.62189   0.00000  Uiso   1.00
O627   O     0.47224   0.22725   0.58127   0.00000  Uiso   1.00
Zn628  Zn    0.86005   0.13994   0.78734   0.00000  Uiso   1.00
Zn629  Zn    0.80046   0.12458   0.71875   0.00000  Uiso   1.00
Zn630  Zn    0.87723   0.19775   0.70657   0.00000  Uiso   1.00
Zn631  Zn    0.79560   0.20439   0.78733   0.00000  Uiso   1.00
O632   O     0.83333   0.16667   0.75000   0.00000  Uiso   1.00
O633   O     0.73738   0.18878   0.78213   0.00000  Uiso   1.00
O634   O     0.92158   0.15226   0.77013   0.00000  Uiso   1.00
O635   O     0.80426   0.06944   0.73413   0.00000  Uiso   1.00
O636   O     0.87012   0.25620   0.71360   0.00000  Uiso   1.00
O637   O     0.82118   0.12637   0.65458   0.00000  Uiso   1.00
O638   O     0.79607   0.20391   0.84968   0.00000  Uiso   1.00
O639   O     0.87491   0.17759   0.64606   0.00000  Uiso   1.00
O640   O     0.84118   0.15880   0.84968   0.00000  Uiso   1.00
O641   O     0.84597   0.08019   0.78213   0.00000  Uiso   1.00
O642   O     0.81298   0.26085   0.77013   0.00000  Uiso   1.00
O643   O     0.74078   0.13291   0.73413   0.00000  Uiso   1.00
O644   O     0.93360   0.19272   0.71360   0.00000  Uiso   1.00
C645   C     0.71949   0.15981   0.75990   0.00000  Uiso   1.00
C646   C     0.94752   0.17384   0.73989   0.00000  Uiso   1.00
C647   C     0.82250   0.05603   0.76072   0.00000  Uiso   1.00
C648   C     0.84298   0.27784   0.73937   0.00000  Uiso   1.00
C649   C     0.85209   0.14848   0.62955   0.00000  Uiso   1.00
C650   C     0.81578   0.18510   0.87066   0.00000  Uiso   1.00
C651   C     0.91016   0.13338   0.51095   0.00000  Uiso   1.00
H652   H     0.91724   0.11594   0.57235   0.00000  Uiso   1.00
H653   H     0.93323   0.15393   0.92744   0.00000  Uiso   1.00
H654   H     0.94095   0.12397   0.99233   0.00000  Uiso   1.00
C655   C     0.85905   0.14399   0.58166   0.00000  Uiso   1.00
C656   C     0.76159   0.19468   0.94163   0.00000  Uiso   1.00
C657   C     0.74530   0.18732   0.98630   0.00000  Uiso   1.00
C658   C     0.77142   0.17490   0.50989   0.00000  Uiso   1.00
C659   C     0.81582   0.17322   0.99037   0.00000  Uiso   1.00
C660   C     0.83221   0.17977   0.94427   0.00000  Uiso   1.00
C661   C     0.84372   0.16208   0.51432   0.00000  Uiso   1.00
C662   C     0.88469   0.15099   0.98999   0.00000  Uiso   1.00
C663   C     0.90077   0.15932   0.94537   0.00000  Uiso   1.00
C664   C     0.87585   0.17598   0.92365   0.00000  Uiso   1.00
C665   C     0.83315   0.16237   0.56148   0.00000  Uiso   1.00
C666   C     0.89667   0.12870   0.55635   0.00000  Uiso   1.00
C667   C     0.80419   0.18877   0.91964   0.00000  Uiso   1.00
H668   H     0.73970   0.20169   0.92344   0.00000  Uiso   1.00
H669   H     0.75561   0.16502   0.54278   0.00000  Uiso   1.00
H670   H     0.71158   0.18915   0.50215   0.00000  Uiso   1.00
H671   H     0.89114   0.18488   0.89017   0.00000  Uiso   1.00
C672   C     0.99352   0.17642   0.73551   0.00000  Uiso   1.00
H673   H     0.68277   0.19363   0.70911   0.00000  Uiso   1.00
C674   C     0.67414   0.15757   0.76392   0.00000  Uiso   1.00
H675   H     0.98553   0.14059   0.79085   0.00000  Uiso   1.00
C676   C     0.84649   0.32225   0.73346   0.00000  Uiso   1.00
C677   C     0.82021   0.01198   0.76376   0.00000  Uiso   1.00
H678   H     0.79766   0.33198   0.79282   0.00000  Uiso   1.00
N679   N     0.87752   0.00661   0.69540   0.00000  Uiso   1.00
O680   O     0.88559   0.31848   0.65719   0.00000  Uiso   1.00
O681   O     0.90031   0.04253   0.69948   0.00000  Uiso   1.00
N682   N     0.80250   0.18820   0.58885   0.00000  Uiso   1.00
O683   O     0.77212   0.17321   0.62189   0.00000  Uiso   1.00
O684   O     0.80557   0.22725   0.58127   0.00000  Uiso   1.00
Zn685  Zn    0.19338   0.47327   0.78734   0.00000  Uiso   1.00
Zn686  Zn    0.13379   0.45791   0.71875   0.00000  Uiso   1.00
Zn687  Zn    0.21056   0.53109   0.70657   0.00000  Uiso   1.00
Zn688  Zn    0.12893   0.53773   0.78733   0.00000  Uiso   1.00
O689   O     0.16667   0.50000   0.75000   0.00000  Uiso   1.00
O690   O     0.07071   0.52211   0.78213   0.00000  Uiso   1.00
O691   O     0.25491   0.48559   0.77013   0.00000  Uiso   1.00
O692   O     0.13760   0.40277   0.73413   0.00000  Uiso   1.00
O693   O     0.20345   0.58953   0.71360   0.00000  Uiso   1.00
O694   O     0.15451   0.45970   0.65458   0.00000  Uiso   1.00
O695   O     0.12940   0.53724   0.84968   0.00000  Uiso   1.00
O696   O     0.20824   0.51092   0.64606   0.00000  Uiso   1.00
O697   O     0.17451   0.49213   0.84968   0.00000  Uiso   1.00
O698   O     0.17930   0.41352   0.78213   0.00000  Uiso   1.00
O699   O     0.14632   0.59418   0.77013   0.00000  Uiso   1.00
O700   O     0.07412   0.46625   0.73413   0.00000  Uiso   1.00
O701   O     0.26693   0.52605   0.71360   0.00000  Uiso   1.00
C702   C     0.05283   0.49314   0.75990   0.00000  Uiso   1.00
C703   C     0.28085   0.50717   0.73989   0.00000  Uiso   1.00
C704   C     0.15583   0.38936   0.76072   0.00000  Uiso   1.00
C705   C     0.17631   0.61117   0.73937   0.00000  Uiso   1.00
C706   C     0.18542   0.48181   0.62955   0.00000  Uiso   1.00
C707   C     0.14911   0.51843   0.87066   0.00000  Uiso   1.00
C708   C     0.24349   0.46671   0.51095   0.00000  Uiso   1.00
H709   H     0.25057   0.44927   0.57235   0.00000  Uiso   1.00
H710   H     0.26656   0.48726   0.92744   0.00000  Uiso   1.00
H711   H     0.27428   0.45730   0.99233   0.00000  Uiso   1.00
C712   C     0.19238   0.47732   0.58166   0.00000  Uiso   1.00
C713   C     0.09493   0.52801   0.94163   0.00000  Uiso   1.00
C714   C     0.07863   0.52065   0.98630   0.00000  Uiso   1.00
C715   C     0.10475   0.50823   0.50989   0.00000  Uiso   1.00
C716   C     0.14915   0.50655   0.99037   0.00000  Uiso   1.00
C717   C     0.16554   0.51310   0.94427   0.00000  Uiso   1.00
C718   C     0.17706   0.49541   0.51432   0.00000  Uiso   1.00
C719   C     0.21802   0.48432   0.98999   0.00000  Uiso   1.00
C720   C     0.23410   0.49266   0.94537   0.00000  Uiso   1.00
C721   C     0.20918   0.50932   0.92365   0.00000  Uiso   1.00
C722   C     0.16648   0.49570   0.56148   0.00000  Uiso   1.00
C723   C     0.23000   0.46203   0.55635   0.00000  Uiso   1.00
C724   C     0.13753   0.52210   0.91964   0.00000  Uiso   1.00
H725   H     0.07304   0.53502   0.92344   0.00000  Uiso   1.00
H726   H     0.08894   0.49835   0.54278   0.00000  Uiso   1.00
H727   H     0.04491   0.52249   0.50215   0.00000  Uiso   1.00
H728   H     0.22447   0.51821   0.89017   0.00000  Uiso   1.00
C729   C     0.32685   0.50975   0.73551   0.00000  Uiso   1.00
H730   H     0.01610   0.52697   0.70911   0.00000  Uiso   1.00
C731   C     0.00747   0.49090   0.76392   0.00000  Uiso   1.00
H732   H     0.31886   0.47392   0.79085   0.00000  Uiso   1.00
C733   C     0.17982   0.65559   0.73346   0.00000  Uiso   1.00
C734   C     0.15355   0.34531   0.76376   0.00000  Uiso   1.00
H735   H     0.13100   0.66532   0.79282   0.00000  Uiso   1.00
N736   N     0.21085   0.33994   0.69540   0.00000  Uiso   1.00
O737   O     0.21892   0.65181   0.65719   0.00000  Uiso   1.00
O738   O     0.23365   0.37587   0.69948   0.00000  Uiso   1.00
N739   N     0.13583   0.52154   0.58885   0.00000  Uiso   1.00
O740   O     0.10545   0.50654   0.62189   0.00000  Uiso   1.00
O741   O     0.13891   0.56059   0.58127   0.00000  Uiso   1.00
Zn742  Zn    0.52672   0.47327   0.78734   0.00000  Uiso   1.00
Zn743  Zn    0.46713   0.45791   0.71875   0.00000  Uiso   1.00
Zn744  Zn    0.54389   0.53109   0.70657   0.00000  Uiso   1.00
Zn745  Zn    0.46226   0.53773   0.78733   0.00000  Uiso   1.00
O746   O     0.50000   0.50000   0.75000   0.00000  Uiso   1.00
O747   O     0.40405   0.52211   0.78213   0.00000  Uiso   1.00
O748   O     0.58824   0.48559   0.77013   0.00000  Uiso   1.00
O749   O     0.47093   0.40277   0.73413   0.00000  Uiso   1.00
O750   O     0.53678   0.58953   0.71360   0.00000  Uiso   1.00
O751   O     0.48784   0.45970   0.65458   0.00000  Uiso   1.00
O752   O     0.46274   0.53724   0.84968   0.00000  Uiso   1.00
O753   O     0.54157   0.51092   0.64606   0.00000  Uiso   1.00
O754   O     0.50785   0.49213   0.84968   0.00000  Uiso   1.00
O755   O     0.51264   0.41352   0.78213   0.00000  Uiso   1.00
O756   O     0.47965   0.59418   0.77013   0.00000  Uiso   1.00
O757   O     0.40745   0.46625   0.73413   0.00000  Uiso   1.00
O758   O     0.60026   0.52605   0.71360   0.00000  Uiso   1.00
C759   C     0.38616   0.49314   0.75990   0.00000  Uiso   1.00
C760   C     0.61419   0.50717   0.73989   0.00000  Uiso   1.00
C761   C     0.48916   0.38936   0.76072   0.00000  Uiso   1.00
C762   C     0.50965   0.61117   0.73937   0.00000  Uiso   1.00
C763   C     0.51876   0.48181   0.62955   0.00000  Uiso   1.00
C764   C     0.48244   0.51843   0.87066   0.00000  Uiso   1.00
C765   C     0.57683   0.46671   0.51095   0.00000  Uiso   1.00
H766   H     0.58391   0.44927   0.57235   0.00000  Uiso   1.00
H767   H     0.59990   0.48726   0.92744   0.00000  Uiso   1.00
H768   H     0.60761   0.45730   0.99233   0.00000  Uiso   1.00
C769   C     0.52572   0.47732   0.58166   0.00000  Uiso   1.00
C770   C     0.42826   0.52801   0.94163   0.00000  Uiso   1.00
C771   C     0.41197   0.52065   0.98630   0.00000  Uiso   1.00
C772   C     0.43809   0.50823   0.50989   0.00000  Uiso   1.00
C773   C     0.48249   0.50655   0.99037   0.00000  Uiso   1.00
C774   C     0.49888   0.51310   0.94427   0.00000  Uiso   1.00
C775   C     0.51039   0.49541   0.51432   0.00000  Uiso   1.00
C776   C     0.55136   0.48432   0.98999   0.00000  Uiso   1.00
C777   C     0.56743   0.49266   0.94537   0.00000  Uiso   1.00
C778   C     0.54251   0.50932   0.92365   0.00000  Uiso   1.00
C779   C     0.49982   0.49570   0.56148   0.00000  Uiso   1.00
C780   C     0.56334   0.46203   0.55635   0.00000  Uiso   1.00
C781   C     0.47086   0.52210   0.91964   0.00000  Uiso   1.00
H782   H     0.40637   0.53502   0.92344   0.00000  Uiso   1.00
H783   H     0.42227   0.49835   0.54278   0.00000  Uiso   1.00
H784   H     0.37824   0.52249   0.50215   0.00000  Uiso   1.00
H785   H     0.55781   0.51821   0.89017   0.00000  Uiso   1.00
C786   C     0.66019   0.50975   0.73551   0.00000  Uiso   1.00
H787   H     0.34944   0.52697   0.70911   0.00000  Uiso   1.00
C788   C     0.34081   0.49090   0.76392   0.00000  Uiso   1.00
H789   H     0.65220   0.47392   0.79085   0.00000  Uiso   1.00
C790   C     0.51315   0.65559   0.73346   0.00000  Uiso   1.00
C791   C     0.48688   0.34531   0.76376   0.00000  Uiso   1.00
H792   H     0.46433   0.66532   0.79282   0.00000  Uiso   1.00
N793   N     0.54419   0.33994   0.69540   0.00000  Uiso   1.00
O794   O     0.55226   0.65181   0.65719   0.00000  Uiso   1.00
O795   O     0.56698   0.37587   0.69948   0.00000  Uiso   1.00
N796   N     0.46916   0.52154   0.58885   0.00000  Uiso   1.00
O797   O     0.43878   0.50654   0.62189   0.00000  Uiso   1.00
O798   O     0.47224   0.56059   0.58127   0.00000  Uiso   1.00
Zn799  Zn    0.86005   0.47327   0.78734   0.00000  Uiso   1.00
Zn800  Zn    0.80046   0.45791   0.71875   0.00000  Uiso   1.00
Zn801  Zn    0.87723   0.53109   0.70657   0.00000  Uiso   1.00
Zn802  Zn    0.79560   0.53773   0.78733   0.00000  Uiso   1.00
O803   O     0.83333   0.50000   0.75000   0.00000  Uiso   1.00
O804   O     0.73738   0.52211   0.78213   0.00000  Uiso   1.00
O805   O     0.92158   0.48559   0.77013   0.00000  Uiso   1.00
O806   O     0.80426   0.40277   0.73413   0.00000  Uiso   1.00
O807   O     0.87012   0.58953   0.71360   0.00000  Uiso   1.00
O808   O     0.82118   0.45970   0.65458   0.00000  Uiso   1.00
O809   O     0.79607   0.53724   0.84968   0.00000  Uiso   1.00
O810   O     0.87491   0.51092   0.64606   0.00000  Uiso   1.00
O811   O     0.84118   0.49213   0.84968   0.00000  Uiso   1.00
O812   O     0.84597   0.41352   0.78213   0.00000  Uiso   1.00
O813   O     0.81298   0.59418   0.77013   0.00000  Uiso   1.00
O814   O     0.74078   0.46625   0.73413   0.00000  Uiso   1.00
O815   O     0.93360   0.52605   0.71360   0.00000  Uiso   1.00
C816   C     0.71949   0.49314   0.75990   0.00000  Uiso   1.00
C817   C     0.94752   0.50717   0.73989   0.00000  Uiso   1.00
C818   C     0.82250   0.38936   0.76072   0.00000  Uiso   1.00
C819   C     0.84298   0.61117   0.73937   0.00000  Uiso   1.00
C820   C     0.85209   0.48181   0.62955   0.00000  Uiso   1.00
C821   C     0.81578   0.51843   0.87066   0.00000  Uiso   1.00
C822   C     0.91016   0.46671   0.51095   0.00000  Uiso   1.00
H823   H     0.91724   0.44927   0.57235   0.00000  Uiso   1.00
H824   H     0.93323   0.48726   0.92744   0.00000  Uiso   1.00
H825   H     0.94095   0.45730   0.99233   0.00000  Uiso   1.00
C826   C     0.85905   0.47732   0.58166   0.00000  Uiso   1.00
C827   C     0.76159   0.52801   0.94163   0.00000  Uiso   1.00
C828   C     0.74530   0.52065   0.98630   0.00000  Uiso   1.00
C829   C     0.77142   0.50823   0.50989   0.00000  Uiso   1.00
C830   C     0.81582   0.50655   0.99037   0.00000  Uiso   1.00
C831   C     0.83221   0.51310   0.94427   0.00000  Uiso   1.00
C832   C     0.84372   0.49541   0.51432   0.00000  Uiso   1.00
C833   C     0.88469   0.48432   0.98999   0.00000  Uiso   1.00
C834   C     0.90077   0.49266   0.94537   0.00000  Uiso   1.00
C835   C     0.87585   0.50932   0.92365   0.00000  Uiso   1.00
C836   C     0.83315   0.49570   0.56148   0.00000  Uiso   1.00
C837   C     0.89667   0.46203   0.55635   0.00000  Uiso   1.00
C838   C     0.80419   0.52210   0.91964   0.00000  Uiso   1.00
H839   H     0.73970   0.53502   0.92344   0.00000  Uiso   1.00
H840   H     0.75561   0.49835   0.54278   0.00000  Uiso   1.00
H841   H     0.71158   0.52249   0.50215   0.00000  Uiso   1.00
H842   H     0.89114   0.51821   0.89017   0.00000  Uiso   1.00
C843   C     0.99352   0.50975   0.73551   0.00000  Uiso   1.00
H844   H     0.68277   0.52697   0.70911   0.00000  Uiso   1.00
C845   C     0.67414   0.49090   0.76392   0.00000  Uiso   1.00
H846   H     0.98553   0.47392   0.79085   0.00000  Uiso   1.00
C847   C     0.84649   0.65559   0.73346   0.00000  Uiso   1.00
C848   C     0.82021   0.34531   0.76376   0.00000  Uiso   1.00
H849   H     0.79766   0.66532   0.79282   0.00000  Uiso   1.00
N850   N     0.87752   0.33994   0.69540   0.00000  Uiso   1.00
O851   O     0.88559   0.65181   0.65719   0.00000  Uiso   1.00
O852   O     0.90031   0.37587   0.69948   0.00000  Uiso   1.00
N853   N     0.80250   0.52154   0.58885   0.00000  Uiso   1.00
O854   O     0.77212   0.50654   0.62189   0.00000  Uiso   1.00
O855   O     0.80557   0.56059   0.58127   0.00000  Uiso   1.00
Zn856  Zn    0.19338   0.80661   0.78734   0.00000  Uiso   1.00
Zn857  Zn    0.13379   0.79124   0.71875   0.00000  Uiso   1.00
Zn858  Zn    0.21056   0.86442   0.70657   0.00000  Uiso   1.00
Zn859  Zn    0.12893   0.87106   0.78733   0.00000  Uiso   1.00
O860   O     0.16667   0.83333   0.75000   0.00000  Uiso   1.00
O861   O     0.07071   0.85544   0.78213   0.00000  Uiso   1.00
O862   O     0.25491   0.81892   0.77013   0.00000  Uiso   1.00
O863   O     0.13760   0.73610   0.73413   0.00000  Uiso   1.00
O864   O     0.20345   0.92286   0.71360   0.00000  Uiso   1.00
O865   O     0.15451   0.79304   0.65458   0.00000  Uiso   1.00
O866   O     0.12940   0.87058   0.84968   0.00000  Uiso   1.00
O867   O     0.20824   0.84425   0.64606   0.00000  Uiso   1.00
O868   O     0.17451   0.82546   0.84968   0.00000  Uiso   1.00
O869   O     0.17930   0.74686   0.78213   0.00000  Uiso   1.00
O870   O     0.14632   0.92751   0.77013   0.00000  Uiso   1.00
O871   O     0.07412   0.79958   0.73413   0.00000  Uiso   1.00
O872   O     0.26693   0.85939   0.71360   0.00000  Uiso   1.00
C873   C     0.05283   0.82648   0.75990   0.00000  Uiso   1.00
C874   C     0.28085   0.84051   0.73989   0.00000  Uiso   1.00
C875   C     0.15583   0.72270   0.76072   0.00000  Uiso   1.00
C876   C     0.17631   0.94451   0.73937   0.00000  Uiso   1.00
C877   C     0.18542   0.81514   0.62955   0.00000  Uiso   1.00
C878   C     0.14911   0.85177   0.87066   0.00000  Uiso   1.00
C879   C     0.24349   0.80004   0.51095   0.00000  Uiso   1.00
H880   H     0.25057   0.78261   0.57235   0.00000  Uiso   1.00
H881   H     0.26656   0.82059   0.92744   0.00000  Uiso   1.00
H882   H     0.27428   0.79063   0.99233   0.00000  Uiso   1.00
C883   C     0.19238   0.81065   0.58166   0.00000  Uiso   1.00
C884   C     0.09493   0.86135   0.94163   0.00000  Uiso   1.00
C885   C     0.07863   0.85399   0.98630   0.00000  Uiso   1.00
C886   C     0.10475   0.84157   0.50989   0.00000  Uiso   1.00
C887   C     0.14915   0.83988   0.99037   0.00000  Uiso   1.00
C888   C     0.16554   0.84643   0.94427   0.00000  Uiso   1.00
C889   C     0.17706   0.82875   0.51432   0.00000  Uiso   1.00
C890   C     0.21802   0.81765   0.98999   0.00000  Uiso   1.00
C891   C     0.23410   0.82599   0.94537   0.00000  Uiso   1.00
C892   C     0.20918   0.84265   0.92365   0.00000  Uiso   1.00
C893   C     0.16648   0.82903   0.56148   0.00000  Uiso   1.00
C894   C     0.23000   0.79537   0.55635   0.00000  Uiso   1.00
C895   C     0.13753   0.85543   0.91964   0.00000  Uiso   1.00
H896   H     0.07304   0.86836   0.92344   0.00000  Uiso   1.00
H897   H     0.08894   0.83169   0.54278   0.00000  Uiso   1.00
H898   H     0.04491   0.85582   0.50215   0.00000  Uiso   1.00
H899   H     0.22447   0.85154   0.89017   0.00000  Uiso   1.00
C900   C     0.32685   0.84308   0.73551   0.00000  Uiso   1.00
H901   H     0.01610   0.86030   0.70911   0.00000  Uiso   1.00
C902   C     0.00747   0.82424   0.76392   0.00000  Uiso   1.00
H903   H     0.31886   0.80725   0.79085   0.00000  Uiso   1.00
C904   C     0.17982   0.98892   0.73346   0.00000  Uiso   1.00
C905   C     0.15355   0.67865   0.76376   0.00000  Uiso   1.00
H906   H     0.13100   0.99865   0.79282   0.00000  Uiso   1.00
N907   N     0.21085   0.67327   0.69540   0.00000  Uiso   1.00
O908   O     0.21892   0.98514   0.65719   0.00000  Uiso   1.00
O909   O     0.23365   0.70920   0.69948   0.00000  Uiso   1.00
N910   N     0.13583   0.85487   0.58885   0.00000  Uiso   1.00
O911   O     0.10545   0.83987   0.62189   0.00000  Uiso   1.00
O912   O     0.13891   0.89392   0.58127   0.00000  Uiso   1.00
Zn913  Zn    0.52672   0.80661   0.78734   0.00000  Uiso   1.00
Zn914  Zn    0.46713   0.79124   0.71875   0.00000  Uiso   1.00
Zn915  Zn    0.54389   0.86442   0.70657   0.00000  Uiso   1.00
Zn916  Zn    0.46226   0.87106   0.78733   0.00000  Uiso   1.00
O917   O     0.50000   0.83333   0.75000   0.00000  Uiso   1.00
O918   O     0.40405   0.85544   0.78213   0.00000  Uiso   1.00
O919   O     0.58824   0.81892   0.77013   0.00000  Uiso   1.00
O920   O     0.47093   0.73610   0.73413   0.00000  Uiso   1.00
O921   O     0.53678   0.92286   0.71360   0.00000  Uiso   1.00
O922   O     0.48784   0.79304   0.65458   0.00000  Uiso   1.00
O923   O     0.46274   0.87058   0.84968   0.00000  Uiso   1.00
O924   O     0.54157   0.84425   0.64606   0.00000  Uiso   1.00
O925   O     0.50785   0.82546   0.84968   0.00000  Uiso   1.00
O926   O     0.51264   0.74686   0.78213   0.00000  Uiso   1.00
O927   O     0.47965   0.92751   0.77013   0.00000  Uiso   1.00
O928   O     0.40745   0.79958   0.73413   0.00000  Uiso   1.00
O929   O     0.60026   0.85939   0.71360   0.00000  Uiso   1.00
C930   C     0.38616   0.82648   0.75990   0.00000  Uiso   1.00
C931   C     0.61419   0.84051   0.73989   0.00000  Uiso   1.00
C932   C     0.48916   0.72270   0.76072   0.00000  Uiso   1.00
C933   C     0.50965   0.94451   0.73937   0.00000  Uiso   1.00
C934   C     0.51876   0.81514   0.62955   0.00000  Uiso   1.00
C935   C     0.48244   0.85177   0.87066   0.00000  Uiso   1.00
C936   C     0.57683   0.80004   0.51095   0.00000  Uiso   1.00
H937   H     0.58391   0.78261   0.57235   0.00000  Uiso   1.00
H938   H     0.59990   0.82059   0.92744   0.00000  Uiso   1.00
H939   H     0.60761   0.79063   0.99233   0.00000  Uiso   1.00
C940   C     0.52572   0.81065   0.58166   0.00000  Uiso   1.00
C941   C     0.42826   0.86135   0.94163   0.00000  Uiso   1.00
C942   C     0.41197   0.85399   0.98630   0.00000  Uiso   1.00
C943   C     0.43809   0.84157   0.50989   0.00000  Uiso   1.00
C944   C     0.48249   0.83988   0.99037   0.00000  Uiso   1.00
C945   C     0.49888   0.84643   0.94427   0.00000  Uiso   1.00
C946   C     0.51039   0.82875   0.51432   0.00000  Uiso   1.00
C947   C     0.55136   0.81765   0.98999   0.00000  Uiso   1.00
C948   C     0.56743   0.82599   0.94537   0.00000  Uiso   1.00
C949   C     0.54251   0.84265   0.92365   0.00000  Uiso   1.00
C950   C     0.49982   0.82903   0.56148   0.00000  Uiso   1.00
C951   C     0.56334   0.79537   0.55635   0.00000  Uiso   1.00
C952   C     0.47086   0.85543   0.91964   0.00000  Uiso   1.00
H953   H     0.40637   0.86836   0.92344   0.00000  Uiso   1.00
H954   H     0.42227   0.83169   0.54278   0.00000  Uiso   1.00
H955   H     0.37824   0.85582   0.50215   0.00000  Uiso   1.00
H956   H     0.55781   0.85154   0.89017   0.00000  Uiso   1.00
C957   C     0.66019   0.84308   0.73551   0.00000  Uiso   1.00
H958   H     0.34944   0.86030   0.70911   0.00000  Uiso   1.00
C959   C     0.34081   0.82424   0.76392   0.00000  Uiso   1.00
H960   H     0.65220   0.80725   0.79085   0.00000  Uiso   1.00
C961   C     0.51315   0.98892   0.73346   0.00000  Uiso   1.00
C962   C     0.48688   0.67865   0.76376   0.00000  Uiso   1.00
H963   H     0.46433   0.99865   0.79282   0.00000  Uiso   1.00
N964   N     0.54419   0.67327   0.69540   0.00000  Uiso   1.00
O965   O     0.55226   0.98514   0.65719   0.00000  Uiso   1.00
O966   O     0.56698   0.70920   0.69948   0.00000  Uiso   1.00
N967   N     0.46916   0.85487   0.58885   0.00000  Uiso   1.00
O968   O     0.43878   0.83987   0.62189   0.00000  Uiso   1.00
O969   O     0.47224   0.89392   0.58127   0.00000  Uiso   1.00
Zn970  Zn    0.86005   0.80661   0.78734   0.00000  Uiso   1.00
Zn971  Zn    0.80046   0.79124   0.71875   0.00000  Uiso   1.00
Zn972  Zn    0.87723   0.86442   0.70657   0.00000  Uiso   1.00
Zn973  Zn    0.79560   0.87106   0.78733   0.00000  Uiso   1.00
O974   O     0.83333   0.83333   0.75000   0.00000  Uiso   1.00
O975   O     0.73738   0.85544   0.78213   0.00000  Uiso   1.00
O976   O     0.92158   0.81892   0.77013   0.00000  Uiso   1.00
O977   O     0.80426   0.73610   0.73413   0.00000  Uiso   1.00
O978   O     0.87012   0.92286   0.71360   0.00000  Uiso   1.00
O979   O     0.82118   0.79304   0.65458   0.00000  Uiso   1.00
O980   O     0.79607   0.87058   0.84968   0.00000  Uiso   1.00
O981   O     0.87491   0.84425   0.64606   0.00000  Uiso   1.00
O982   O     0.84118   0.82546   0.84968   0.00000  Uiso   1.00
O983   O     0.84597   0.74686   0.78213   0.00000  Uiso   1.00
O984   O     0.81298   0.92751   0.77013   0.00000  Uiso   1.00
O985   O     0.74078   0.79958   0.73413   0.00000  Uiso   1.00
O986   O     0.93360   0.85939   0.71360   0.00000  Uiso   1.00
C987   C     0.71949   0.82648   0.75990   0.00000  Uiso   1.00
C988   C     0.94752   0.84051   0.73989   0.00000  Uiso   1.00
C989   C     0.82250   0.72270   0.76072   0.00000  Uiso   1.00
C990   C     0.84298   0.94451   0.73937   0.00000  Uiso   1.00
C991   C     0.85209   0.81514   0.62955   0.00000  Uiso   1.00
C992   C     0.81578   0.85177   0.87066   0.00000  Uiso   1.00
C993   C     0.91016   0.80004   0.51095   0.00000  Uiso   1.00
H994   H     0.91724   0.78261   0.57235   0.00000  Uiso   1.00
H995   H     0.93323   0.82059   0.92744   0.00000  Uiso   1.00
H996   H     0.94095   0.79063   0.99233   0.00000  Uiso   1.00
C997   C     0.85905   0.81065   0.58166   0.00000  Uiso   1.00
C998   C     0.76159   0.86135   0.94163   0.00000  Uiso   1.00
C999   C     0.74530   0.85399   0.98630   0.00000  Uiso   1.00
C1000  C     0.77142   0.84157   0.50989   0.00000  Uiso   1.00
C1001  C     0.81582   0.83988   0.99037   0.00000  Uiso   1.00
C1002  C     0.83221   0.84643   0.94427   0.00000  Uiso   1.00
C1003  C     0.84372   0.82875   0.51432   0.00000  Uiso   1.00
C1004  C     0.88469   0.81765   0.98999   0.00000  Uiso   1.00
C1005  C     0.90077   0.82599   0.94537   0.00000  Uiso   1.00
C1006  C     0.87585   0.84265   0.92365   0.00000  Uiso   1.00
C1007  C     0.83315   0.82903   0.56148   0.00000  Uiso   1.00
C1008  C     0.89667   0.79537   0.55635   0.00000  Uiso   1.00
C1009  C     0.80419   0.85543   0.91964   0.00000  Uiso   1.00
H1010  H     0.73970   0.86836   0.92344   0.00000  Uiso   1.00
H1011  H     0.75561   0.83169   0.54278   0.00000  Uiso   1.00
H1012  H     0.71158   0.85582   0.50215   0.00000  Uiso   1.00
H1013  H     0.89114   0.85154   0.89017   0.00000  Uiso   1.00
C1014  C     0.99352   0.84308   0.73551   0.00000  Uiso   1.00
H1015  H     0.68277   0.86030   0.70911   0.00000  Uiso   1.00
C1016  C     0.67414   0.82424   0.76392   0.00000  Uiso   1.00
H1017  H     0.98553   0.80725   0.79085   0.00000  Uiso   1.00
C1018  C     0.84649   0.98892   0.73346   0.00000  Uiso   1.00
C1019  C     0.82021   0.67865   0.76376   0.00000  Uiso   1.00
H1020  H     0.79766   0.99865   0.79282   0.00000  Uiso   1.00
N1021  N     0.87752   0.67327   0.69540   0.00000  Uiso   1.00
O1022  O     0.88559   0.98514   0.65719   0.00000  Uiso   1.00
O1023  O     0.90031   0.70920   0.69948   0.00000  Uiso   1.00
N1024  N     0.80250   0.85487   0.58885   0.00000  Uiso   1.00
O1025  O     0.77212   0.83987   0.62189   0.00000  Uiso   1.00
O1026  O     0.80557   0.89392   0.58127   0.00000  Uiso   1.00
loop_
_geom_bond_atom_site_label_1
_geom_bond_atom_site_label_2
_geom_bond_distance
_geom_bond_site_symmetry_2
_ccdc_geom_bond_type
Zn1    O5      1.963   .     S
Zn1    O13     1.940   .     S
Zn1    O14     1.930   .     S
Zn1    O7      1.919   .     S
Zn2    O16     1.923   .     S
Zn2    O5      1.953   .     S
Zn2    O8      1.935   .     S
Zn2    O10     1.940   .     S
Zn3    O9      1.933   .     S
Zn3    O12     1.952   .     S
Zn3    O17     1.936   .     S
Zn3    O5      1.929   .     S
Zn4    O15     1.929   .     S
Zn4    O11     1.953   .     S
Zn4    O6      1.931   .     S
Zn4    O5      1.937   .     S
O6     C18     1.275   .     A
O7     C19     1.278   .     A
O8     C20     1.284   .     A
O9     C21     1.268   .     A
O10    C22     1.273   .     A
O11    C23     1.281   .     A
O12    C22     1.268   .     A
O13    C23     1.283   .     A
O14    C20     1.278   .     A
O15    C21     1.276   .     A
O16    C18     1.276   .     A
O17    C19     1.282   .     A
C18    C47     1.437   .     S
C19    C45     1.455   .     S
C20    C50     1.437   .     S
C21    C49     1.460   .     S
C22    C28     1.447   .     S
C23    C40     1.471   .     S
C24    C39     1.385   .     A
C24    H540    1.084   1_554 S
C24    C548    1.398   1_554 S
H25    C39     1.084   .     S
H26    C36     1.084   .     S
H27    C537    1.084   .     S
C28    C38     1.407   .     A
C28    C39     1.396   .     A
C29    C30     1.386   .     A
C29    C40     1.403   .     A
C29    H41     1.083   .     S
C30    C544    1.389   .     S
C30    H556    1.083   .     S
C31    H42     1.077   .     S
C31    C543    1.389   1_554 S
C31    C545    1.415   1_554 S
C32    C33     1.422   .     A
C32    C544    1.415   .     S
C32    C547    1.426   .     S
C33    C40     1.418   .     A
C33    C37     1.410   .     A
C34    C38     1.419   .     A
C34    C545    1.426   1_554 S
C34    C548    1.423   1_554 S
C35    C36     1.391   .     A
C35    C537    1.398   .     S
C35    C547    1.423   .     S
C36    C37     1.383   .     A
C37    H44     1.080   .     S
C38    N55     1.440   .     S
H43    C543    1.083   1_554 S
C45    H103    1.088   .     S
C45    C104    1.335   .     S
H46    C159    1.088   1_455 S
C47    C159    1.335   1_455 S
C47    H162    1.086   1_455 S
H48    C104    1.086   .     S
C49    C221    1.340   .     S
C49    N223    1.446   .     S
C50    C391    1.340   1_545 S
C50    H393    1.086   1_545 S
H51    C221    1.086   .     S
N52    O54     1.302   .     A
N52    C391    1.446   1_545 S
N52    O395    1.301   1_545 S
O53    N223    1.301   .     S
N55    O56     1.302   .     A
N55    O57     1.302   .     A
Zn58   O62     1.963   .     S
Zn58   O70     1.940   .     S
Zn58   O71     1.930   .     S
Zn58   O64     1.919   .     S
Zn59   O73     1.923   .     S
Zn59   O62     1.953   .     S
Zn59   O65     1.935   .     S
Zn59   O67     1.940   .     S
Zn60   O66     1.933   .     S
Zn60   O69     1.952   .     S
Zn60   O74     1.936   .     S
Zn60   O62     1.929   .     S
Zn61   O72     1.929   .     S
Zn61   O68     1.953   .     S
Zn61   O63     1.931   .     S
Zn61   O62     1.937   .     S
O63    C75     1.275   .     A
O64    C76     1.278   .     A
O65    C77     1.284   .     A
O66    C78     1.268   .     A
O67    C79     1.273   .     A
O68    C80     1.281   .     A
O69    C79     1.268   .     A
O70    C80     1.283   .     A
O71    C77     1.278   .     A
O72    C78     1.276   .     A
O73    C75     1.276   .     A
O74    C76     1.282   .     A
C75    C104    1.437   .     S
C76    C102    1.455   .     S
C77    C107    1.437   .     S
C78    C106    1.460   .     S
C79    C85     1.447   .     S
C80    C97     1.471   .     S
C81    C96     1.385   .     A
C81    H597    1.084   1_554 S
C81    C605    1.398   1_554 S
H82    C96     1.084   .     S
H83    C93     1.084   .     S
H84    C594    1.084   .     S
C85    C95     1.407   .     A
C85    C96     1.396   .     A
C86    C87     1.386   .     A
C86    C97     1.403   .     A
C86    H98     1.083   .     S
C87    C601    1.389   .     S
C87    H613    1.083   .     S
C88    H99     1.077   .     S
C88    C600    1.389   1_554 S
C88    C602    1.415   1_554 S
C89    C90     1.422   .     A
C89    C601    1.415   .     S
C89    C604    1.426   .     S
C90    C97     1.418   .     A
C90    C94     1.410   .     A
C91    C95     1.419   .     A
C91    C602    1.426   1_554 S
C91    C605    1.423   1_554 S
C92    C93     1.391   .     A
C92    C594    1.398   .     S
C92    C604    1.423   .     S
C93    C94     1.383   .     A
C94    H101    1.080   .     S
C95    N112    1.440   .     S
H100   C600    1.083   1_554 S
C102   H160    1.088   .     S
C102   C161    1.335   .     S
H105   C161    1.086   .     S
C106   C278    1.340   .     S
C106   N280    1.446   .     S
C107   C448    1.340   1_545 S
C107   H450    1.086   1_545 S
H108   C278    1.086   .     S
N109   O111    1.302   .     A
N109   C448    1.446   1_545 S
N109   O452    1.301   1_545 S
O110   N280    1.301   .     S
N112   O113    1.302   .     A
N112   O114    1.302   .     A
Zn115  O119    1.963   .     S
Zn115  O127    1.940   .     S
Zn115  O128    1.930   .     S
Zn115  O121    1.919   .     S
Zn116  O130    1.923   .     S
Zn116  O119    1.953   .     S
Zn116  O122    1.935   .     S
Zn116  O124    1.940   .     S
Zn117  O123    1.933   .     S
Zn117  O126    1.952   .     S
Zn117  O131    1.936   .     S
Zn117  O119    1.929   .     S
Zn118  O129    1.929   .     S
Zn118  O125    1.953   .     S
Zn118  O120    1.931   .     S
Zn118  O119    1.937   .     S
O120   C132    1.275   .     A
O121   C133    1.278   .     A
O122   C134    1.284   .     A
O123   C135    1.268   .     A
O124   C136    1.273   .     A
O125   C137    1.281   .     A
O126   C136    1.268   .     A
O127   C137    1.283   .     A
O128   C134    1.278   .     A
O129   C135    1.276   .     A
O130   C132    1.276   .     A
O131   C133    1.282   .     A
C132   C161    1.437   .     S
C133   C159    1.455   .     S
C134   C164    1.437   .     S
C135   C163    1.460   .     S
C136   C142    1.447   .     S
C137   C154    1.471   .     S
C138   C153    1.385   .     A
C138   H654    1.084   1_554 S
C138   C662    1.398   1_554 S
H139   C153    1.084   .     S
H140   C150    1.084   .     S
H141   C651    1.084   .     S
C142   C152    1.407   .     A
C142   C153    1.396   .     A
C143   C144    1.386   .     A
C143   C154    1.403   .     A
C143   H155    1.083   .     S
C144   C658    1.389   .     S
C144   H670    1.083   .     S
C145   H156    1.077   .     S
C145   C657    1.389   1_554 S
C145   C659    1.415   1_554 S
C146   C147    1.422   .     A
C146   C658    1.415   .     S
C146   C661    1.426   .     S
C147   C154    1.418   .     A
C147   C151    1.410   .     A
C148   C152    1.419   .     A
C148   C659    1.426   1_554 S
C148   C662    1.423   1_554 S
C149   C150    1.391   .     A
C149   C651    1.398   .     S
C149   C661    1.423   .     S
C150   C151    1.383   .     A
C151   H158    1.080   .     S
C152   N169    1.440   .     S
H157   C657    1.083   1_554 S
C159   H46     1.088   1_655 S
C159   C47     1.335   1_655 S
H162   C47     1.086   1_655 S
C163   C335    1.340   .     S
C163   N337    1.446   .     S
C164   C505    1.340   1_545 S
C164   H507    1.086   1_545 S
H165   C335    1.086   .     S
N166   O168    1.302   .     A
N166   C505    1.446   1_545 S
N166   O509    1.301   1_545 S
O167   N337    1.301   .     S
N169   O170    1.302   .     A
N169   O171    1.302   .     A
Zn172  O176    1.963   .     S
Zn172  O184    1.940   .     S
Zn172  O185    1.930   .     S
Zn172  O178    1.919   .     S
Zn173  O187    1.923   .     S
Zn173  O176    1.953   .     S
Zn173  O179    1.935   .     S
Zn173  O181    1.940   .     S
Zn174  O180    1.933   .     S
Zn174  O183    1.952   .     S
Zn174  O188    1.936   .     S
Zn174  O176    1.929   .     S
Zn175  O186    1.929   .     S
Zn175  O182    1.953   .     S
Zn175  O177    1.931   .     S
Zn175  O176    1.937   .     S
O177   C189    1.275   .     A
O178   C190    1.278   .     A
O179   C191    1.284   .     A
O180   C192    1.268   .     A
O181   C193    1.273   .     A
O182   C194    1.281   .     A
O183   C193    1.268   .     A
O184   C194    1.283   .     A
O185   C191    1.278   .     A
O186   C192    1.276   .     A
O187   C189    1.276   .     A
O188   C190    1.282   .     A
C189   C218    1.437   .     S
C190   C216    1.455   .     S
C191   C221    1.437   .     S
C192   C220    1.460   .     S
C193   C199    1.447   .     S
C194   C211    1.471   .     S
C195   C210    1.385   .     A
C195   H711    1.084   1_554 S
C195   C719    1.398   1_554 S
H196   C210    1.084   .     S
H197   C207    1.084   .     S
H198   C708    1.084   .     S
C199   C209    1.407   .     A
C199   C210    1.396   .     A
C200   C201    1.386   .     A
C200   C211    1.403   .     A
C200   H212    1.083   .     S
C201   C715    1.389   .     S
C201   H727    1.083   .     S
C202   H213    1.077   .     S
C202   C714    1.389   1_554 S
C202   C716    1.415   1_554 S
C203   C204    1.422   .     A
C203   C715    1.415   .     S
C203   C718    1.426   .     S
C204   C211    1.418   .     A
C204   C208    1.410   .     A
C205   C209    1.419   .     A
C205   C716    1.426   1_554 S
C205   C719    1.423   1_554 S
C206   C207    1.391   .     A
C206   C708    1.398   .     S
C206   C718    1.423   .     S
C207   C208    1.383   .     A
C208   H215    1.080   .     S
C209   N226    1.440   .     S
H214   C714    1.083   1_554 S
C216   H274    1.088   .     S
C216   C275    1.335   .     S
H217   C330    1.088   1_455 S
C218   C330    1.335   1_455 S
C218   H333    1.086   1_455 S
H219   C275    1.086   .     S
C220   C392    1.340   .     S
C220   N394    1.446   .     S
H222   C392    1.086   .     S
N223   O225    1.302   .     A
O224   N394    1.301   .     S
N226   O227    1.302   .     A
N226   O228    1.302   .     A
Zn229  O233    1.963   .     S
Zn229  O241    1.940   .     S
Zn229  O242    1.930   .     S
Zn229  O235    1.919   .     S
Zn230  O244    1.923   .     S
Zn230  O233    1.953   .     S
Zn230  O236    1.935   .     S
Zn230  O238    1.940   .     S
Zn231  O237    1.933   .     S
Zn231  O240    1.952   .     S
Zn231  O245    1.936   .     S
Zn231  O233    1.929   .     S
Zn232  O243    1.929   .     S
Zn232  O239    1.953   .     S
Zn232  O234    1.931   .     S
Zn232  O233    1.937   .     S
O234   C246    1.275   .     A
O235   C247    1.278   .     A
O236   C248    1.284   .     A
O237   C249    1.268   .     A
O238   C250    1.273   .     A
O239   C251    1.281   .     A
O240   C250    1.268   .     A
O241   C251    1.283   .     A
O242   C248    1.278   .     A
O243   C249    1.276   .     A
O244   C246    1.276   .     A
O245   C247    1.282   .     A
C246   C275    1.437   .     S
C247   C273    1.455   .     S
C248   C278    1.437   .     S
C249   C277    1.460   .     S
C250   C256    1.447   .     S
C251   C268    1.471   .     S
C252   C267    1.385   .     A
C252   H768    1.084   1_554 S
C252   C776    1.398   1_554 S
H253   C267    1.084   .     S
H254   C264    1.084   .     S
H255   C765    1.084   .     S
C256   C266    1.407   .     A
C256   C267    1.396   .     A
C257   C258    1.386   .     A
C257   C268    1.403   .     A
C257   H269    1.083   .     S
C258   C772    1.389   .     S
C258   H784    1.083   .     S
C259   H270    1.077   .     S
C259   C771    1.389   1_554 S
C259   C773    1.415   1_554 S
C260   C261    1.422   .     A
C260   C772    1.415   .     S
C260   C775    1.426   .     S
C261   C268    1.418   .     A
C261   C265    1.410   .     A
C262   C266    1.419   .     A
C262   C773    1.426   1_554 S
C262   C776    1.423   1_554 S
C263   C264    1.391   .     A
C263   C765    1.398   .     S
C263   C775    1.423   .     S
C264   C265    1.383   .     A
C265   H272    1.080   .     S
C266   N283    1.440   .     S
H271   C771    1.083   1_554 S
C273   H331    1.088   .     S
C273   C332    1.335   .     S
H276   C332    1.086   .     S
C277   C449    1.340   .     S
C277   N451    1.446   .     S
H279   C449    1.086   .     S
N280   O282    1.302   .     A
O281   N451    1.301   .     S
N283   O284    1.302   .     A
N283   O285    1.302   .     A
Zn286  O290    1.963   .     S
Zn286  O298    1.940   .     S
Zn286  O299    1.930   .     S
Zn286  O292    1.919   .     S
Zn287  O301    1.923   .     S
Zn287  O290    1.953   .     S
Zn287  O293    1.935   .     S
Zn287  O295    1.940   .     S
Zn288  O294    1.933   .     S
Zn288  O297    1.952   .     S
Zn288  O302    1.936   .     S
Zn288  O290    1.929   .     S
Zn289  O300    1.929   .     S
Zn289  O296    1.953   .     S
Zn289  O291    1.931   .     S
Zn289  O290    1.937   .     S
O291   C303    1.275   .     A
O292   C304    1.278   .     A
O293   C305    1.284   .     A
O294   C306    1.268   .     A
O295   C307    1.273   .     A
O296   C308    1.281   .     A
O297   C307    1.268   .     A
O298   C308    1.283   .     A
O299   C305    1.278   .     A
O300   C306    1.276   .     A
O301   C303    1.276   .     A
O302   C304    1.282   .     A
C303   C332    1.437   .     S
C304   C330    1.455   .     S
C305   C335    1.437   .     S
C306   C334    1.460   .     S
C307   C313    1.447   .     S
C308   C325    1.471   .     S
C309   C324    1.385   .     A
C309   H825    1.084   1_554 S
C309   C833    1.398   1_554 S
H310   C324    1.084   .     S
H311   C321    1.084   .     S
H312   C822    1.084   .     S
C313   C323    1.407   .     A
C313   C324    1.396   .     A
C314   C315    1.386   .     A
C314   C325    1.403   .     A
C314   H326    1.083   .     S
C315   C829    1.389   .     S
C315   H841    1.083   .     S
C316   H327    1.077   .     S
C316   C828    1.389   1_554 S
C316   C830    1.415   1_554 S
C317   C318    1.422   .     A
C317   C829    1.415   .     S
C317   C832    1.426   .     S
C318   C325    1.418   .     A
C318   C322    1.410   .     A
C319   C323    1.419   .     A
C319   C830    1.426   1_554 S
C319   C833    1.423   1_554 S
C320   C321    1.391   .     A
C320   C822    1.398   .     S
C320   C832    1.423   .     S
C321   C322    1.383   .     A
C322   H329    1.080   .     S
C323   N340    1.440   .     S
H328   C828    1.083   1_554 S
C330   H217    1.088   1_655 S
C330   C218    1.335   1_655 S
H333   C218    1.086   1_655 S
C334   C506    1.340   .     S
C334   N508    1.446   .     S
H336   C506    1.086   .     S
N337   O339    1.302   .     A
O338   N508    1.301   .     S
N340   O341    1.302   .     A
N340   O342    1.302   .     A
Zn343  O347    1.963   .     S
Zn343  O355    1.940   .     S
Zn343  O356    1.930   .     S
Zn343  O349    1.919   .     S
Zn344  O358    1.923   .     S
Zn344  O347    1.953   .     S
Zn344  O350    1.935   .     S
Zn344  O352    1.940   .     S
Zn345  O351    1.933   .     S
Zn345  O354    1.952   .     S
Zn345  O359    1.936   .     S
Zn345  O347    1.929   .     S
Zn346  O357    1.929   .     S
Zn346  O353    1.953   .     S
Zn346  O348    1.931   .     S
Zn346  O347    1.937   .     S
O348   C360    1.275   .     A
O349   C361    1.278   .     A
O350   C362    1.284   .     A
O351   C363    1.268   .     A
O352   C364    1.273   .     A
O353   C365    1.281   .     A
O354   C364    1.268   .     A
O355   C365    1.283   .     A
O356   C362    1.278   .     A
O357   C363    1.276   .     A
O358   C360    1.276   .     A
O359   C361    1.282   .     A
C360   C389    1.437   .     S
C361   C387    1.455   .     S
C362   C392    1.437   .     S
C363   C391    1.460   .     S
C364   C370    1.447   .     S
C365   C382    1.471   .     S
C366   C381    1.385   .     A
C366   H882    1.084   1_554 S
C366   C890    1.398   1_554 S
H367   C381    1.084   .     S
H368   C378    1.084   .     S
H369   C879    1.084   .     S
C370   C380    1.407   .     A
C370   C381    1.396   .     A
C371   C372    1.386   .     A
C371   C382    1.403   .     A
C371   H383    1.083   .     S
C372   C886    1.389   .     S
C372   H898    1.083   .     S
C373   H384    1.077   .     S
C373   C885    1.389   1_554 S
C373   C887    1.415   1_554 S
C374   C375    1.422   .     A
C374   C886    1.415   .     S
C374   C889    1.426   .     S
C375   C382    1.418   .     A
C375   C379    1.410   .     A
C376   C380    1.419   .     A
C376   C887    1.426   1_554 S
C376   C890    1.423   1_554 S
C377   C378    1.391   .     A
C377   C879    1.398   .     S
C377   C889    1.423   .     S
C378   C379    1.383   .     A
C379   H386    1.080   .     S
C380   N397    1.440   .     S
H385   C885    1.083   1_554 S
C387   H445    1.088   .     S
C387   C446    1.335   .     S
H388   C501    1.088   1_455 S
C389   C501    1.335   1_455 S
C389   H504    1.086   1_455 S
H390   C446    1.086   .     S
C391   C50     1.340   1_565 S
C391   N52     1.446   1_565 S
H393   C50     1.086   1_565 S
N394   O396    1.302   .     A
O395   N52     1.301   1_565 S
N397   O398    1.302   .     A
N397   O399    1.302   .     A
Zn400  O404    1.963   .     S
Zn400  O412    1.940   .     S
Zn400  O413    1.930   .     S
Zn400  O406    1.919   .     S
Zn401  O415    1.923   .     S
Zn401  O404    1.953   .     S
Zn401  O407    1.935   .     S
Zn401  O409    1.940   .     S
Zn402  O408    1.933   .     S
Zn402  O411    1.952   .     S
Zn402  O416    1.936   .     S
Zn402  O404    1.929   .     S
Zn403  O414    1.929   .     S
Zn403  O410    1.953   .     S
Zn403  O405    1.931   .     S
Zn403  O404    1.937   .     S
O405   C417    1.275   .     A
O406   C418    1.278   .     A
O407   C419    1.284   .     A
O408   C420    1.268   .     A
O409   C421    1.273   .     A
O410   C422    1.281   .     A
O411   C421    1.268   .     A
O412   C422    1.283   .     A
O413   C419    1.278   .     A
O414   C420    1.276   .     A
O415   C417    1.276   .     A
O416   C418    1.282   .     A
C417   C446    1.437   .     S
C418   C444    1.455   .     S
C419   C449    1.437   .     S
C420   C448    1.460   .     S
C421   C427    1.447   .     S
C422   C439    1.471   .     S
C423   C438    1.385   .     A
C423   H939    1.084   1_554 S
C423   C947    1.398   1_554 S
H424   C438    1.084   .     S
H425   C435    1.084   .     S
H426   C936    1.084   .     S
C427   C437    1.407   .     A
C427   C438    1.396   .     A
C428   C429    1.386   .     A
C428   C439    1.403   .     A
C428   H440    1.083   .     S
C429   C943    1.389   .     S
C429   H955    1.083   .     S
C430   H441    1.077   .     S
C430   C942    1.389   1_554 S
C430   C944    1.415   1_554 S
C431   C432    1.422   .     A
C431   C943    1.415   .     S
C431   C946    1.426   .     S
C432   C439    1.418   .     A
C432   C436    1.410   .     A
C433   C437    1.419   .     A
C433   C944    1.426   1_554 S
C433   C947    1.423   1_554 S
C434   C435    1.391   .     A
C434   C936    1.398   .     S
C434   C946    1.423   .     S
C435   C436    1.383   .     A
C436   H443    1.080   .     S
C437   N454    1.440   .     S
H442   C942    1.083   1_554 S
C444   H502    1.088   .     S
C444   C503    1.335   .     S
H447   C503    1.086   .     S
C448   C107    1.340   1_565 S
C448   N109    1.446   1_565 S
H450   C107    1.086   1_565 S
N451   O453    1.302   .     A
O452   N109    1.301   1_565 S
N454   O455    1.302   .     A
N454   O456    1.302   .     A
Zn457  O461    1.963   .     S
Zn457  O469    1.940   .     S
Zn457  O470    1.930   .     S
Zn457  O463    1.919   .     S
Zn458  O472    1.923   .     S
Zn458  O461    1.953   .     S
Zn458  O464    1.935   .     S
Zn458  O466    1.940   .     S
Zn459  O465    1.933   .     S
Zn459  O468    1.952   .     S
Zn459  O473    1.936   .     S
Zn459  O461    1.929   .     S
Zn460  O471    1.929   .     S
Zn460  O467    1.953   .     S
Zn460  O462    1.931   .     S
Zn460  O461    1.937   .     S
O462   C474    1.275   .     A
O463   C475    1.278   .     A
O464   C476    1.284   .     A
O465   C477    1.268   .     A
O466   C478    1.273   .     A
O467   C479    1.281   .     A
O468   C478    1.268   .     A
O469   C479    1.283   .     A
O470   C476    1.278   .     A
O471   C477    1.276   .     A
O472   C474    1.276   .     A
O473   C475    1.282   .     A
C474   C503    1.437   .     S
C475   C501    1.455   .     S
C476   C506    1.437   .     S
C477   C505    1.460   .     S
C478   C484    1.447   .     S
C479   C496    1.471   .     S
C480   C495    1.385   .     A
C480   H996    1.084   1_554 S
C480   C1004   1.398   1_554 S
H481   C495    1.084   .     S
H482   C492    1.084   .     S
H483   C993    1.084   .     S
C484   C494    1.407   .     A
C484   C495    1.396   .     A
C485   C486    1.386   .     A
C485   C496    1.403   .     A
C485   H497    1.083   .     S
C486   C1000   1.389   .     S
C486   H1012   1.083   .     S
C487   H498    1.077   .     S
C487   C999    1.389   1_554 S
C487   C1001   1.415   1_554 S
C488   C489    1.422   .     A
C488   C1000   1.415   .     S
C488   C1003   1.426   .     S
C489   C496    1.418   .     A
C489   C493    1.410   .     A
C490   C494    1.419   .     A
C490   C1001   1.426   1_554 S
C490   C1004   1.423   1_554 S
C491   C492    1.391   .     A
C491   C993    1.398   .     S
C491   C1003   1.423   .     S
C492   C493    1.383   .     A
C493   H500    1.080   .     S
C494   N511    1.440   .     S
H499   C999    1.083   1_554 S
C501   H388    1.088   1_655 S
C501   C389    1.335   1_655 S
H504   C389    1.086   1_655 S
C505   C164    1.340   1_565 S
C505   N166    1.446   1_565 S
H507   C164    1.086   1_565 S
N508   O510    1.302   .     A
O509   N166    1.301   1_565 S
N511   O512    1.302   .     A
N511   O513    1.302   .     A
Zn514  O518    1.963   .     S
Zn514  O526    1.940   .     S
Zn514  O527    1.930   .     S
Zn514  O520    1.919   .     S
Zn515  O529    1.923   .     S
Zn515  O518    1.953   .     S
Zn515  O521    1.935   .     S
Zn515  O523    1.940   .     S
Zn516  O522    1.933   .     S
Zn516  O525    1.952   .     S
Zn516  O530    1.936   .     S
Zn516  O518    1.929   .     S
Zn517  O528    1.929   .     S
Zn517  O524    1.953   .     S
Zn517  O519    1.931   .     S
Zn517  O518    1.937   .     S
O519   C531    1.275   .     A
O520   C532    1.278   .     A
O521   C533    1.284   .     A
O522   C534    1.268   .     A
O523   C535    1.273   .     A
O524   C536    1.281   .     A
O525   C535    1.268   .     A
O526   C536    1.283   .     A
O527   C533    1.278   .     A
O528   C534    1.276   .     A
O529   C531    1.276   .     A
O530   C532    1.282   .     A
C531   C560    1.437   .     S
C532   C558    1.455   .     S
C533   C563    1.437   .     S
C534   C562    1.460   .     S
C535   C541    1.447   .     S
C536   C553    1.471   .     S
C537   C552    1.385   .     A
H538   C552    1.084   .     S
H539   C549    1.084   .     S
H540   C24     1.084   1_556 S
C541   C551    1.407   .     A
C541   C552    1.396   .     A
C542   C543    1.386   .     A
C542   C553    1.403   .     A
C542   H554    1.083   .     S
C543   C31     1.389   1_556 S
C543   H43     1.083   1_556 S
C544   H555    1.077   .     S
C545   C546    1.422   .     A
C545   C31     1.415   1_556 S
C545   C34     1.426   1_556 S
C546   C553    1.418   .     A
C546   C550    1.410   .     A
C547   C551    1.419   .     A
C548   C549    1.391   .     A
C548   C24     1.398   1_556 S
C548   C34     1.423   1_556 S
C549   C550    1.383   .     A
C550   H557    1.080   .     S
C551   N568    1.440   .     S
C558   H616    1.088   .     S
C558   C617    1.335   .     S
H559   C672    1.088   1_455 S
C560   C672    1.335   1_455 S
C560   H675    1.086   1_455 S
H561   C617    1.086   .     S
C562   C734    1.340   .     S
C562   N736    1.446   .     S
C563   C904    1.340   1_545 S
C563   H906    1.086   1_545 S
H564   C734    1.086   .     S
N565   O567    1.302   .     A
N565   C904    1.446   1_545 S
N565   O908    1.301   1_545 S
O566   N736    1.301   .     S
N568   O569    1.302   .     A
N568   O570    1.302   .     A
Zn571  O575    1.963   .     S
Zn571  O583    1.940   .     S
Zn571  O584    1.930   .     S
Zn571  O577    1.919   .     S
Zn572  O586    1.923   .     S
Zn572  O575    1.953   .     S
Zn572  O578    1.935   .     S
Zn572  O580    1.940   .     S
Zn573  O579    1.933   .     S
Zn573  O582    1.952   .     S
Zn573  O587    1.936   .     S
Zn573  O575    1.929   .     S
Zn574  O585    1.929   .     S
Zn574  O581    1.953   .     S
Zn574  O576    1.931   .     S
Zn574  O575    1.937   .     S
O576   C588    1.275   .     A
O577   C589    1.278   .     A
O578   C590    1.284   .     A
O579   C591    1.268   .     A
O580   C592    1.273   .     A
O581   C593    1.281   .     A
O582   C592    1.268   .     A
O583   C593    1.283   .     A
O584   C590    1.278   .     A
O585   C591    1.276   .     A
O586   C588    1.276   .     A
O587   C589    1.282   .     A
C588   C617    1.437   .     S
C589   C615    1.455   .     S
C590   C620    1.437   .     S
C591   C619    1.460   .     S
C592   C598    1.447   .     S
C593   C610    1.471   .     S
C594   C609    1.385   .     A
H595   C609    1.084   .     S
H596   C606    1.084   .     S
H597   C81     1.084   1_556 S
C598   C608    1.407   .     A
C598   C609    1.396   .     A
C599   C600    1.386   .     A
C599   C610    1.403   .     A
C599   H611    1.083   .     S
C600   C88     1.389   1_556 S
C600   H100    1.083   1_556 S
C601   H612    1.077   .     S
C602   C603    1.422   .     A
C602   C88     1.415   1_556 S
C602   C91     1.426   1_556 S
C603   C610    1.418   .     A
C603   C607    1.410   .     A
C604   C608    1.419   .     A
C605   C606    1.391   .     A
C605   C81     1.398   1_556 S
C605   C91     1.423   1_556 S
C606   C607    1.383   .     A
C607   H614    1.080   .     S
C608   N625    1.440   .     S
C615   H673    1.088   .     S
C615   C674    1.335   .     S
H618   C674    1.086   .     S
C619   C791    1.340   .     S
C619   N793    1.446   .     S
C620   C961    1.340   1_545 S
C620   H963    1.086   1_545 S
H621   C791    1.086   .     S
N622   O624    1.302   .     A
N622   C961    1.446   1_545 S
N622   O965    1.301   1_545 S
O623   N793    1.301   .     S
N625   O626    1.302   .     A
N625   O627    1.302   .     A
Zn628  O632    1.963   .     S
Zn628  O640    1.940   .     S
Zn628  O641    1.930   .     S
Zn628  O634    1.919   .     S
Zn629  O643    1.923   .     S
Zn629  O632    1.953   .     S
Zn629  O635    1.935   .     S
Zn629  O637    1.940   .     S
Zn630  O636    1.933   .     S
Zn630  O639    1.952   .     S
Zn630  O644    1.936   .     S
Zn630  O632    1.929   .     S
Zn631  O642    1.929   .     S
Zn631  O638    1.953   .     S
Zn631  O633    1.931   .     S
Zn631  O632    1.937   .     S
O633   C645    1.275   .     A
O634   C646    1.278   .     A
O635   C647    1.284   .     A
O636   C648    1.268   .     A
O637   C649    1.273   .     A
O638   C650    1.281   .     A
O639   C649    1.268   .     A
O640   C650    1.283   .     A
O641   C647    1.278   .     A
O642   C648    1.276   .     A
O643   C645    1.276   .     A
O644   C646    1.282   .     A
C645   C674    1.437   .     S
C646   C672    1.455   .     S
C647   C677    1.437   .     S
C648   C676    1.460   .     S
C649   C655    1.447   .     S
C650   C667    1.471   .     S
C651   C666    1.385   .     A
H652   C666    1.084   .     S
H653   C663    1.084   .     S
H654   C138    1.084   1_556 S
C655   C665    1.407   .     A
C655   C666    1.396   .     A
C656   C657    1.386   .     A
C656   C667    1.403   .     A
C656   H668    1.083   .     S
C657   C145    1.389   1_556 S
C657   H157    1.083   1_556 S
C658   H669    1.077   .     S
C659   C660    1.422   .     A
C659   C145    1.415   1_556 S
C659   C148    1.426   1_556 S
C660   C667    1.418   .     A
C660   C664    1.410   .     A
C661   C665    1.419   .     A
C662   C663    1.391   .     A
C662   C138    1.398   1_556 S
C662   C148    1.423   1_556 S
C663   C664    1.383   .     A
C664   H671    1.080   .     S
C665   N682    1.440   .     S
C672   H559    1.088   1_655 S
C672   C560    1.335   1_655 S
H675   C560    1.086   1_655 S
C676   C848    1.340   .     S
C676   N850    1.446   .     S
C677   C1018   1.340   1_545 S
C677   H1020   1.086   1_545 S
H678   C848    1.086   .     S
N679   O681    1.302   .     A
N679   C1018   1.446   1_545 S
N679   O1022   1.301   1_545 S
O680   N850    1.301   .     S
N682   O683    1.302   .     A
N682   O684    1.302   .     A
Zn685  O689    1.963   .     S
Zn685  O697    1.940   .     S
Zn685  O698    1.930   .     S
Zn685  O691    1.919   .     S
Zn686  O700    1.923   .     S
Zn686  O689    1.953   .     S
Zn686  O692    1.935   .     S
Zn686  O694    1.940   .     S
Zn687  O693    1.933   .     S
Zn687  O696    1.952   .     S
Zn687  O701    1.936   .     S
Zn687  O689    1.929   .     S
Zn688  O699    1.929   .     S
Zn688  O695    1.953   .     S
Zn688  O690    1.931   .     S
Zn688  O689    1.937   .     S
O690   C702    1.275   .     A
O691   C703    1.278   .     A
O692   C704    1.284   .     A
O693   C705    1.268   .     A
O694   C706    1.273   .     A
O695   C707    1.281   .     A
O696   C706    1.268   .     A
O697   C707    1.283   .     A
O698   C704    1.278   .     A
O699   C705    1.276   .     A
O700   C702    1.276   .     A
O701   C703    1.282   .     A
C702   C731    1.437   .     S
C703   C729    1.455   .     S
C704   C734    1.437   .     S
C705   C733    1.460   .     S
C706   C712    1.447   .     S
C707   C724    1.471   .     S
C708   C723    1.385   .     A
H709   C723    1.084   .     S
H710   C720    1.084   .     S
H711   C195    1.084   1_556 S
C712   C722    1.407   .     A
C712   C723    1.396   .     A
C713   C714    1.386   .     A
C713   C724    1.403   .     A
C713   H725    1.083   .     S
C714   C202    1.389   1_556 S
C714   H214    1.083   1_556 S
C715   H726    1.077   .     S
C716   C717    1.422   .     A
C716   C202    1.415   1_556 S
C716   C205    1.426   1_556 S
C717   C724    1.418   .     A
C717   C721    1.410   .     A
C718   C722    1.419   .     A
C719   C720    1.391   .     A
C719   C195    1.398   1_556 S
C719   C205    1.423   1_556 S
C720   C721    1.383   .     A
C721   H728    1.080   .     S
C722   N739    1.440   .     S
C729   H787    1.088   .     S
C729   C788    1.335   .     S
H730   C843    1.088   1_455 S
C731   C843    1.335   1_455 S
C731   H846    1.086   1_455 S
H732   C788    1.086   .     S
C733   C905    1.340   .     S
C733   N907    1.446   .     S
H735   C905    1.086   .     S
N736   O738    1.302   .     A
O737   N907    1.301   .     S
N739   O740    1.302   .     A
N739   O741    1.302   .     A
Zn742  O746    1.963   .     S
Zn742  O754    1.940   .     S
Zn742  O755    1.930   .     S
Zn742  O748    1.919   .     S
Zn743  O757    1.923   .     S
Zn743  O746    1.953   .     S
Zn743  O749    1.935   .     S
Zn743  O751    1.940   .     S
Zn744  O750    1.933   .     S
Zn744  O753    1.952   .     S
Zn744  O758    1.936   .     S
Zn744  O746    1.929   .     S
Zn745  O756    1.929   .     S
Zn745  O752    1.953   .     S
Zn745  O747    1.931   .     S
Zn745  O746    1.937   .     S
O747   C759    1.275   .     A
O748   C760    1.278   .     A
O749   C761    1.284   .     A
O750   C762    1.268   .     A
O751   C763    1.273   .     A
O752   C764    1.281   .     A
O753   C763    1.268   .     A
O754   C764    1.283   .     A
O755   C761    1.278   .     A
O756   C762    1.276   .     A
O757   C759    1.276   .     A
O758   C760    1.282   .     A
C759   C788    1.437   .     S
C760   C786    1.455   .     S
C761   C791    1.437   .     S
C762   C790    1.460   .     S
C763   C769    1.447   .     S
C764   C781    1.471   .     S
C765   C780    1.385   .     A
H766   C780    1.084   .     S
H767   C777    1.084   .     S
H768   C252    1.084   1_556 S
C769   C779    1.407   .     A
C769   C780    1.396   .     A
C770   C771    1.386   .     A
C770   C781    1.403   .     A
C770   H782    1.083   .     S
C771   C259    1.389   1_556 S
C771   H271    1.083   1_556 S
C772   H783    1.077   .     S
C773   C774    1.422   .     A
C773   C259    1.415   1_556 S
C773   C262    1.426   1_556 S
C774   C781    1.418   .     A
C774   C778    1.410   .     A
C775   C779    1.419   .     A
C776   C777    1.391   .     A
C776   C252    1.398   1_556 S
C776   C262    1.423   1_556 S
C777   C778    1.383   .     A
C778   H785    1.080   .     S
C779   N796    1.440   .     S
C786   H844    1.088   .     S
C786   C845    1.335   .     S
H789   C845    1.086   .     S
C790   C962    1.340   .     S
C790   N964    1.446   .     S
H792   C962    1.086   .     S
N793   O795    1.302   .     A
O794   N964    1.301   .     S
N796   O797    1.302   .     A
N796   O798    1.302   .     A
Zn799  O803    1.963   .     S
Zn799  O811    1.940   .     S
Zn799  O812    1.930   .     S
Zn799  O805    1.919   .     S
Zn800  O814    1.923   .     S
Zn800  O803    1.953   .     S
Zn800  O806    1.935   .     S
Zn800  O808    1.940   .     S
Zn801  O807    1.933   .     S
Zn801  O810    1.952   .     S
Zn801  O815    1.936   .     S
Zn801  O803    1.929   .     S
Zn802  O813    1.929   .     S
Zn802  O809    1.953   .     S
Zn802  O804    1.931   .     S
Zn802  O803    1.937   .     S
O804   C816    1.275   .     A
O805   C817    1.278   .     A
O806   C818    1.284   .     A
O807   C819    1.268   .     A
O808   C820    1.273   .     A
O809   C821    1.281   .     A
O810   C820    1.268   .     A
O811   C821    1.283   .     A
O812   C818    1.278   .     A
O813   C819    1.276   .     A
O814   C816    1.276   .     A
O815   C817    1.282   .     A
C816   C845    1.437   .     S
C817   C843    1.455   .     S
C818   C848    1.437   .     S
C819   C847    1.460   .     S
C820   C826    1.447   .     S
C821   C838    1.471   .     S
C822   C837    1.385   .     A
H823   C837    1.084   .     S
H824   C834    1.084   .     S
H825   C309    1.084   1_556 S
C826   C836    1.407   .     A
C826   C837    1.396   .     A
C827   C828    1.386   .     A
C827   C838    1.403   .     A
C827   H839    1.083   .     S
C828   C316    1.389   1_556 S
C828   H328    1.083   1_556 S
C829   H840    1.077   .     S
C830   C831    1.422   .     A
C830   C316    1.415   1_556 S
C830   C319    1.426   1_556 S
C831   C838    1.418   .     A
C831   C835    1.410   .     A
C832   C836    1.419   .     A
C833   C834    1.391   .     A
C833   C309    1.398   1_556 S
C833   C319    1.423   1_556 S
C834   C835    1.383   .     A
C835   H842    1.080   .     S
C836   N853    1.440   .     S
C843   H730    1.088   1_655 S
C843   C731    1.335   1_655 S
H846   C731    1.086   1_655 S
C847   C1019   1.340   .     S
C847   N1021   1.446   .     S
H849   C1019   1.086   .     S
N850   O852    1.302   .     A
O851   N1021   1.301   .     S
N853   O854    1.302   .     A
N853   O855    1.302   .     A
Zn856  O860    1.963   .     S
Zn856  O868    1.940   .     S
Zn856  O869    1.930   .     S
Zn856  O862    1.919   .     S
Zn857  O871    1.923   .     S
Zn857  O860    1.953   .     S
Zn857  O863    1.935   .     S
Zn857  O865    1.940   .     S
Zn858  O864    1.933   .     S
Zn858  O867    1.952   .     S
Zn858  O872    1.936   .     S
Zn858  O860    1.929   .     S
Zn859  O870    1.929   .     S
Zn859  O866    1.953   .     S
Zn859  O861    1.931   .     S
Zn859  O860    1.937   .     S
O861   C873    1.275   .     A
O862   C874    1.278   .     A
O863   C875    1.284   .     A
O864   C876    1.268   .     A
O865   C877    1.273   .     A
O866   C878    1.281   .     A
O867   C877    1.268   .     A
O868   C878    1.283   .     A
O869   C875    1.278   .     A
O870   C876    1.276   .     A
O871   C873    1.276   .     A
O872   C874    1.282   .     A
C873   C902    1.437   .     S
C874   C900    1.455   .     S
C875   C905    1.437   .     S
C876   C904    1.460   .     S
C877   C883    1.447   .     S
C878   C895    1.471   .     S
C879   C894    1.385   .     A
H880   C894    1.084   .     S
H881   C891    1.084   .     S
H882   C366    1.084   1_556 S
C883   C893    1.407   .     A
C883   C894    1.396   .     A
C884   C885    1.386   .     A
C884   C895    1.403   .     A
C884   H896    1.083   .     S
C885   C373    1.389   1_556 S
C885   H385    1.083   1_556 S
C886   H897    1.077   .     S
C887   C888    1.422   .     A
C887   C373    1.415   1_556 S
C887   C376    1.426   1_556 S
C888   C895    1.418   .     A
C888   C892    1.410   .     A
C889   C893    1.419   .     A
C890   C891    1.391   .     A
C890   C366    1.398   1_556 S
C890   C376    1.423   1_556 S
C891   C892    1.383   .     A
C892   H899    1.080   .     S
C893   N910    1.440   .     S
C900   H958    1.088   .     S
C900   C959    1.335   .     S
H901   C1014   1.088   1_455 S
C902   C1014   1.335   1_455 S
C902   H1017   1.086   1_455 S
H903   C959    1.086   .     S
C904   C563    1.340   1_565 S
C904   N565    1.446   1_565 S
H906   C563    1.086   1_565 S
N907   O909    1.302   .     A
O908   N565    1.301   1_565 S
N910   O911    1.302   .     A
N910   O912    1.302   .     A
Zn913  O917    1.963   .     S
Zn913  O925    1.940   .     S
Zn913  O926    1.930   .     S
Zn913  O919    1.919   .     S
Zn914  O928    1.923   .     S
Zn914  O917    1.953   .     S
Zn914  O920    1.935   .     S
Zn914  O922    1.940   .     S
Zn915  O921    1.933   .     S
Zn915  O924    1.952   .     S
Zn915  O929    1.936   .     S
Zn915  O917    1.929   .     S
Zn916  O927    1.929   .     S
Zn916  O923    1.953   .     S
Zn916  O918    1.931   .     S
Zn916  O917    1.937   .     S
O918   C930    1.275   .     A
O919   C931    1.278   .     A
O920   C932    1.284   .     A
O921   C933    1.268   .     A
O922   C934    1.273   .     A
O923   C935    1.281   .     A
O924   C934    1.268   .     A
O925   C935    1.283   .     A
O926   C932    1.278   .     A
O927   C933    1.276   .     A
O928   C930    1.276   .     A
O929   C931    1.282   .     A
C930   C959    1.437   .     S
C931   C957    1.455   .     S
C932   C962    1.437   .     S
C933   C961    1.460   .     S
C934   C940    1.447   .     S
C935   C952    1.471   .     S
C936   C951    1.385   .     A
H937   C951    1.084   .     S
H938   C948    1.084   .     S
H939   C423    1.084   1_556 S
C940   C950    1.407   .     A
C940   C951    1.396   .     A
C941   C942    1.386   .     A
C941   C952    1.403   .     A
C941   H953    1.083   .     S
C942   C430    1.389   1_556 S
C942   H442    1.083   1_556 S
C943   H954    1.077   .     S
C944   C945    1.422   .     A
C944   C430    1.415   1_556 S
C944   C433    1.426   1_556 S
C945   C952    1.418   .     A
C945   C949    1.410   .     A
C946   C950    1.419   .     A
C947   C948    1.391   .     A
C947   C423    1.398   1_556 S
C947   C433    1.423   1_556 S
C948   C949    1.383   .     A
C949   H956    1.080   .     S
C950   N967    1.440   .     S
C957   H1015   1.088   .     S
C957   C1016   1.335   .     S
H960   C1016   1.086   .     S
C961   C620    1.340   1_565 S
C961   N622    1.446   1_565 S
H963   C620    1.086   1_565 S
N964   O966    1.302   .     A
O965   N622    1.301   1_565 S
N967   O968    1.302   .     A
N967   O969    1.302   .     A
Zn970  O974    1.963   .     S
Zn970  O982    1.940   .     S
Zn970  O983    1.930   .     S
Zn970  O976    1.919   .     S
Zn971  O985    1.923   .     S
Zn971  O974    1.953   .     S
Zn971  O977    1.935   .     S
Zn971  O979    1.940   .     S
Zn972  O978    1.933   .     S
Zn972  O981    1.952   .     S
Zn972  O986    1.936   .     S
Zn972  O974    1.929   .     S
Zn973  O984    1.929   .     S
Zn973  O980    1.953   .     S
Zn973  O975    1.931   .     S
Zn973  O974    1.937   .     S
O975   C987    1.275   .     A
O976   C988    1.278   .     A
O977   C989    1.284   .     A
O978   C990    1.268   .     A
O979   C991    1.273   .     A
O980   C992    1.281   .     A
O981   C991    1.268   .     A
O982   C992    1.283   .     A
O983   C989    1.278   .     A
O984   C990    1.276   .     A
O985   C987    1.276   .     A
O986   C988    1.282   .     A
C987   C1016   1.437   .     S
C988   C1014   1.455   .     S
C989   C1019   1.437   .     S
C990   C1018   1.460   .     S
C991   C997    1.447   .     S
C992   C1009   1.471   .     S
C993   C1008   1.385   .     A
H994   C1008   1.084   .     S
H995   C1005   1.084   .     S
H996   C480    1.084   1_556 S
C997   C1007   1.407   .     A
C997   C1008   1.396   .     A
C998   C999    1.386   .     A
C998   C1009   1.403   .     A
C998   H1010   1.083   .     S
C999   C487    1.389   1_556 S
C999   H499    1.083   1_556 S
C1000  H1011   1.077   .     S
C1001  C1002   1.422   .     A
C1001  C487    1.415   1_556 S
C1001  C490    1.426   1_556 S
C1002  C1009   1.418   .     A
C1002  C1006   1.410   .     A
C1003  C1007   1.419   .     A
C1004  C1005   1.391   .     A
C1004  C480    1.398   1_556 S
C1004  C490    1.423   1_556 S
C1005  C1006   1.383   .     A
C1006  H1013   1.080   .     S
C1007  N1024   1.440   .     S
C1014  H901    1.088   1_655 S
C1014  C902    1.335   1_655 S
H1017  C902    1.086   1_655 S
C1018  C677    1.340   1_565 S
C1018  N679    1.446   1_565 S
H1020  C677    1.086   1_565 S
N1021  O1023   1.302   .     A
O1022  N679    1.301   1_565 S
N1024  O1025   1.302   .     A
N1024  O1026   1.302   .     A
