data_str_m2_o1_o18_pcu_sym.143
_audit_creation_date              2020-01-03
_audit_creation_method            'Materials Studio'
_symmetry_space_group_name_H-M    'P1'
_symmetry_Int_Tables_number       1
_symmetry_cell_setting            triclinic
loop_
_symmetry_equiv_pos_as_xyz
  x,y,z
_cell_length_a                    28.7431
_cell_length_b                    32.3261
_cell_length_c                    31.0036
_cell_angle_alpha                 88.7635
_cell_angle_beta                  73.8178
_cell_angle_gamma                 90.7570
loop_
_atom_site_label
_atom_site_type_symbol
_atom_site_fract_x
_atom_site_fract_y
_atom_site_fract_z
_atom_site_U_iso_or_equiv
_atom_site_adp_type
_atom_site_occupancy
C1     C     0.00003   0.08751   0.24921   0.00000  Uiso   1.00
C2     C     0.33330   0.24582   0.25078   0.00000  Uiso   1.00
C3     C     0.19484   0.17582   0.04681   0.00000  Uiso   1.00
C4     C     0.13849   0.15748   0.45320   0.00000  Uiso   1.00
C5     C     0.24064   0.19073   0.02302   0.00000  Uiso   1.00
C6     C     0.09269   0.14256   0.47698   0.00000  Uiso   1.00
C7     C     0.29603   0.02095   0.27971   0.00000  Uiso   1.00
C8     C     0.03730   0.31238   0.22029   0.00000  Uiso   1.00
C9     C     0.29581   0.31138   0.28138   0.00000  Uiso   1.00
C10    C     0.03752   0.02195   0.21862   0.00000  Uiso   1.00
C11    C     0.00001   0.29043   0.25135   0.00000  Uiso   1.00
C12    C     0.33332   0.04290   0.24865   0.00000  Uiso   1.00
C13    C     0.18245   0.13906   0.27652   0.00000  Uiso   1.00
C14    C     0.15088   0.19427   0.22348   0.00000  Uiso   1.00
C15    C     0.13317   0.13928   0.27645   0.00000  Uiso   1.00
C16    C     0.20016   0.19405   0.22355   0.00000  Uiso   1.00
C17    C     0.30603   0.16889   0.33586   0.00000  Uiso   1.00
C18    C     0.02731   0.16444   0.16414   0.00000  Uiso   1.00
C19    C     0.29079   0.17565   0.38446   0.00000  Uiso   1.00
C20    C     0.04255   0.15767   0.11555   0.00000  Uiso   1.00
C21    C     0.30203   0.20396   0.45264   0.00000  Uiso   1.00
C22    C     0.03131   0.12934   0.04737   0.00000  Uiso   1.00
C23    C     0.31871   0.19920   0.40626   0.00000  Uiso   1.00
C24    C     0.01463   0.13411   0.09375   0.00000  Uiso   1.00
C25    C     0.24456   0.16154   0.40876   0.00000  Uiso   1.00
C26    C     0.08878   0.17177   0.09124   0.00000  Uiso   1.00
C27    C     0.22394   0.17313   0.45320   0.00000  Uiso   1.00
C28    C     0.10939   0.16017   0.04680   0.00000  Uiso   1.00
C29    C     0.25527   0.19015   0.47636   0.00000  Uiso   1.00
C30    C     0.07806   0.14314   0.02364   0.00000  Uiso   1.00
C31    C     0.17417   0.16572   0.47607   0.00000  Uiso   1.00
C32    C     0.15915   0.16758   0.02393   0.00000  Uiso   1.00
Cu33   Cu    0.04689   0.16667   0.25000   0.00000  Uiso   1.00
Cu34   Cu    0.28645   0.16666   0.25000   0.00000  Uiso   1.00
H35    H     0.26649   0.19919   0.04114   0.00000  Uiso   1.00
H36    H     0.06684   0.13410   0.45887   0.00000  Uiso   1.00
H37    H     0.10805   0.19261   0.10721   0.00000  Uiso   1.00
H38    H     0.22528   0.14070   0.39278   0.00000  Uiso   1.00
H39    H     0.32504   0.21942   0.46993   0.00000  Uiso   1.00
H40    H     0.00830   0.11386   0.03008   0.00000  Uiso   1.00
H41    H     0.26780   0.03718   0.30348   0.00000  Uiso   1.00
H42    H     0.06553   0.29615   0.19652   0.00000  Uiso   1.00
H43    H     0.10758   0.11741   0.29769   0.00000  Uiso   1.00
H44    H     0.22575   0.21592   0.20230   0.00000  Uiso   1.00
N45    N     0.11736   0.16668   0.24999   0.00000  Uiso   1.00
N46    N     0.21597   0.16666   0.25001   0.00000  Uiso   1.00
O47    O     0.03958   0.10655   0.25000   0.00000  Uiso   1.00
O48    O     0.29375   0.22678   0.25000   0.00000  Uiso   1.00
O49    O     0.29372   0.10654   0.25000   0.00000  Uiso   1.00
O50    O     0.03961   0.22679   0.24999   0.00000  Uiso   1.00
O51    O     0.01852   0.16668   0.31491   0.00000  Uiso   1.00
O52    O     0.31481   0.16666   0.18508   0.00000  Uiso   1.00
O53    O     0.27267   0.16667   0.31492   0.00000  Uiso   1.00
O54    O     0.06067   0.16667   0.18508   0.00000  Uiso   1.00
Br55   Br    0.28958   0.10476   0.12548   0.00000  Uiso   1.00
Br56   Br    0.04376   0.22855   0.37454   0.00000  Uiso   1.00
Br57   Br    0.18949   0.15806   0.10768   0.00000  Uiso   1.00
Br58   Br    0.14384   0.17523   0.39232   0.00000  Uiso   1.00
Br59   Br    0.24525   0.28317   0.32687   0.00000  Uiso   1.00
Br60   Br    0.08808   0.05016   0.17313   0.00000  Uiso   1.00
Cl61   Cl    0.19863   0.10222   0.31181   0.00000  Uiso   1.00
Cl62   Cl    0.13470   0.23111   0.18818   0.00000  Uiso   1.00
C63    C     0.33336   0.08751   0.24921   0.00000  Uiso   1.00
C64    C     0.66664   0.24582   0.25078   0.00000  Uiso   1.00
C65    C     0.52817   0.17582   0.04681   0.00000  Uiso   1.00
C66    C     0.47182   0.15748   0.45320   0.00000  Uiso   1.00
C67    C     0.57397   0.19073   0.02302   0.00000  Uiso   1.00
C68    C     0.42602   0.14256   0.47698   0.00000  Uiso   1.00
C69    C     0.62936   0.02095   0.27971   0.00000  Uiso   1.00
C70    C     0.37064   0.31238   0.22029   0.00000  Uiso   1.00
C71    C     0.62914   0.31138   0.28138   0.00000  Uiso   1.00
C72    C     0.37086   0.02195   0.21862   0.00000  Uiso   1.00
C73    C     0.33334   0.29043   0.25135   0.00000  Uiso   1.00
C74    C     0.66666   0.04290   0.24865   0.00000  Uiso   1.00
C75    C     0.51578   0.13906   0.27652   0.00000  Uiso   1.00
C76    C     0.48422   0.19427   0.22348   0.00000  Uiso   1.00
C77    C     0.46651   0.13928   0.27645   0.00000  Uiso   1.00
C78    C     0.53349   0.19405   0.22355   0.00000  Uiso   1.00
C79    C     0.63936   0.16889   0.33586   0.00000  Uiso   1.00
C80    C     0.36064   0.16444   0.16414   0.00000  Uiso   1.00
C81    C     0.62412   0.17565   0.38446   0.00000  Uiso   1.00
C82    C     0.37588   0.15767   0.11555   0.00000  Uiso   1.00
C83    C     0.63536   0.20396   0.45264   0.00000  Uiso   1.00
C84    C     0.36464   0.12934   0.04737   0.00000  Uiso   1.00
C85    C     0.65204   0.19920   0.40626   0.00000  Uiso   1.00
C86    C     0.34796   0.13411   0.09375   0.00000  Uiso   1.00
C87    C     0.57789   0.16154   0.40876   0.00000  Uiso   1.00
C88    C     0.42211   0.17177   0.09124   0.00000  Uiso   1.00
C89    C     0.55728   0.17313   0.45320   0.00000  Uiso   1.00
C90    C     0.44272   0.16017   0.04680   0.00000  Uiso   1.00
C91    C     0.58860   0.19015   0.47636   0.00000  Uiso   1.00
C92    C     0.41140   0.14314   0.02364   0.00000  Uiso   1.00
C93    C     0.50751   0.16572   0.47607   0.00000  Uiso   1.00
C94    C     0.49249   0.16758   0.02393   0.00000  Uiso   1.00
Cu95   Cu    0.38022   0.16667   0.25000   0.00000  Uiso   1.00
Cu96   Cu    0.61978   0.16666   0.25000   0.00000  Uiso   1.00
H97    H     0.59982   0.19919   0.04114   0.00000  Uiso   1.00
H98    H     0.40017   0.13410   0.45887   0.00000  Uiso   1.00
H99    H     0.44139   0.19261   0.10721   0.00000  Uiso   1.00
H100   H     0.55862   0.14070   0.39278   0.00000  Uiso   1.00
H101   H     0.65837   0.21942   0.46993   0.00000  Uiso   1.00
H102   H     0.34163   0.11386   0.03008   0.00000  Uiso   1.00
H103   H     0.60113   0.03718   0.30348   0.00000  Uiso   1.00
H104   H     0.39887   0.29615   0.19652   0.00000  Uiso   1.00
H105   H     0.44091   0.11741   0.29769   0.00000  Uiso   1.00
H106   H     0.55909   0.21592   0.20230   0.00000  Uiso   1.00
N107   N     0.45069   0.16668   0.24999   0.00000  Uiso   1.00
N108   N     0.54931   0.16666   0.25001   0.00000  Uiso   1.00
O109   O     0.37291   0.10655   0.25000   0.00000  Uiso   1.00
O110   O     0.62709   0.22678   0.25000   0.00000  Uiso   1.00
O111   O     0.62706   0.10654   0.25000   0.00000  Uiso   1.00
O112   O     0.37294   0.22679   0.24999   0.00000  Uiso   1.00
O113   O     0.35186   0.16668   0.31491   0.00000  Uiso   1.00
O114   O     0.64814   0.16666   0.18508   0.00000  Uiso   1.00
O115   O     0.60600   0.16667   0.31492   0.00000  Uiso   1.00
O116   O     0.39400   0.16667   0.18508   0.00000  Uiso   1.00
Br117  Br    0.62291   0.10476   0.12548   0.00000  Uiso   1.00
Br118  Br    0.37709   0.22855   0.37454   0.00000  Uiso   1.00
Br119  Br    0.52282   0.15806   0.10768   0.00000  Uiso   1.00
Br120  Br    0.47717   0.17523   0.39232   0.00000  Uiso   1.00
Br121  Br    0.57859   0.28317   0.32687   0.00000  Uiso   1.00
Br122  Br    0.42141   0.05016   0.17313   0.00000  Uiso   1.00
Cl123  Cl    0.53197   0.10222   0.31181   0.00000  Uiso   1.00
Cl124  Cl    0.46804   0.23111   0.18818   0.00000  Uiso   1.00
C125   C     0.66670   0.08751   0.24921   0.00000  Uiso   1.00
C126   C     0.99997   0.24582   0.25078   0.00000  Uiso   1.00
C127   C     0.86151   0.17582   0.04681   0.00000  Uiso   1.00
C128   C     0.80515   0.15748   0.45320   0.00000  Uiso   1.00
C129   C     0.90731   0.19073   0.02302   0.00000  Uiso   1.00
C130   C     0.75936   0.14256   0.47698   0.00000  Uiso   1.00
C131   C     0.96270   0.02095   0.27971   0.00000  Uiso   1.00
C132   C     0.70397   0.31238   0.22029   0.00000  Uiso   1.00
C133   C     0.96248   0.31138   0.28138   0.00000  Uiso   1.00
C134   C     0.70419   0.02195   0.21862   0.00000  Uiso   1.00
C135   C     0.66668   0.29043   0.25135   0.00000  Uiso   1.00
C136   C     0.99999   0.04290   0.24865   0.00000  Uiso   1.00
C137   C     0.84912   0.13906   0.27652   0.00000  Uiso   1.00
C138   C     0.81755   0.19427   0.22348   0.00000  Uiso   1.00
C139   C     0.79984   0.13928   0.27645   0.00000  Uiso   1.00
C140   C     0.86682   0.19405   0.22355   0.00000  Uiso   1.00
C141   C     0.97269   0.16889   0.33586   0.00000  Uiso   1.00
C142   C     0.69397   0.16444   0.16414   0.00000  Uiso   1.00
C143   C     0.95745   0.17565   0.38446   0.00000  Uiso   1.00
C144   C     0.70921   0.15767   0.11555   0.00000  Uiso   1.00
C145   C     0.96869   0.20396   0.45264   0.00000  Uiso   1.00
C146   C     0.69797   0.12934   0.04737   0.00000  Uiso   1.00
C147   C     0.98537   0.19920   0.40626   0.00000  Uiso   1.00
C148   C     0.68129   0.13411   0.09375   0.00000  Uiso   1.00
C149   C     0.91122   0.16154   0.40876   0.00000  Uiso   1.00
C150   C     0.75544   0.17177   0.09124   0.00000  Uiso   1.00
C151   C     0.89061   0.17313   0.45320   0.00000  Uiso   1.00
C152   C     0.77606   0.16017   0.04680   0.00000  Uiso   1.00
C153   C     0.92193   0.19015   0.47636   0.00000  Uiso   1.00
C154   C     0.74473   0.14314   0.02364   0.00000  Uiso   1.00
C155   C     0.84084   0.16572   0.47607   0.00000  Uiso   1.00
C156   C     0.82582   0.16758   0.02393   0.00000  Uiso   1.00
Cu157  Cu    0.71355   0.16667   0.25000   0.00000  Uiso   1.00
Cu158  Cu    0.95311   0.16666   0.25000   0.00000  Uiso   1.00
H159   H     0.93316   0.19919   0.04114   0.00000  Uiso   1.00
H160   H     0.73351   0.13410   0.45887   0.00000  Uiso   1.00
H161   H     0.77472   0.19261   0.10721   0.00000  Uiso   1.00
H162   H     0.89195   0.14070   0.39278   0.00000  Uiso   1.00
H163   H     0.99170   0.21942   0.46993   0.00000  Uiso   1.00
H164   H     0.67496   0.11386   0.03008   0.00000  Uiso   1.00
H165   H     0.93447   0.03718   0.30348   0.00000  Uiso   1.00
H166   H     0.73220   0.29615   0.19652   0.00000  Uiso   1.00
H167   H     0.77425   0.11741   0.29769   0.00000  Uiso   1.00
H168   H     0.89242   0.21592   0.20230   0.00000  Uiso   1.00
N169   N     0.78403   0.16668   0.24999   0.00000  Uiso   1.00
N170   N     0.88264   0.16666   0.25001   0.00000  Uiso   1.00
O171   O     0.70625   0.10655   0.25000   0.00000  Uiso   1.00
O172   O     0.96042   0.22678   0.25000   0.00000  Uiso   1.00
O173   O     0.96039   0.10654   0.25000   0.00000  Uiso   1.00
O174   O     0.70628   0.22679   0.24999   0.00000  Uiso   1.00
O175   O     0.68519   0.16668   0.31491   0.00000  Uiso   1.00
O176   O     0.98148   0.16666   0.18508   0.00000  Uiso   1.00
O177   O     0.93933   0.16667   0.31492   0.00000  Uiso   1.00
O178   O     0.72733   0.16667   0.18508   0.00000  Uiso   1.00
Br179  Br    0.95624   0.10476   0.12548   0.00000  Uiso   1.00
Br180  Br    0.71043   0.22855   0.37454   0.00000  Uiso   1.00
Br181  Br    0.85616   0.15806   0.10768   0.00000  Uiso   1.00
Br182  Br    0.81050   0.17523   0.39232   0.00000  Uiso   1.00
Br183  Br    0.91192   0.28317   0.32687   0.00000  Uiso   1.00
Br184  Br    0.75475   0.05016   0.17313   0.00000  Uiso   1.00
Cl185  Cl    0.86530   0.10222   0.31181   0.00000  Uiso   1.00
Cl186  Cl    0.80137   0.23111   0.18818   0.00000  Uiso   1.00
C187   C     0.00003   0.42084   0.24921   0.00000  Uiso   1.00
C188   C     0.33330   0.57916   0.25078   0.00000  Uiso   1.00
C189   C     0.19484   0.50915   0.04681   0.00000  Uiso   1.00
C190   C     0.13849   0.49081   0.45320   0.00000  Uiso   1.00
C191   C     0.24064   0.52406   0.02302   0.00000  Uiso   1.00
C192   C     0.09269   0.47589   0.47698   0.00000  Uiso   1.00
C193   C     0.29603   0.35428   0.27971   0.00000  Uiso   1.00
C194   C     0.03730   0.64572   0.22029   0.00000  Uiso   1.00
C195   C     0.29581   0.64472   0.28138   0.00000  Uiso   1.00
C196   C     0.03752   0.35528   0.21862   0.00000  Uiso   1.00
C197   C     0.00001   0.62377   0.25135   0.00000  Uiso   1.00
C198   C     0.33332   0.37624   0.24865   0.00000  Uiso   1.00
C199   C     0.18245   0.47239   0.27652   0.00000  Uiso   1.00
C200   C     0.15088   0.52761   0.22348   0.00000  Uiso   1.00
C201   C     0.13317   0.47261   0.27645   0.00000  Uiso   1.00
C202   C     0.20016   0.52739   0.22355   0.00000  Uiso   1.00
C203   C     0.30603   0.50222   0.33586   0.00000  Uiso   1.00
C204   C     0.02731   0.49778   0.16414   0.00000  Uiso   1.00
C205   C     0.29079   0.50898   0.38446   0.00000  Uiso   1.00
C206   C     0.04255   0.49101   0.11555   0.00000  Uiso   1.00
C207   C     0.30203   0.53729   0.45264   0.00000  Uiso   1.00
C208   C     0.03131   0.46267   0.04737   0.00000  Uiso   1.00
C209   C     0.31871   0.53254   0.40626   0.00000  Uiso   1.00
C210   C     0.01463   0.46744   0.09375   0.00000  Uiso   1.00
C211   C     0.24456   0.49488   0.40876   0.00000  Uiso   1.00
C212   C     0.08878   0.50510   0.09124   0.00000  Uiso   1.00
C213   C     0.22394   0.50646   0.45320   0.00000  Uiso   1.00
C214   C     0.10939   0.49351   0.04680   0.00000  Uiso   1.00
C215   C     0.25527   0.52348   0.47636   0.00000  Uiso   1.00
C216   C     0.07806   0.47647   0.02364   0.00000  Uiso   1.00
C217   C     0.17417   0.49905   0.47607   0.00000  Uiso   1.00
C218   C     0.15915   0.50091   0.02393   0.00000  Uiso   1.00
Cu219  Cu    0.04689   0.50001   0.25000   0.00000  Uiso   1.00
Cu220  Cu    0.28645   0.49999   0.25000   0.00000  Uiso   1.00
H221   H     0.26649   0.53252   0.04114   0.00000  Uiso   1.00
H222   H     0.06684   0.46744   0.45887   0.00000  Uiso   1.00
H223   H     0.10805   0.52595   0.10721   0.00000  Uiso   1.00
H224   H     0.22528   0.47404   0.39278   0.00000  Uiso   1.00
H225   H     0.32504   0.55276   0.46993   0.00000  Uiso   1.00
H226   H     0.00830   0.44720   0.03008   0.00000  Uiso   1.00
H227   H     0.26780   0.37051   0.30348   0.00000  Uiso   1.00
H228   H     0.06553   0.62949   0.19652   0.00000  Uiso   1.00
H229   H     0.10758   0.45074   0.29769   0.00000  Uiso   1.00
H230   H     0.22575   0.54925   0.20230   0.00000  Uiso   1.00
N231   N     0.11736   0.50001   0.24999   0.00000  Uiso   1.00
N232   N     0.21597   0.49999   0.25001   0.00000  Uiso   1.00
O233   O     0.03958   0.43989   0.25000   0.00000  Uiso   1.00
O234   O     0.29375   0.56011   0.25000   0.00000  Uiso   1.00
O235   O     0.29372   0.43988   0.25000   0.00000  Uiso   1.00
O236   O     0.03961   0.56012   0.24999   0.00000  Uiso   1.00
O237   O     0.01852   0.50001   0.31491   0.00000  Uiso   1.00
O238   O     0.31481   0.49999   0.18508   0.00000  Uiso   1.00
O239   O     0.27267   0.50000   0.31492   0.00000  Uiso   1.00
O240   O     0.06067   0.50000   0.18508   0.00000  Uiso   1.00
Br241  Br    0.28958   0.43810   0.12548   0.00000  Uiso   1.00
Br242  Br    0.04376   0.56188   0.37454   0.00000  Uiso   1.00
Br243  Br    0.18949   0.49140   0.10768   0.00000  Uiso   1.00
Br244  Br    0.14384   0.50856   0.39232   0.00000  Uiso   1.00
Br245  Br    0.24525   0.61651   0.32687   0.00000  Uiso   1.00
Br246  Br    0.08808   0.38349   0.17313   0.00000  Uiso   1.00
Cl247  Cl    0.19863   0.43555   0.31181   0.00000  Uiso   1.00
Cl248  Cl    0.13470   0.56444   0.18818   0.00000  Uiso   1.00
C249   C     0.33336   0.42084   0.24921   0.00000  Uiso   1.00
C250   C     0.66664   0.57916   0.25078   0.00000  Uiso   1.00
C251   C     0.52817   0.50915   0.04681   0.00000  Uiso   1.00
C252   C     0.47182   0.49081   0.45320   0.00000  Uiso   1.00
C253   C     0.57397   0.52406   0.02302   0.00000  Uiso   1.00
C254   C     0.42602   0.47589   0.47698   0.00000  Uiso   1.00
C255   C     0.62936   0.35428   0.27971   0.00000  Uiso   1.00
C256   C     0.37064   0.64572   0.22029   0.00000  Uiso   1.00
C257   C     0.62914   0.64472   0.28138   0.00000  Uiso   1.00
C258   C     0.37086   0.35528   0.21862   0.00000  Uiso   1.00
C259   C     0.33334   0.62377   0.25135   0.00000  Uiso   1.00
C260   C     0.66666   0.37624   0.24865   0.00000  Uiso   1.00
C261   C     0.51578   0.47239   0.27652   0.00000  Uiso   1.00
C262   C     0.48422   0.52761   0.22348   0.00000  Uiso   1.00
C263   C     0.46651   0.47261   0.27645   0.00000  Uiso   1.00
C264   C     0.53349   0.52739   0.22355   0.00000  Uiso   1.00
C265   C     0.63936   0.50222   0.33586   0.00000  Uiso   1.00
C266   C     0.36064   0.49778   0.16414   0.00000  Uiso   1.00
C267   C     0.62412   0.50898   0.38446   0.00000  Uiso   1.00
C268   C     0.37588   0.49101   0.11555   0.00000  Uiso   1.00
C269   C     0.63536   0.53729   0.45264   0.00000  Uiso   1.00
C270   C     0.36464   0.46267   0.04737   0.00000  Uiso   1.00
C271   C     0.65204   0.53254   0.40626   0.00000  Uiso   1.00
C272   C     0.34796   0.46744   0.09375   0.00000  Uiso   1.00
C273   C     0.57789   0.49488   0.40876   0.00000  Uiso   1.00
C274   C     0.42211   0.50510   0.09124   0.00000  Uiso   1.00
C275   C     0.55728   0.50646   0.45320   0.00000  Uiso   1.00
C276   C     0.44272   0.49351   0.04680   0.00000  Uiso   1.00
C277   C     0.58860   0.52348   0.47636   0.00000  Uiso   1.00
C278   C     0.41140   0.47647   0.02364   0.00000  Uiso   1.00
C279   C     0.50751   0.49905   0.47607   0.00000  Uiso   1.00
C280   C     0.49249   0.50091   0.02393   0.00000  Uiso   1.00
Cu281  Cu    0.38022   0.50001   0.25000   0.00000  Uiso   1.00
Cu282  Cu    0.61978   0.49999   0.25000   0.00000  Uiso   1.00
H283   H     0.59982   0.53252   0.04114   0.00000  Uiso   1.00
H284   H     0.40017   0.46744   0.45887   0.00000  Uiso   1.00
H285   H     0.44139   0.52595   0.10721   0.00000  Uiso   1.00
H286   H     0.55862   0.47404   0.39278   0.00000  Uiso   1.00
H287   H     0.65837   0.55276   0.46993   0.00000  Uiso   1.00
H288   H     0.34163   0.44720   0.03008   0.00000  Uiso   1.00
H289   H     0.60113   0.37051   0.30348   0.00000  Uiso   1.00
H290   H     0.39887   0.62949   0.19652   0.00000  Uiso   1.00
H291   H     0.44091   0.45074   0.29769   0.00000  Uiso   1.00
H292   H     0.55909   0.54925   0.20230   0.00000  Uiso   1.00
N293   N     0.45069   0.50001   0.24999   0.00000  Uiso   1.00
N294   N     0.54931   0.49999   0.25001   0.00000  Uiso   1.00
O295   O     0.37291   0.43989   0.25000   0.00000  Uiso   1.00
O296   O     0.62709   0.56011   0.25000   0.00000  Uiso   1.00
O297   O     0.62706   0.43988   0.25000   0.00000  Uiso   1.00
O298   O     0.37294   0.56012   0.24999   0.00000  Uiso   1.00
O299   O     0.35186   0.50001   0.31491   0.00000  Uiso   1.00
O300   O     0.64814   0.49999   0.18508   0.00000  Uiso   1.00
O301   O     0.60600   0.50000   0.31492   0.00000  Uiso   1.00
O302   O     0.39400   0.50000   0.18508   0.00000  Uiso   1.00
Br303  Br    0.62291   0.43810   0.12548   0.00000  Uiso   1.00
Br304  Br    0.37709   0.56188   0.37454   0.00000  Uiso   1.00
Br305  Br    0.52282   0.49140   0.10768   0.00000  Uiso   1.00
Br306  Br    0.47717   0.50856   0.39232   0.00000  Uiso   1.00
Br307  Br    0.57859   0.61651   0.32687   0.00000  Uiso   1.00
Br308  Br    0.42141   0.38349   0.17313   0.00000  Uiso   1.00
Cl309  Cl    0.53197   0.43555   0.31181   0.00000  Uiso   1.00
Cl310  Cl    0.46804   0.56444   0.18818   0.00000  Uiso   1.00
C311   C     0.66670   0.42084   0.24921   0.00000  Uiso   1.00
C312   C     0.99997   0.57916   0.25078   0.00000  Uiso   1.00
C313   C     0.86151   0.50915   0.04681   0.00000  Uiso   1.00
C314   C     0.80515   0.49081   0.45320   0.00000  Uiso   1.00
C315   C     0.90731   0.52406   0.02302   0.00000  Uiso   1.00
C316   C     0.75936   0.47589   0.47698   0.00000  Uiso   1.00
C317   C     0.96270   0.35428   0.27971   0.00000  Uiso   1.00
C318   C     0.70397   0.64572   0.22029   0.00000  Uiso   1.00
C319   C     0.96248   0.64472   0.28138   0.00000  Uiso   1.00
C320   C     0.70419   0.35528   0.21862   0.00000  Uiso   1.00
C321   C     0.66668   0.62377   0.25135   0.00000  Uiso   1.00
C322   C     0.99999   0.37624   0.24865   0.00000  Uiso   1.00
C323   C     0.84912   0.47239   0.27652   0.00000  Uiso   1.00
C324   C     0.81755   0.52761   0.22348   0.00000  Uiso   1.00
C325   C     0.79984   0.47261   0.27645   0.00000  Uiso   1.00
C326   C     0.86682   0.52739   0.22355   0.00000  Uiso   1.00
C327   C     0.97269   0.50222   0.33586   0.00000  Uiso   1.00
C328   C     0.69397   0.49778   0.16414   0.00000  Uiso   1.00
C329   C     0.95745   0.50898   0.38446   0.00000  Uiso   1.00
C330   C     0.70921   0.49101   0.11555   0.00000  Uiso   1.00
C331   C     0.96869   0.53729   0.45264   0.00000  Uiso   1.00
C332   C     0.69797   0.46267   0.04737   0.00000  Uiso   1.00
C333   C     0.98537   0.53254   0.40626   0.00000  Uiso   1.00
C334   C     0.68129   0.46744   0.09375   0.00000  Uiso   1.00
C335   C     0.91122   0.49488   0.40876   0.00000  Uiso   1.00
C336   C     0.75544   0.50510   0.09124   0.00000  Uiso   1.00
C337   C     0.89061   0.50646   0.45320   0.00000  Uiso   1.00
C338   C     0.77606   0.49351   0.04680   0.00000  Uiso   1.00
C339   C     0.92193   0.52348   0.47636   0.00000  Uiso   1.00
C340   C     0.74473   0.47647   0.02364   0.00000  Uiso   1.00
C341   C     0.84084   0.49905   0.47607   0.00000  Uiso   1.00
C342   C     0.82582   0.50091   0.02393   0.00000  Uiso   1.00
Cu343  Cu    0.71355   0.50001   0.25000   0.00000  Uiso   1.00
Cu344  Cu    0.95311   0.49999   0.25000   0.00000  Uiso   1.00
H345   H     0.93316   0.53252   0.04114   0.00000  Uiso   1.00
H346   H     0.73351   0.46744   0.45887   0.00000  Uiso   1.00
H347   H     0.77472   0.52595   0.10721   0.00000  Uiso   1.00
H348   H     0.89195   0.47404   0.39278   0.00000  Uiso   1.00
H349   H     0.99170   0.55276   0.46993   0.00000  Uiso   1.00
H350   H     0.67496   0.44720   0.03008   0.00000  Uiso   1.00
H351   H     0.93447   0.37051   0.30348   0.00000  Uiso   1.00
H352   H     0.73220   0.62949   0.19652   0.00000  Uiso   1.00
H353   H     0.77425   0.45074   0.29769   0.00000  Uiso   1.00
H354   H     0.89242   0.54925   0.20230   0.00000  Uiso   1.00
N355   N     0.78403   0.50001   0.24999   0.00000  Uiso   1.00
N356   N     0.88264   0.49999   0.25001   0.00000  Uiso   1.00
O357   O     0.70625   0.43989   0.25000   0.00000  Uiso   1.00
O358   O     0.96042   0.56011   0.25000   0.00000  Uiso   1.00
O359   O     0.96039   0.43988   0.25000   0.00000  Uiso   1.00
O360   O     0.70628   0.56012   0.24999   0.00000  Uiso   1.00
O361   O     0.68519   0.50001   0.31491   0.00000  Uiso   1.00
O362   O     0.98148   0.49999   0.18508   0.00000  Uiso   1.00
O363   O     0.93933   0.50000   0.31492   0.00000  Uiso   1.00
O364   O     0.72733   0.50000   0.18508   0.00000  Uiso   1.00
Br365  Br    0.95624   0.43810   0.12548   0.00000  Uiso   1.00
Br366  Br    0.71043   0.56188   0.37454   0.00000  Uiso   1.00
Br367  Br    0.85616   0.49140   0.10768   0.00000  Uiso   1.00
Br368  Br    0.81050   0.50856   0.39232   0.00000  Uiso   1.00
Br369  Br    0.91192   0.61651   0.32687   0.00000  Uiso   1.00
Br370  Br    0.75475   0.38349   0.17313   0.00000  Uiso   1.00
Cl371  Cl    0.86530   0.43555   0.31181   0.00000  Uiso   1.00
Cl372  Cl    0.80137   0.56444   0.18818   0.00000  Uiso   1.00
C373   C     0.00003   0.75418   0.24921   0.00000  Uiso   1.00
C374   C     0.33330   0.91249   0.25078   0.00000  Uiso   1.00
C375   C     0.19484   0.84249   0.04681   0.00000  Uiso   1.00
C376   C     0.13849   0.82414   0.45320   0.00000  Uiso   1.00
C377   C     0.24064   0.85740   0.02302   0.00000  Uiso   1.00
C378   C     0.09269   0.80923   0.47698   0.00000  Uiso   1.00
C379   C     0.29603   0.68762   0.27971   0.00000  Uiso   1.00
C380   C     0.03730   0.97905   0.22029   0.00000  Uiso   1.00
C381   C     0.29581   0.97805   0.28138   0.00000  Uiso   1.00
C382   C     0.03752   0.68862   0.21862   0.00000  Uiso   1.00
C383   C     0.00001   0.95710   0.25135   0.00000  Uiso   1.00
C384   C     0.33332   0.70957   0.24865   0.00000  Uiso   1.00
C385   C     0.18245   0.80573   0.27652   0.00000  Uiso   1.00
C386   C     0.15088   0.86094   0.22348   0.00000  Uiso   1.00
C387   C     0.13317   0.80595   0.27645   0.00000  Uiso   1.00
C388   C     0.20016   0.86072   0.22355   0.00000  Uiso   1.00
C389   C     0.30603   0.83556   0.33586   0.00000  Uiso   1.00
C390   C     0.02731   0.83111   0.16414   0.00000  Uiso   1.00
C391   C     0.29079   0.84231   0.38446   0.00000  Uiso   1.00
C392   C     0.04255   0.82434   0.11555   0.00000  Uiso   1.00
C393   C     0.30203   0.87062   0.45264   0.00000  Uiso   1.00
C394   C     0.03131   0.79600   0.04737   0.00000  Uiso   1.00
C395   C     0.31871   0.86587   0.40626   0.00000  Uiso   1.00
C396   C     0.01463   0.80077   0.09375   0.00000  Uiso   1.00
C397   C     0.24456   0.82821   0.40876   0.00000  Uiso   1.00
C398   C     0.08878   0.83844   0.09124   0.00000  Uiso   1.00
C399   C     0.22394   0.83979   0.45320   0.00000  Uiso   1.00
C400   C     0.10939   0.82684   0.04680   0.00000  Uiso   1.00
C401   C     0.25527   0.85682   0.47636   0.00000  Uiso   1.00
C402   C     0.07806   0.80981   0.02364   0.00000  Uiso   1.00
C403   C     0.17417   0.83238   0.47607   0.00000  Uiso   1.00
C404   C     0.15915   0.83424   0.02393   0.00000  Uiso   1.00
Cu405  Cu    0.04689   0.83334   0.25000   0.00000  Uiso   1.00
Cu406  Cu    0.28645   0.83333   0.25000   0.00000  Uiso   1.00
H407   H     0.26649   0.86585   0.04114   0.00000  Uiso   1.00
H408   H     0.06684   0.80077   0.45887   0.00000  Uiso   1.00
H409   H     0.10805   0.85928   0.10721   0.00000  Uiso   1.00
H410   H     0.22528   0.80737   0.39278   0.00000  Uiso   1.00
H411   H     0.32504   0.88609   0.46993   0.00000  Uiso   1.00
H412   H     0.00830   0.78053   0.03008   0.00000  Uiso   1.00
H413   H     0.26780   0.70385   0.30348   0.00000  Uiso   1.00
H414   H     0.06553   0.96282   0.19652   0.00000  Uiso   1.00
H415   H     0.10758   0.78408   0.29769   0.00000  Uiso   1.00
H416   H     0.22575   0.88259   0.20230   0.00000  Uiso   1.00
N417   N     0.11736   0.83334   0.24999   0.00000  Uiso   1.00
N418   N     0.21597   0.83332   0.25001   0.00000  Uiso   1.00
O419   O     0.03958   0.77322   0.25000   0.00000  Uiso   1.00
O420   O     0.29375   0.89345   0.25000   0.00000  Uiso   1.00
O421   O     0.29372   0.77321   0.25000   0.00000  Uiso   1.00
O422   O     0.03961   0.89346   0.24999   0.00000  Uiso   1.00
O423   O     0.01852   0.83334   0.31491   0.00000  Uiso   1.00
O424   O     0.31481   0.83332   0.18508   0.00000  Uiso   1.00
O425   O     0.27267   0.83333   0.31492   0.00000  Uiso   1.00
O426   O     0.06067   0.83333   0.18508   0.00000  Uiso   1.00
Br427  Br    0.28958   0.77143   0.12548   0.00000  Uiso   1.00
Br428  Br    0.04376   0.89521   0.37454   0.00000  Uiso   1.00
Br429  Br    0.18949   0.82473   0.10768   0.00000  Uiso   1.00
Br430  Br    0.14384   0.84190   0.39232   0.00000  Uiso   1.00
Br431  Br    0.24525   0.94984   0.32687   0.00000  Uiso   1.00
Br432  Br    0.08808   0.71682   0.17313   0.00000  Uiso   1.00
Cl433  Cl    0.19863   0.76889   0.31181   0.00000  Uiso   1.00
Cl434  Cl    0.13470   0.89777   0.18818   0.00000  Uiso   1.00
C435   C     0.33336   0.75418   0.24921   0.00000  Uiso   1.00
C436   C     0.66664   0.91249   0.25078   0.00000  Uiso   1.00
C437   C     0.52817   0.84249   0.04681   0.00000  Uiso   1.00
C438   C     0.47182   0.82414   0.45320   0.00000  Uiso   1.00
C439   C     0.57397   0.85740   0.02302   0.00000  Uiso   1.00
C440   C     0.42602   0.80923   0.47698   0.00000  Uiso   1.00
C441   C     0.62936   0.68762   0.27971   0.00000  Uiso   1.00
C442   C     0.37064   0.97905   0.22029   0.00000  Uiso   1.00
C443   C     0.62914   0.97805   0.28138   0.00000  Uiso   1.00
C444   C     0.37086   0.68862   0.21862   0.00000  Uiso   1.00
C445   C     0.33334   0.95710   0.25135   0.00000  Uiso   1.00
C446   C     0.66666   0.70957   0.24865   0.00000  Uiso   1.00
C447   C     0.51578   0.80573   0.27652   0.00000  Uiso   1.00
C448   C     0.48422   0.86094   0.22348   0.00000  Uiso   1.00
C449   C     0.46651   0.80595   0.27645   0.00000  Uiso   1.00
C450   C     0.53349   0.86072   0.22355   0.00000  Uiso   1.00
C451   C     0.63936   0.83556   0.33586   0.00000  Uiso   1.00
C452   C     0.36064   0.83111   0.16414   0.00000  Uiso   1.00
C453   C     0.62412   0.84231   0.38446   0.00000  Uiso   1.00
C454   C     0.37588   0.82434   0.11555   0.00000  Uiso   1.00
C455   C     0.63536   0.87062   0.45264   0.00000  Uiso   1.00
C456   C     0.36464   0.79600   0.04737   0.00000  Uiso   1.00
C457   C     0.65204   0.86587   0.40626   0.00000  Uiso   1.00
C458   C     0.34796   0.80077   0.09375   0.00000  Uiso   1.00
C459   C     0.57789   0.82821   0.40876   0.00000  Uiso   1.00
C460   C     0.42211   0.83844   0.09124   0.00000  Uiso   1.00
C461   C     0.55728   0.83979   0.45320   0.00000  Uiso   1.00
C462   C     0.44272   0.82684   0.04680   0.00000  Uiso   1.00
C463   C     0.58860   0.85682   0.47636   0.00000  Uiso   1.00
C464   C     0.41140   0.80981   0.02364   0.00000  Uiso   1.00
C465   C     0.50751   0.83238   0.47607   0.00000  Uiso   1.00
C466   C     0.49249   0.83424   0.02393   0.00000  Uiso   1.00
Cu467  Cu    0.38022   0.83334   0.25000   0.00000  Uiso   1.00
Cu468  Cu    0.61978   0.83333   0.25000   0.00000  Uiso   1.00
H469   H     0.59982   0.86585   0.04114   0.00000  Uiso   1.00
H470   H     0.40017   0.80077   0.45887   0.00000  Uiso   1.00
H471   H     0.44139   0.85928   0.10721   0.00000  Uiso   1.00
H472   H     0.55862   0.80737   0.39278   0.00000  Uiso   1.00
H473   H     0.65837   0.88609   0.46993   0.00000  Uiso   1.00
H474   H     0.34163   0.78053   0.03008   0.00000  Uiso   1.00
H475   H     0.60113   0.70385   0.30348   0.00000  Uiso   1.00
H476   H     0.39887   0.96282   0.19652   0.00000  Uiso   1.00
H477   H     0.44091   0.78408   0.29769   0.00000  Uiso   1.00
H478   H     0.55909   0.88259   0.20230   0.00000  Uiso   1.00
N479   N     0.45069   0.83334   0.24999   0.00000  Uiso   1.00
N480   N     0.54931   0.83332   0.25001   0.00000  Uiso   1.00
O481   O     0.37291   0.77322   0.25000   0.00000  Uiso   1.00
O482   O     0.62709   0.89345   0.25000   0.00000  Uiso   1.00
O483   O     0.62706   0.77321   0.25000   0.00000  Uiso   1.00
O484   O     0.37294   0.89346   0.24999   0.00000  Uiso   1.00
O485   O     0.35186   0.83334   0.31491   0.00000  Uiso   1.00
O486   O     0.64814   0.83332   0.18508   0.00000  Uiso   1.00
O487   O     0.60600   0.83333   0.31492   0.00000  Uiso   1.00
O488   O     0.39400   0.83333   0.18508   0.00000  Uiso   1.00
Br489  Br    0.62291   0.77143   0.12548   0.00000  Uiso   1.00
Br490  Br    0.37709   0.89521   0.37454   0.00000  Uiso   1.00
Br491  Br    0.52282   0.82473   0.10768   0.00000  Uiso   1.00
Br492  Br    0.47717   0.84190   0.39232   0.00000  Uiso   1.00
Br493  Br    0.57859   0.94984   0.32687   0.00000  Uiso   1.00
Br494  Br    0.42141   0.71682   0.17313   0.00000  Uiso   1.00
Cl495  Cl    0.53197   0.76889   0.31181   0.00000  Uiso   1.00
Cl496  Cl    0.46804   0.89777   0.18818   0.00000  Uiso   1.00
C497   C     0.66670   0.75418   0.24921   0.00000  Uiso   1.00
C498   C     0.99997   0.91249   0.25078   0.00000  Uiso   1.00
C499   C     0.86151   0.84249   0.04681   0.00000  Uiso   1.00
C500   C     0.80515   0.82414   0.45320   0.00000  Uiso   1.00
C501   C     0.90731   0.85740   0.02302   0.00000  Uiso   1.00
C502   C     0.75936   0.80923   0.47698   0.00000  Uiso   1.00
C503   C     0.96270   0.68762   0.27971   0.00000  Uiso   1.00
C504   C     0.70397   0.97905   0.22029   0.00000  Uiso   1.00
C505   C     0.96248   0.97805   0.28138   0.00000  Uiso   1.00
C506   C     0.70419   0.68862   0.21862   0.00000  Uiso   1.00
C507   C     0.66668   0.95710   0.25135   0.00000  Uiso   1.00
C508   C     0.99999   0.70957   0.24865   0.00000  Uiso   1.00
C509   C     0.84912   0.80573   0.27652   0.00000  Uiso   1.00
C510   C     0.81755   0.86094   0.22348   0.00000  Uiso   1.00
C511   C     0.79984   0.80595   0.27645   0.00000  Uiso   1.00
C512   C     0.86682   0.86072   0.22355   0.00000  Uiso   1.00
C513   C     0.97269   0.83556   0.33586   0.00000  Uiso   1.00
C514   C     0.69397   0.83111   0.16414   0.00000  Uiso   1.00
C515   C     0.95745   0.84231   0.38446   0.00000  Uiso   1.00
C516   C     0.70921   0.82434   0.11555   0.00000  Uiso   1.00
C517   C     0.96869   0.87062   0.45264   0.00000  Uiso   1.00
C518   C     0.69797   0.79600   0.04737   0.00000  Uiso   1.00
C519   C     0.98537   0.86587   0.40626   0.00000  Uiso   1.00
C520   C     0.68129   0.80077   0.09375   0.00000  Uiso   1.00
C521   C     0.91122   0.82821   0.40876   0.00000  Uiso   1.00
C522   C     0.75544   0.83844   0.09124   0.00000  Uiso   1.00
C523   C     0.89061   0.83979   0.45320   0.00000  Uiso   1.00
C524   C     0.77606   0.82684   0.04680   0.00000  Uiso   1.00
C525   C     0.92193   0.85682   0.47636   0.00000  Uiso   1.00
C526   C     0.74473   0.80981   0.02364   0.00000  Uiso   1.00
C527   C     0.84084   0.83238   0.47607   0.00000  Uiso   1.00
C528   C     0.82582   0.83424   0.02393   0.00000  Uiso   1.00
Cu529  Cu    0.71355   0.83334   0.25000   0.00000  Uiso   1.00
Cu530  Cu    0.95311   0.83333   0.25000   0.00000  Uiso   1.00
H531   H     0.93316   0.86585   0.04114   0.00000  Uiso   1.00
H532   H     0.73351   0.80077   0.45887   0.00000  Uiso   1.00
H533   H     0.77472   0.85928   0.10721   0.00000  Uiso   1.00
H534   H     0.89195   0.80737   0.39278   0.00000  Uiso   1.00
H535   H     0.99170   0.88609   0.46993   0.00000  Uiso   1.00
H536   H     0.67496   0.78053   0.03008   0.00000  Uiso   1.00
H537   H     0.93447   0.70385   0.30348   0.00000  Uiso   1.00
H538   H     0.73220   0.96282   0.19652   0.00000  Uiso   1.00
H539   H     0.77425   0.78408   0.29769   0.00000  Uiso   1.00
H540   H     0.89242   0.88259   0.20230   0.00000  Uiso   1.00
N541   N     0.78403   0.83334   0.24999   0.00000  Uiso   1.00
N542   N     0.88264   0.83332   0.25001   0.00000  Uiso   1.00
O543   O     0.70625   0.77322   0.25000   0.00000  Uiso   1.00
O544   O     0.96042   0.89345   0.25000   0.00000  Uiso   1.00
O545   O     0.96039   0.77321   0.25000   0.00000  Uiso   1.00
O546   O     0.70628   0.89346   0.24999   0.00000  Uiso   1.00
O547   O     0.68519   0.83334   0.31491   0.00000  Uiso   1.00
O548   O     0.98148   0.83332   0.18508   0.00000  Uiso   1.00
O549   O     0.93933   0.83333   0.31492   0.00000  Uiso   1.00
O550   O     0.72733   0.83333   0.18508   0.00000  Uiso   1.00
Br551  Br    0.95624   0.77143   0.12548   0.00000  Uiso   1.00
Br552  Br    0.71043   0.89521   0.37454   0.00000  Uiso   1.00
Br553  Br    0.85616   0.82473   0.10768   0.00000  Uiso   1.00
Br554  Br    0.81050   0.84190   0.39232   0.00000  Uiso   1.00
Br555  Br    0.91192   0.94984   0.32687   0.00000  Uiso   1.00
Br556  Br    0.75475   0.71682   0.17313   0.00000  Uiso   1.00
Cl557  Cl    0.86530   0.76889   0.31181   0.00000  Uiso   1.00
Cl558  Cl    0.80137   0.89777   0.18818   0.00000  Uiso   1.00
C559   C     0.00003   0.08751   0.74921   0.00000  Uiso   1.00
C560   C     0.33330   0.24582   0.75078   0.00000  Uiso   1.00
C561   C     0.19484   0.17582   0.54681   0.00000  Uiso   1.00
C562   C     0.13849   0.15748   0.95320   0.00000  Uiso   1.00
C563   C     0.24064   0.19073   0.52302   0.00000  Uiso   1.00
C564   C     0.09269   0.14256   0.97698   0.00000  Uiso   1.00
C565   C     0.29603   0.02095   0.77971   0.00000  Uiso   1.00
C566   C     0.03730   0.31238   0.72029   0.00000  Uiso   1.00
C567   C     0.29581   0.31138   0.78138   0.00000  Uiso   1.00
C568   C     0.03752   0.02195   0.71862   0.00000  Uiso   1.00
C569   C     0.00001   0.29043   0.75135   0.00000  Uiso   1.00
C570   C     0.33332   0.04290   0.74865   0.00000  Uiso   1.00
C571   C     0.18245   0.13906   0.77652   0.00000  Uiso   1.00
C572   C     0.15088   0.19427   0.72348   0.00000  Uiso   1.00
C573   C     0.13317   0.13928   0.77645   0.00000  Uiso   1.00
C574   C     0.20016   0.19405   0.72355   0.00000  Uiso   1.00
C575   C     0.30603   0.16889   0.83586   0.00000  Uiso   1.00
C576   C     0.02731   0.16444   0.66414   0.00000  Uiso   1.00
C577   C     0.29079   0.17565   0.88446   0.00000  Uiso   1.00
C578   C     0.04255   0.15767   0.61555   0.00000  Uiso   1.00
C579   C     0.30203   0.20396   0.95264   0.00000  Uiso   1.00
C580   C     0.03131   0.12934   0.54737   0.00000  Uiso   1.00
C581   C     0.31871   0.19920   0.90626   0.00000  Uiso   1.00
C582   C     0.01463   0.13411   0.59375   0.00000  Uiso   1.00
C583   C     0.24456   0.16154   0.90876   0.00000  Uiso   1.00
C584   C     0.08878   0.17177   0.59124   0.00000  Uiso   1.00
C585   C     0.22394   0.17313   0.95320   0.00000  Uiso   1.00
C586   C     0.10939   0.16017   0.54680   0.00000  Uiso   1.00
C587   C     0.25527   0.19015   0.97636   0.00000  Uiso   1.00
C588   C     0.07806   0.14314   0.52364   0.00000  Uiso   1.00
C589   C     0.17417   0.16572   0.97607   0.00000  Uiso   1.00
C590   C     0.15915   0.16758   0.52393   0.00000  Uiso   1.00
Cu591  Cu    0.04689   0.16667   0.75000   0.00000  Uiso   1.00
Cu592  Cu    0.28645   0.16666   0.75000   0.00000  Uiso   1.00
H593   H     0.26649   0.19919   0.54114   0.00000  Uiso   1.00
H594   H     0.06684   0.13410   0.95887   0.00000  Uiso   1.00
H595   H     0.10805   0.19261   0.60721   0.00000  Uiso   1.00
H596   H     0.22528   0.14070   0.89278   0.00000  Uiso   1.00
H597   H     0.32504   0.21942   0.96993   0.00000  Uiso   1.00
H598   H     0.00830   0.11386   0.53008   0.00000  Uiso   1.00
H599   H     0.26780   0.03718   0.80348   0.00000  Uiso   1.00
H600   H     0.06553   0.29615   0.69652   0.00000  Uiso   1.00
H601   H     0.10758   0.11741   0.79769   0.00000  Uiso   1.00
H602   H     0.22575   0.21592   0.70230   0.00000  Uiso   1.00
N603   N     0.11736   0.16668   0.74999   0.00000  Uiso   1.00
N604   N     0.21597   0.16666   0.75001   0.00000  Uiso   1.00
O605   O     0.03958   0.10655   0.75000   0.00000  Uiso   1.00
O606   O     0.29375   0.22678   0.75000   0.00000  Uiso   1.00
O607   O     0.29372   0.10654   0.75000   0.00000  Uiso   1.00
O608   O     0.03961   0.22679   0.74999   0.00000  Uiso   1.00
O609   O     0.01852   0.16668   0.81491   0.00000  Uiso   1.00
O610   O     0.31481   0.16666   0.68508   0.00000  Uiso   1.00
O611   O     0.27267   0.16667   0.81492   0.00000  Uiso   1.00
O612   O     0.06067   0.16667   0.68508   0.00000  Uiso   1.00
Br613  Br    0.28958   0.10476   0.62548   0.00000  Uiso   1.00
Br614  Br    0.04376   0.22855   0.87454   0.00000  Uiso   1.00
Br615  Br    0.18949   0.15806   0.60768   0.00000  Uiso   1.00
Br616  Br    0.14384   0.17523   0.89232   0.00000  Uiso   1.00
Br617  Br    0.24525   0.28317   0.82687   0.00000  Uiso   1.00
Br618  Br    0.08808   0.05016   0.67313   0.00000  Uiso   1.00
Cl619  Cl    0.19863   0.10222   0.81181   0.00000  Uiso   1.00
Cl620  Cl    0.13470   0.23111   0.68818   0.00000  Uiso   1.00
C621   C     0.33336   0.08751   0.74921   0.00000  Uiso   1.00
C622   C     0.66664   0.24582   0.75078   0.00000  Uiso   1.00
C623   C     0.52817   0.17582   0.54681   0.00000  Uiso   1.00
C624   C     0.47182   0.15748   0.95320   0.00000  Uiso   1.00
C625   C     0.57397   0.19073   0.52302   0.00000  Uiso   1.00
C626   C     0.42602   0.14256   0.97698   0.00000  Uiso   1.00
C627   C     0.62936   0.02095   0.77971   0.00000  Uiso   1.00
C628   C     0.37064   0.31238   0.72029   0.00000  Uiso   1.00
C629   C     0.62914   0.31138   0.78138   0.00000  Uiso   1.00
C630   C     0.37086   0.02195   0.71862   0.00000  Uiso   1.00
C631   C     0.33334   0.29043   0.75135   0.00000  Uiso   1.00
C632   C     0.66666   0.04290   0.74865   0.00000  Uiso   1.00
C633   C     0.51578   0.13906   0.77652   0.00000  Uiso   1.00
C634   C     0.48422   0.19427   0.72348   0.00000  Uiso   1.00
C635   C     0.46651   0.13928   0.77645   0.00000  Uiso   1.00
C636   C     0.53349   0.19405   0.72355   0.00000  Uiso   1.00
C637   C     0.63936   0.16889   0.83586   0.00000  Uiso   1.00
C638   C     0.36064   0.16444   0.66414   0.00000  Uiso   1.00
C639   C     0.62412   0.17565   0.88446   0.00000  Uiso   1.00
C640   C     0.37588   0.15767   0.61555   0.00000  Uiso   1.00
C641   C     0.63536   0.20396   0.95264   0.00000  Uiso   1.00
C642   C     0.36464   0.12934   0.54737   0.00000  Uiso   1.00
C643   C     0.65204   0.19920   0.90626   0.00000  Uiso   1.00
C644   C     0.34796   0.13411   0.59375   0.00000  Uiso   1.00
C645   C     0.57789   0.16154   0.90876   0.00000  Uiso   1.00
C646   C     0.42211   0.17177   0.59124   0.00000  Uiso   1.00
C647   C     0.55728   0.17313   0.95320   0.00000  Uiso   1.00
C648   C     0.44272   0.16017   0.54680   0.00000  Uiso   1.00
C649   C     0.58860   0.19015   0.97636   0.00000  Uiso   1.00
C650   C     0.41140   0.14314   0.52364   0.00000  Uiso   1.00
C651   C     0.50751   0.16572   0.97607   0.00000  Uiso   1.00
C652   C     0.49249   0.16758   0.52393   0.00000  Uiso   1.00
Cu653  Cu    0.38022   0.16667   0.75000   0.00000  Uiso   1.00
Cu654  Cu    0.61978   0.16666   0.75000   0.00000  Uiso   1.00
H655   H     0.59982   0.19919   0.54114   0.00000  Uiso   1.00
H656   H     0.40017   0.13410   0.95887   0.00000  Uiso   1.00
H657   H     0.44139   0.19261   0.60721   0.00000  Uiso   1.00
H658   H     0.55862   0.14070   0.89278   0.00000  Uiso   1.00
H659   H     0.65837   0.21942   0.96993   0.00000  Uiso   1.00
H660   H     0.34163   0.11386   0.53008   0.00000  Uiso   1.00
H661   H     0.60113   0.03718   0.80348   0.00000  Uiso   1.00
H662   H     0.39887   0.29615   0.69652   0.00000  Uiso   1.00
H663   H     0.44091   0.11741   0.79769   0.00000  Uiso   1.00
H664   H     0.55909   0.21592   0.70230   0.00000  Uiso   1.00
N665   N     0.45069   0.16668   0.74999   0.00000  Uiso   1.00
N666   N     0.54931   0.16666   0.75001   0.00000  Uiso   1.00
O667   O     0.37291   0.10655   0.75000   0.00000  Uiso   1.00
O668   O     0.62709   0.22678   0.75000   0.00000  Uiso   1.00
O669   O     0.62706   0.10654   0.75000   0.00000  Uiso   1.00
O670   O     0.37294   0.22679   0.74999   0.00000  Uiso   1.00
O671   O     0.35186   0.16668   0.81491   0.00000  Uiso   1.00
O672   O     0.64814   0.16666   0.68508   0.00000  Uiso   1.00
O673   O     0.60600   0.16667   0.81492   0.00000  Uiso   1.00
O674   O     0.39400   0.16667   0.68508   0.00000  Uiso   1.00
Br675  Br    0.62291   0.10476   0.62548   0.00000  Uiso   1.00
Br676  Br    0.37709   0.22855   0.87454   0.00000  Uiso   1.00
Br677  Br    0.52282   0.15806   0.60768   0.00000  Uiso   1.00
Br678  Br    0.47717   0.17523   0.89232   0.00000  Uiso   1.00
Br679  Br    0.57859   0.28317   0.82687   0.00000  Uiso   1.00
Br680  Br    0.42141   0.05016   0.67313   0.00000  Uiso   1.00
Cl681  Cl    0.53197   0.10222   0.81181   0.00000  Uiso   1.00
Cl682  Cl    0.46804   0.23111   0.68818   0.00000  Uiso   1.00
C683   C     0.66670   0.08751   0.74921   0.00000  Uiso   1.00
C684   C     0.99997   0.24582   0.75078   0.00000  Uiso   1.00
C685   C     0.86151   0.17582   0.54681   0.00000  Uiso   1.00
C686   C     0.80515   0.15748   0.95320   0.00000  Uiso   1.00
C687   C     0.90731   0.19073   0.52302   0.00000  Uiso   1.00
C688   C     0.75936   0.14256   0.97698   0.00000  Uiso   1.00
C689   C     0.96270   0.02095   0.77971   0.00000  Uiso   1.00
C690   C     0.70397   0.31238   0.72029   0.00000  Uiso   1.00
C691   C     0.96248   0.31138   0.78138   0.00000  Uiso   1.00
C692   C     0.70419   0.02195   0.71862   0.00000  Uiso   1.00
C693   C     0.66668   0.29043   0.75135   0.00000  Uiso   1.00
C694   C     0.99999   0.04290   0.74865   0.00000  Uiso   1.00
C695   C     0.84912   0.13906   0.77652   0.00000  Uiso   1.00
C696   C     0.81755   0.19427   0.72348   0.00000  Uiso   1.00
C697   C     0.79984   0.13928   0.77645   0.00000  Uiso   1.00
C698   C     0.86682   0.19405   0.72355   0.00000  Uiso   1.00
C699   C     0.97269   0.16889   0.83586   0.00000  Uiso   1.00
C700   C     0.69397   0.16444   0.66414   0.00000  Uiso   1.00
C701   C     0.95745   0.17565   0.88446   0.00000  Uiso   1.00
C702   C     0.70921   0.15767   0.61555   0.00000  Uiso   1.00
C703   C     0.96869   0.20396   0.95264   0.00000  Uiso   1.00
C704   C     0.69797   0.12934   0.54737   0.00000  Uiso   1.00
C705   C     0.98537   0.19920   0.90626   0.00000  Uiso   1.00
C706   C     0.68129   0.13411   0.59375   0.00000  Uiso   1.00
C707   C     0.91122   0.16154   0.90876   0.00000  Uiso   1.00
C708   C     0.75544   0.17177   0.59124   0.00000  Uiso   1.00
C709   C     0.89061   0.17313   0.95320   0.00000  Uiso   1.00
C710   C     0.77606   0.16017   0.54680   0.00000  Uiso   1.00
C711   C     0.92193   0.19015   0.97636   0.00000  Uiso   1.00
C712   C     0.74473   0.14314   0.52364   0.00000  Uiso   1.00
C713   C     0.84084   0.16572   0.97607   0.00000  Uiso   1.00
C714   C     0.82582   0.16758   0.52393   0.00000  Uiso   1.00
Cu715  Cu    0.71355   0.16667   0.75000   0.00000  Uiso   1.00
Cu716  Cu    0.95311   0.16666   0.75000   0.00000  Uiso   1.00
H717   H     0.93316   0.19919   0.54114   0.00000  Uiso   1.00
H718   H     0.73351   0.13410   0.95887   0.00000  Uiso   1.00
H719   H     0.77472   0.19261   0.60721   0.00000  Uiso   1.00
H720   H     0.89195   0.14070   0.89278   0.00000  Uiso   1.00
H721   H     0.99170   0.21942   0.96993   0.00000  Uiso   1.00
H722   H     0.67496   0.11386   0.53008   0.00000  Uiso   1.00
H723   H     0.93447   0.03718   0.80348   0.00000  Uiso   1.00
H724   H     0.73220   0.29615   0.69652   0.00000  Uiso   1.00
H725   H     0.77425   0.11741   0.79769   0.00000  Uiso   1.00
H726   H     0.89242   0.21592   0.70230   0.00000  Uiso   1.00
N727   N     0.78403   0.16668   0.74999   0.00000  Uiso   1.00
N728   N     0.88264   0.16666   0.75001   0.00000  Uiso   1.00
O729   O     0.70625   0.10655   0.75000   0.00000  Uiso   1.00
O730   O     0.96042   0.22678   0.75000   0.00000  Uiso   1.00
O731   O     0.96039   0.10654   0.75000   0.00000  Uiso   1.00
O732   O     0.70628   0.22679   0.74999   0.00000  Uiso   1.00
O733   O     0.68519   0.16668   0.81491   0.00000  Uiso   1.00
O734   O     0.98148   0.16666   0.68508   0.00000  Uiso   1.00
O735   O     0.93933   0.16667   0.81492   0.00000  Uiso   1.00
O736   O     0.72733   0.16667   0.68508   0.00000  Uiso   1.00
Br737  Br    0.95624   0.10476   0.62548   0.00000  Uiso   1.00
Br738  Br    0.71043   0.22855   0.87454   0.00000  Uiso   1.00
Br739  Br    0.85616   0.15806   0.60768   0.00000  Uiso   1.00
Br740  Br    0.81050   0.17523   0.89232   0.00000  Uiso   1.00
Br741  Br    0.91192   0.28317   0.82687   0.00000  Uiso   1.00
Br742  Br    0.75475   0.05016   0.67313   0.00000  Uiso   1.00
Cl743  Cl    0.86530   0.10222   0.81181   0.00000  Uiso   1.00
Cl744  Cl    0.80137   0.23111   0.68818   0.00000  Uiso   1.00
C745   C     0.00003   0.42084   0.74921   0.00000  Uiso   1.00
C746   C     0.33330   0.57916   0.75078   0.00000  Uiso   1.00
C747   C     0.19484   0.50915   0.54681   0.00000  Uiso   1.00
C748   C     0.13849   0.49081   0.95320   0.00000  Uiso   1.00
C749   C     0.24064   0.52406   0.52302   0.00000  Uiso   1.00
C750   C     0.09269   0.47589   0.97698   0.00000  Uiso   1.00
C751   C     0.29603   0.35428   0.77971   0.00000  Uiso   1.00
C752   C     0.03730   0.64572   0.72029   0.00000  Uiso   1.00
C753   C     0.29581   0.64472   0.78138   0.00000  Uiso   1.00
C754   C     0.03752   0.35528   0.71862   0.00000  Uiso   1.00
C755   C     0.00001   0.62377   0.75135   0.00000  Uiso   1.00
C756   C     0.33332   0.37624   0.74865   0.00000  Uiso   1.00
C757   C     0.18245   0.47239   0.77652   0.00000  Uiso   1.00
C758   C     0.15088   0.52761   0.72348   0.00000  Uiso   1.00
C759   C     0.13317   0.47261   0.77645   0.00000  Uiso   1.00
C760   C     0.20016   0.52739   0.72355   0.00000  Uiso   1.00
C761   C     0.30603   0.50222   0.83586   0.00000  Uiso   1.00
C762   C     0.02731   0.49778   0.66414   0.00000  Uiso   1.00
C763   C     0.29079   0.50898   0.88446   0.00000  Uiso   1.00
C764   C     0.04255   0.49101   0.61555   0.00000  Uiso   1.00
C765   C     0.30203   0.53729   0.95264   0.00000  Uiso   1.00
C766   C     0.03131   0.46267   0.54737   0.00000  Uiso   1.00
C767   C     0.31871   0.53254   0.90626   0.00000  Uiso   1.00
C768   C     0.01463   0.46744   0.59375   0.00000  Uiso   1.00
C769   C     0.24456   0.49488   0.90876   0.00000  Uiso   1.00
C770   C     0.08878   0.50510   0.59124   0.00000  Uiso   1.00
C771   C     0.22394   0.50646   0.95320   0.00000  Uiso   1.00
C772   C     0.10939   0.49351   0.54680   0.00000  Uiso   1.00
C773   C     0.25527   0.52348   0.97636   0.00000  Uiso   1.00
C774   C     0.07806   0.47647   0.52364   0.00000  Uiso   1.00
C775   C     0.17417   0.49905   0.97607   0.00000  Uiso   1.00
C776   C     0.15915   0.50091   0.52393   0.00000  Uiso   1.00
Cu777  Cu    0.04689   0.50001   0.75000   0.00000  Uiso   1.00
Cu778  Cu    0.28645   0.49999   0.75000   0.00000  Uiso   1.00
H779   H     0.26649   0.53252   0.54114   0.00000  Uiso   1.00
H780   H     0.06684   0.46744   0.95887   0.00000  Uiso   1.00
H781   H     0.10805   0.52595   0.60721   0.00000  Uiso   1.00
H782   H     0.22528   0.47404   0.89278   0.00000  Uiso   1.00
H783   H     0.32504   0.55276   0.96993   0.00000  Uiso   1.00
H784   H     0.00830   0.44720   0.53008   0.00000  Uiso   1.00
H785   H     0.26780   0.37051   0.80348   0.00000  Uiso   1.00
H786   H     0.06553   0.62949   0.69652   0.00000  Uiso   1.00
H787   H     0.10758   0.45074   0.79769   0.00000  Uiso   1.00
H788   H     0.22575   0.54925   0.70230   0.00000  Uiso   1.00
N789   N     0.11736   0.50001   0.74999   0.00000  Uiso   1.00
N790   N     0.21597   0.49999   0.75001   0.00000  Uiso   1.00
O791   O     0.03958   0.43989   0.75000   0.00000  Uiso   1.00
O792   O     0.29375   0.56011   0.75000   0.00000  Uiso   1.00
O793   O     0.29372   0.43988   0.75000   0.00000  Uiso   1.00
O794   O     0.03961   0.56012   0.74999   0.00000  Uiso   1.00
O795   O     0.01852   0.50001   0.81491   0.00000  Uiso   1.00
O796   O     0.31481   0.49999   0.68508   0.00000  Uiso   1.00
O797   O     0.27267   0.50000   0.81492   0.00000  Uiso   1.00
O798   O     0.06067   0.50000   0.68508   0.00000  Uiso   1.00
Br799  Br    0.28958   0.43810   0.62548   0.00000  Uiso   1.00
Br800  Br    0.04376   0.56188   0.87454   0.00000  Uiso   1.00
Br801  Br    0.18949   0.49140   0.60768   0.00000  Uiso   1.00
Br802  Br    0.14384   0.50856   0.89232   0.00000  Uiso   1.00
Br803  Br    0.24525   0.61651   0.82687   0.00000  Uiso   1.00
Br804  Br    0.08808   0.38349   0.67313   0.00000  Uiso   1.00
Cl805  Cl    0.19863   0.43555   0.81181   0.00000  Uiso   1.00
Cl806  Cl    0.13470   0.56444   0.68818   0.00000  Uiso   1.00
C807   C     0.33336   0.42084   0.74921   0.00000  Uiso   1.00
C808   C     0.66664   0.57916   0.75078   0.00000  Uiso   1.00
C809   C     0.52817   0.50915   0.54681   0.00000  Uiso   1.00
C810   C     0.47182   0.49081   0.95320   0.00000  Uiso   1.00
C811   C     0.57397   0.52406   0.52302   0.00000  Uiso   1.00
C812   C     0.42602   0.47589   0.97698   0.00000  Uiso   1.00
C813   C     0.62936   0.35428   0.77971   0.00000  Uiso   1.00
C814   C     0.37064   0.64572   0.72029   0.00000  Uiso   1.00
C815   C     0.62914   0.64472   0.78138   0.00000  Uiso   1.00
C816   C     0.37086   0.35528   0.71862   0.00000  Uiso   1.00
C817   C     0.33334   0.62377   0.75135   0.00000  Uiso   1.00
C818   C     0.66666   0.37624   0.74865   0.00000  Uiso   1.00
C819   C     0.51578   0.47239   0.77652   0.00000  Uiso   1.00
C820   C     0.48422   0.52761   0.72348   0.00000  Uiso   1.00
C821   C     0.46651   0.47261   0.77645   0.00000  Uiso   1.00
C822   C     0.53349   0.52739   0.72355   0.00000  Uiso   1.00
C823   C     0.63936   0.50222   0.83586   0.00000  Uiso   1.00
C824   C     0.36064   0.49778   0.66414   0.00000  Uiso   1.00
C825   C     0.62412   0.50898   0.88446   0.00000  Uiso   1.00
C826   C     0.37588   0.49101   0.61555   0.00000  Uiso   1.00
C827   C     0.63536   0.53729   0.95264   0.00000  Uiso   1.00
C828   C     0.36464   0.46267   0.54737   0.00000  Uiso   1.00
C829   C     0.65204   0.53254   0.90626   0.00000  Uiso   1.00
C830   C     0.34796   0.46744   0.59375   0.00000  Uiso   1.00
C831   C     0.57789   0.49488   0.90876   0.00000  Uiso   1.00
C832   C     0.42211   0.50510   0.59124   0.00000  Uiso   1.00
C833   C     0.55728   0.50646   0.95320   0.00000  Uiso   1.00
C834   C     0.44272   0.49351   0.54680   0.00000  Uiso   1.00
C835   C     0.58860   0.52348   0.97636   0.00000  Uiso   1.00
C836   C     0.41140   0.47647   0.52364   0.00000  Uiso   1.00
C837   C     0.50751   0.49905   0.97607   0.00000  Uiso   1.00
C838   C     0.49249   0.50091   0.52393   0.00000  Uiso   1.00
Cu839  Cu    0.38022   0.50001   0.75000   0.00000  Uiso   1.00
Cu840  Cu    0.61978   0.49999   0.75000   0.00000  Uiso   1.00
H841   H     0.59982   0.53252   0.54114   0.00000  Uiso   1.00
H842   H     0.40017   0.46744   0.95887   0.00000  Uiso   1.00
H843   H     0.44139   0.52595   0.60721   0.00000  Uiso   1.00
H844   H     0.55862   0.47404   0.89278   0.00000  Uiso   1.00
H845   H     0.65837   0.55276   0.96993   0.00000  Uiso   1.00
H846   H     0.34163   0.44720   0.53008   0.00000  Uiso   1.00
H847   H     0.60113   0.37051   0.80348   0.00000  Uiso   1.00
H848   H     0.39887   0.62949   0.69652   0.00000  Uiso   1.00
H849   H     0.44091   0.45074   0.79769   0.00000  Uiso   1.00
H850   H     0.55909   0.54925   0.70230   0.00000  Uiso   1.00
N851   N     0.45069   0.50001   0.74999   0.00000  Uiso   1.00
N852   N     0.54931   0.49999   0.75001   0.00000  Uiso   1.00
O853   O     0.37291   0.43989   0.75000   0.00000  Uiso   1.00
O854   O     0.62709   0.56011   0.75000   0.00000  Uiso   1.00
O855   O     0.62706   0.43988   0.75000   0.00000  Uiso   1.00
O856   O     0.37294   0.56012   0.74999   0.00000  Uiso   1.00
O857   O     0.35186   0.50001   0.81491   0.00000  Uiso   1.00
O858   O     0.64814   0.49999   0.68508   0.00000  Uiso   1.00
O859   O     0.60600   0.50000   0.81492   0.00000  Uiso   1.00
O860   O     0.39400   0.50000   0.68508   0.00000  Uiso   1.00
Br861  Br    0.62291   0.43810   0.62548   0.00000  Uiso   1.00
Br862  Br    0.37709   0.56188   0.87454   0.00000  Uiso   1.00
Br863  Br    0.52282   0.49140   0.60768   0.00000  Uiso   1.00
Br864  Br    0.47717   0.50856   0.89232   0.00000  Uiso   1.00
Br865  Br    0.57859   0.61651   0.82687   0.00000  Uiso   1.00
Br866  Br    0.42141   0.38349   0.67313   0.00000  Uiso   1.00
Cl867  Cl    0.53197   0.43555   0.81181   0.00000  Uiso   1.00
Cl868  Cl    0.46804   0.56444   0.68818   0.00000  Uiso   1.00
C869   C     0.66670   0.42084   0.74921   0.00000  Uiso   1.00
C870   C     0.99997   0.57916   0.75078   0.00000  Uiso   1.00
C871   C     0.86151   0.50915   0.54681   0.00000  Uiso   1.00
C872   C     0.80515   0.49081   0.95320   0.00000  Uiso   1.00
C873   C     0.90731   0.52406   0.52302   0.00000  Uiso   1.00
C874   C     0.75936   0.47589   0.97698   0.00000  Uiso   1.00
C875   C     0.96270   0.35428   0.77971   0.00000  Uiso   1.00
C876   C     0.70397   0.64572   0.72029   0.00000  Uiso   1.00
C877   C     0.96248   0.64472   0.78138   0.00000  Uiso   1.00
C878   C     0.70419   0.35528   0.71862   0.00000  Uiso   1.00
C879   C     0.66668   0.62377   0.75135   0.00000  Uiso   1.00
C880   C     0.99999   0.37624   0.74865   0.00000  Uiso   1.00
C881   C     0.84912   0.47239   0.77652   0.00000  Uiso   1.00
C882   C     0.81755   0.52761   0.72348   0.00000  Uiso   1.00
C883   C     0.79984   0.47261   0.77645   0.00000  Uiso   1.00
C884   C     0.86682   0.52739   0.72355   0.00000  Uiso   1.00
C885   C     0.97269   0.50222   0.83586   0.00000  Uiso   1.00
C886   C     0.69397   0.49778   0.66414   0.00000  Uiso   1.00
C887   C     0.95745   0.50898   0.88446   0.00000  Uiso   1.00
C888   C     0.70921   0.49101   0.61555   0.00000  Uiso   1.00
C889   C     0.96869   0.53729   0.95264   0.00000  Uiso   1.00
C890   C     0.69797   0.46267   0.54737   0.00000  Uiso   1.00
C891   C     0.98537   0.53254   0.90626   0.00000  Uiso   1.00
C892   C     0.68129   0.46744   0.59375   0.00000  Uiso   1.00
C893   C     0.91122   0.49488   0.90876   0.00000  Uiso   1.00
C894   C     0.75544   0.50510   0.59124   0.00000  Uiso   1.00
C895   C     0.89061   0.50646   0.95320   0.00000  Uiso   1.00
C896   C     0.77606   0.49351   0.54680   0.00000  Uiso   1.00
C897   C     0.92193   0.52348   0.97636   0.00000  Uiso   1.00
C898   C     0.74473   0.47647   0.52364   0.00000  Uiso   1.00
C899   C     0.84084   0.49905   0.97607   0.00000  Uiso   1.00
C900   C     0.82582   0.50091   0.52393   0.00000  Uiso   1.00
Cu901  Cu    0.71355   0.50001   0.75000   0.00000  Uiso   1.00
Cu902  Cu    0.95311   0.49999   0.75000   0.00000  Uiso   1.00
H903   H     0.93316   0.53252   0.54114   0.00000  Uiso   1.00
H904   H     0.73351   0.46744   0.95887   0.00000  Uiso   1.00
H905   H     0.77472   0.52595   0.60721   0.00000  Uiso   1.00
H906   H     0.89195   0.47404   0.89278   0.00000  Uiso   1.00
H907   H     0.99170   0.55276   0.96993   0.00000  Uiso   1.00
H908   H     0.67496   0.44720   0.53008   0.00000  Uiso   1.00
H909   H     0.93447   0.37051   0.80348   0.00000  Uiso   1.00
H910   H     0.73220   0.62949   0.69652   0.00000  Uiso   1.00
H911   H     0.77425   0.45074   0.79769   0.00000  Uiso   1.00
H912   H     0.89242   0.54925   0.70230   0.00000  Uiso   1.00
N913   N     0.78403   0.50001   0.74999   0.00000  Uiso   1.00
N914   N     0.88264   0.49999   0.75001   0.00000  Uiso   1.00
O915   O     0.70625   0.43989   0.75000   0.00000  Uiso   1.00
O916   O     0.96042   0.56011   0.75000   0.00000  Uiso   1.00
O917   O     0.96039   0.43988   0.75000   0.00000  Uiso   1.00
O918   O     0.70628   0.56012   0.74999   0.00000  Uiso   1.00
O919   O     0.68519   0.50001   0.81491   0.00000  Uiso   1.00
O920   O     0.98148   0.49999   0.68508   0.00000  Uiso   1.00
O921   O     0.93933   0.50000   0.81492   0.00000  Uiso   1.00
O922   O     0.72733   0.50000   0.68508   0.00000  Uiso   1.00
Br923  Br    0.95624   0.43810   0.62548   0.00000  Uiso   1.00
Br924  Br    0.71043   0.56188   0.87454   0.00000  Uiso   1.00
Br925  Br    0.85616   0.49140   0.60768   0.00000  Uiso   1.00
Br926  Br    0.81050   0.50856   0.89232   0.00000  Uiso   1.00
Br927  Br    0.91192   0.61651   0.82687   0.00000  Uiso   1.00
Br928  Br    0.75475   0.38349   0.67313   0.00000  Uiso   1.00
Cl929  Cl    0.86530   0.43555   0.81181   0.00000  Uiso   1.00
Cl930  Cl    0.80137   0.56444   0.68818   0.00000  Uiso   1.00
C931   C     0.00003   0.75418   0.74921   0.00000  Uiso   1.00
C932   C     0.33330   0.91249   0.75078   0.00000  Uiso   1.00
C933   C     0.19484   0.84249   0.54681   0.00000  Uiso   1.00
C934   C     0.13849   0.82414   0.95320   0.00000  Uiso   1.00
C935   C     0.24064   0.85740   0.52302   0.00000  Uiso   1.00
C936   C     0.09269   0.80923   0.97698   0.00000  Uiso   1.00
C937   C     0.29603   0.68762   0.77971   0.00000  Uiso   1.00
C938   C     0.03730   0.97905   0.72029   0.00000  Uiso   1.00
C939   C     0.29581   0.97805   0.78138   0.00000  Uiso   1.00
C940   C     0.03752   0.68862   0.71862   0.00000  Uiso   1.00
C941   C     0.00001   0.95710   0.75135   0.00000  Uiso   1.00
C942   C     0.33332   0.70957   0.74865   0.00000  Uiso   1.00
C943   C     0.18245   0.80573   0.77652   0.00000  Uiso   1.00
C944   C     0.15088   0.86094   0.72348   0.00000  Uiso   1.00
C945   C     0.13317   0.80595   0.77645   0.00000  Uiso   1.00
C946   C     0.20016   0.86072   0.72355   0.00000  Uiso   1.00
C947   C     0.30603   0.83556   0.83586   0.00000  Uiso   1.00
C948   C     0.02731   0.83111   0.66414   0.00000  Uiso   1.00
C949   C     0.29079   0.84231   0.88446   0.00000  Uiso   1.00
C950   C     0.04255   0.82434   0.61555   0.00000  Uiso   1.00
C951   C     0.30203   0.87062   0.95264   0.00000  Uiso   1.00
C952   C     0.03131   0.79600   0.54737   0.00000  Uiso   1.00
C953   C     0.31871   0.86587   0.90626   0.00000  Uiso   1.00
C954   C     0.01463   0.80077   0.59375   0.00000  Uiso   1.00
C955   C     0.24456   0.82821   0.90876   0.00000  Uiso   1.00
C956   C     0.08878   0.83844   0.59124   0.00000  Uiso   1.00
C957   C     0.22394   0.83979   0.95320   0.00000  Uiso   1.00
C958   C     0.10939   0.82684   0.54680   0.00000  Uiso   1.00
C959   C     0.25527   0.85682   0.97636   0.00000  Uiso   1.00
C960   C     0.07806   0.80981   0.52364   0.00000  Uiso   1.00
C961   C     0.17417   0.83238   0.97607   0.00000  Uiso   1.00
C962   C     0.15915   0.83424   0.52393   0.00000  Uiso   1.00
Cu963  Cu    0.04689   0.83334   0.75000   0.00000  Uiso   1.00
Cu964  Cu    0.28645   0.83333   0.75000   0.00000  Uiso   1.00
H965   H     0.26649   0.86585   0.54114   0.00000  Uiso   1.00
H966   H     0.06684   0.80077   0.95887   0.00000  Uiso   1.00
H967   H     0.10805   0.85928   0.60721   0.00000  Uiso   1.00
H968   H     0.22528   0.80737   0.89278   0.00000  Uiso   1.00
H969   H     0.32504   0.88609   0.96993   0.00000  Uiso   1.00
H970   H     0.00830   0.78053   0.53008   0.00000  Uiso   1.00
H971   H     0.26780   0.70385   0.80348   0.00000  Uiso   1.00
H972   H     0.06553   0.96282   0.69652   0.00000  Uiso   1.00
H973   H     0.10758   0.78408   0.79769   0.00000  Uiso   1.00
H974   H     0.22575   0.88259   0.70230   0.00000  Uiso   1.00
N975   N     0.11736   0.83334   0.74999   0.00000  Uiso   1.00
N976   N     0.21597   0.83332   0.75001   0.00000  Uiso   1.00
O977   O     0.03958   0.77322   0.75000   0.00000  Uiso   1.00
O978   O     0.29375   0.89345   0.75000   0.00000  Uiso   1.00
O979   O     0.29372   0.77321   0.75000   0.00000  Uiso   1.00
O980   O     0.03961   0.89346   0.74999   0.00000  Uiso   1.00
O981   O     0.01852   0.83334   0.81491   0.00000  Uiso   1.00
O982   O     0.31481   0.83332   0.68508   0.00000  Uiso   1.00
O983   O     0.27267   0.83333   0.81492   0.00000  Uiso   1.00
O984   O     0.06067   0.83333   0.68508   0.00000  Uiso   1.00
Br985  Br    0.28958   0.77143   0.62548   0.00000  Uiso   1.00
Br986  Br    0.04376   0.89521   0.87454   0.00000  Uiso   1.00
Br987  Br    0.18949   0.82473   0.60768   0.00000  Uiso   1.00
Br988  Br    0.14384   0.84190   0.89232   0.00000  Uiso   1.00
Br989  Br    0.24525   0.94984   0.82687   0.00000  Uiso   1.00
Br990  Br    0.08808   0.71682   0.67313   0.00000  Uiso   1.00
Cl991  Cl    0.19863   0.76889   0.81181   0.00000  Uiso   1.00
Cl992  Cl    0.13470   0.89777   0.68818   0.00000  Uiso   1.00
C993   C     0.33336   0.75418   0.74921   0.00000  Uiso   1.00
C994   C     0.66664   0.91249   0.75078   0.00000  Uiso   1.00
C995   C     0.52817   0.84249   0.54681   0.00000  Uiso   1.00
C996   C     0.47182   0.82414   0.95320   0.00000  Uiso   1.00
C997   C     0.57397   0.85740   0.52302   0.00000  Uiso   1.00
C998   C     0.42602   0.80923   0.97698   0.00000  Uiso   1.00
C999   C     0.62936   0.68762   0.77971   0.00000  Uiso   1.00
C1000  C     0.37064   0.97905   0.72029   0.00000  Uiso   1.00
C1001  C     0.62914   0.97805   0.78138   0.00000  Uiso   1.00
C1002  C     0.37086   0.68862   0.71862   0.00000  Uiso   1.00
C1003  C     0.33334   0.95710   0.75135   0.00000  Uiso   1.00
C1004  C     0.66666   0.70957   0.74865   0.00000  Uiso   1.00
C1005  C     0.51578   0.80573   0.77652   0.00000  Uiso   1.00
C1006  C     0.48422   0.86094   0.72348   0.00000  Uiso   1.00
C1007  C     0.46651   0.80595   0.77645   0.00000  Uiso   1.00
C1008  C     0.53349   0.86072   0.72355   0.00000  Uiso   1.00
C1009  C     0.63936   0.83556   0.83586   0.00000  Uiso   1.00
C1010  C     0.36064   0.83111   0.66414   0.00000  Uiso   1.00
C1011  C     0.62412   0.84231   0.88446   0.00000  Uiso   1.00
C1012  C     0.37588   0.82434   0.61555   0.00000  Uiso   1.00
C1013  C     0.63536   0.87062   0.95264   0.00000  Uiso   1.00
C1014  C     0.36464   0.79600   0.54737   0.00000  Uiso   1.00
C1015  C     0.65204   0.86587   0.90626   0.00000  Uiso   1.00
C1016  C     0.34796   0.80077   0.59375   0.00000  Uiso   1.00
C1017  C     0.57789   0.82821   0.90876   0.00000  Uiso   1.00
C1018  C     0.42211   0.83844   0.59124   0.00000  Uiso   1.00
C1019  C     0.55728   0.83979   0.95320   0.00000  Uiso   1.00
C1020  C     0.44272   0.82684   0.54680   0.00000  Uiso   1.00
C1021  C     0.58860   0.85682   0.97636   0.00000  Uiso   1.00
C1022  C     0.41140   0.80981   0.52364   0.00000  Uiso   1.00
C1023  C     0.50751   0.83238   0.97607   0.00000  Uiso   1.00
C1024  C     0.49249   0.83424   0.52393   0.00000  Uiso   1.00
Cu1025 Cu    0.38022   0.83334   0.75000   0.00000  Uiso   1.00
Cu1026 Cu    0.61978   0.83333   0.75000   0.00000  Uiso   1.00
H1027  H     0.59982   0.86585   0.54114   0.00000  Uiso   1.00
H1028  H     0.40017   0.80077   0.95887   0.00000  Uiso   1.00
H1029  H     0.44139   0.85928   0.60721   0.00000  Uiso   1.00
H1030  H     0.55862   0.80737   0.89278   0.00000  Uiso   1.00
H1031  H     0.65837   0.88609   0.96993   0.00000  Uiso   1.00
H1032  H     0.34163   0.78053   0.53008   0.00000  Uiso   1.00
H1033  H     0.60113   0.70385   0.80348   0.00000  Uiso   1.00
H1034  H     0.39887   0.96282   0.69652   0.00000  Uiso   1.00
H1035  H     0.44091   0.78408   0.79769   0.00000  Uiso   1.00
H1036  H     0.55909   0.88259   0.70230   0.00000  Uiso   1.00
N1037  N     0.45069   0.83334   0.74999   0.00000  Uiso   1.00
N1038  N     0.54931   0.83332   0.75001   0.00000  Uiso   1.00
O1039  O     0.37291   0.77322   0.75000   0.00000  Uiso   1.00
O1040  O     0.62709   0.89345   0.75000   0.00000  Uiso   1.00
O1041  O     0.62706   0.77321   0.75000   0.00000  Uiso   1.00
O1042  O     0.37294   0.89346   0.74999   0.00000  Uiso   1.00
O1043  O     0.35186   0.83334   0.81491   0.00000  Uiso   1.00
O1044  O     0.64814   0.83332   0.68508   0.00000  Uiso   1.00
O1045  O     0.60600   0.83333   0.81492   0.00000  Uiso   1.00
O1046  O     0.39400   0.83333   0.68508   0.00000  Uiso   1.00
Br1047 Br    0.62291   0.77143   0.62548   0.00000  Uiso   1.00
Br1048 Br    0.37709   0.89521   0.87454   0.00000  Uiso   1.00
Br1049 Br    0.52282   0.82473   0.60768   0.00000  Uiso   1.00
Br1050 Br    0.47717   0.84190   0.89232   0.00000  Uiso   1.00
Br1051 Br    0.57859   0.94984   0.82687   0.00000  Uiso   1.00
Br1052 Br    0.42141   0.71682   0.67313   0.00000  Uiso   1.00
Cl1053 Cl    0.53197   0.76889   0.81181   0.00000  Uiso   1.00
Cl1054 Cl    0.46804   0.89777   0.68818   0.00000  Uiso   1.00
C1055  C     0.66670   0.75418   0.74921   0.00000  Uiso   1.00
C1056  C     0.99997   0.91249   0.75078   0.00000  Uiso   1.00
C1057  C     0.86151   0.84249   0.54681   0.00000  Uiso   1.00
C1058  C     0.80515   0.82414   0.95320   0.00000  Uiso   1.00
C1059  C     0.90731   0.85740   0.52302   0.00000  Uiso   1.00
C1060  C     0.75936   0.80923   0.97698   0.00000  Uiso   1.00
C1061  C     0.96270   0.68762   0.77971   0.00000  Uiso   1.00
C1062  C     0.70397   0.97905   0.72029   0.00000  Uiso   1.00
C1063  C     0.96248   0.97805   0.78138   0.00000  Uiso   1.00
C1064  C     0.70419   0.68862   0.71862   0.00000  Uiso   1.00
C1065  C     0.66668   0.95710   0.75135   0.00000  Uiso   1.00
C1066  C     0.99999   0.70957   0.74865   0.00000  Uiso   1.00
C1067  C     0.84912   0.80573   0.77652   0.00000  Uiso   1.00
C1068  C     0.81755   0.86094   0.72348   0.00000  Uiso   1.00
C1069  C     0.79984   0.80595   0.77645   0.00000  Uiso   1.00
C1070  C     0.86682   0.86072   0.72355   0.00000  Uiso   1.00
C1071  C     0.97269   0.83556   0.83586   0.00000  Uiso   1.00
C1072  C     0.69397   0.83111   0.66414   0.00000  Uiso   1.00
C1073  C     0.95745   0.84231   0.88446   0.00000  Uiso   1.00
C1074  C     0.70921   0.82434   0.61555   0.00000  Uiso   1.00
C1075  C     0.96869   0.87062   0.95264   0.00000  Uiso   1.00
C1076  C     0.69797   0.79600   0.54737   0.00000  Uiso   1.00
C1077  C     0.98537   0.86587   0.90626   0.00000  Uiso   1.00
C1078  C     0.68129   0.80077   0.59375   0.00000  Uiso   1.00
C1079  C     0.91122   0.82821   0.90876   0.00000  Uiso   1.00
C1080  C     0.75544   0.83844   0.59124   0.00000  Uiso   1.00
C1081  C     0.89061   0.83979   0.95320   0.00000  Uiso   1.00
C1082  C     0.77606   0.82684   0.54680   0.00000  Uiso   1.00
C1083  C     0.92193   0.85682   0.97636   0.00000  Uiso   1.00
C1084  C     0.74473   0.80981   0.52364   0.00000  Uiso   1.00
C1085  C     0.84084   0.83238   0.97607   0.00000  Uiso   1.00
C1086  C     0.82582   0.83424   0.52393   0.00000  Uiso   1.00
Cu1087 Cu    0.71355   0.83334   0.75000   0.00000  Uiso   1.00
Cu1088 Cu    0.95311   0.83333   0.75000   0.00000  Uiso   1.00
H1089  H     0.93316   0.86585   0.54114   0.00000  Uiso   1.00
H1090  H     0.73351   0.80077   0.95887   0.00000  Uiso   1.00
H1091  H     0.77472   0.85928   0.60721   0.00000  Uiso   1.00
H1092  H     0.89195   0.80737   0.89278   0.00000  Uiso   1.00
H1093  H     0.99170   0.88609   0.96993   0.00000  Uiso   1.00
H1094  H     0.67496   0.78053   0.53008   0.00000  Uiso   1.00
H1095  H     0.93447   0.70385   0.80348   0.00000  Uiso   1.00
H1096  H     0.73220   0.96282   0.69652   0.00000  Uiso   1.00
H1097  H     0.77425   0.78408   0.79769   0.00000  Uiso   1.00
H1098  H     0.89242   0.88259   0.70230   0.00000  Uiso   1.00
N1099  N     0.78403   0.83334   0.74999   0.00000  Uiso   1.00
N1100  N     0.88264   0.83332   0.75001   0.00000  Uiso   1.00
O1101  O     0.70625   0.77322   0.75000   0.00000  Uiso   1.00
O1102  O     0.96042   0.89345   0.75000   0.00000  Uiso   1.00
O1103  O     0.96039   0.77321   0.75000   0.00000  Uiso   1.00
O1104  O     0.70628   0.89346   0.74999   0.00000  Uiso   1.00
O1105  O     0.68519   0.83334   0.81491   0.00000  Uiso   1.00
O1106  O     0.98148   0.83332   0.68508   0.00000  Uiso   1.00
O1107  O     0.93933   0.83333   0.81492   0.00000  Uiso   1.00
O1108  O     0.72733   0.83333   0.68508   0.00000  Uiso   1.00
Br1109 Br    0.95624   0.77143   0.62548   0.00000  Uiso   1.00
Br1110 Br    0.71043   0.89521   0.87454   0.00000  Uiso   1.00
Br1111 Br    0.85616   0.82473   0.60768   0.00000  Uiso   1.00
Br1112 Br    0.81050   0.84190   0.89232   0.00000  Uiso   1.00
Br1113 Br    0.91192   0.94984   0.82687   0.00000  Uiso   1.00
Br1114 Br    0.75475   0.71682   0.67313   0.00000  Uiso   1.00
Cl1115 Cl    0.86530   0.76889   0.81181   0.00000  Uiso   1.00
Cl1116 Cl    0.80137   0.89777   0.68818   0.00000  Uiso   1.00
loop_
_geom_bond_atom_site_label_1
_geom_bond_atom_site_label_2
_geom_bond_distance
_geom_bond_site_symmetry_2
_ccdc_geom_bond_type
C1     O47     1.292   .     A
C1     C136    1.442   1_455 S
C1     O173    1.297   1_455 S
C2     O48     1.292   .     A
C2     C73     1.442   .     S
C2     O112    1.297   .     S
C3     C5      1.391   .     A
C3     C32     1.426   .     A
C3     Br57    1.925   .     S
C4     C31     1.426   .     A
C4     Br58    1.925   .     S
C4     C6      1.391   .     A
C5     H35     1.085   .     S
C5     C587    1.390   1_554 S
C6     H36     1.085   .     S
C6     C588    1.390   .     S
C7     C12     1.398   .     A
C7     H41     1.082   .     S
C7     C381    1.387   1_545 S
C8     C11     1.398   .     A
C8     H42     1.082   .     S
C8     C196    1.387   .     S
C9     Br59    1.923   .     S
C9     C193    1.387   .     S
C9     C73     1.406   .     S
C10    Br60    1.923   .     S
C10    C380    1.387   1_545 S
C10    C136    1.406   1_455 S
C11    C126    1.442   1_455 S
C11    C133    1.406   1_455 S
C12    C63     1.442   .     S
C12    C72     1.406   .     S
C13    N46     1.380   .     A
C13    C15     1.417   .     A
C13    Cl61    1.753   .     S
C14    N45     1.380   .     A
C14    C16     1.417   .     A
C14    Cl62    1.753   .     S
C15    H43     1.082   .     S
C15    N45     1.360   .     A
C16    H44     1.082   .     S
C16    N46     1.360   .     A
C17    O53     1.301   .     A
C17    C19     1.469   .     S
C17    O113    1.300   .     S
C18    C20     1.469   .     S
C18    O54     1.301   .     A
C18    O176    1.300   1_455 S
C19    C25     1.397   .     A
C19    C23     1.410   .     A
C20    C26     1.397   .     A
C20    C24     1.411   .     A
C21    H39     1.084   .     S
C21    C23     1.396   .     A
C21    C29     1.402   .     A
C22    H40     1.084   .     S
C22    C24     1.396   .     A
C22    C30     1.402   .     A
C23    Br118   1.919   .     S
C24    Br179   1.919   1_455 S
C25    H38     1.079   .     S
C25    C27     1.401   .     A
C26    H37     1.079   .     S
C26    C28     1.401   .     A
C27    C29     1.412   .     A
C27    C31     1.423   .     A
C28    C30     1.412   .     A
C28    C32     1.423   .     A
C29    C563    1.390   .     S
C30    C564    1.390   1_554 S
C31    C590    1.428   .     S
C32    C589    1.428   1_554 S
Cu33   O51     1.950   .     S
Cu33   N45     2.026   .     S
Cu33   O47     1.952   .     S
Cu33   O54     1.940   .     S
Cu33   O50     1.957   .     S
Cu33   Cu158   2.695   1_455 S
Cu34   N46     2.026   .     S
Cu34   O53     1.940   .     S
Cu34   O48     1.952   .     S
Cu34   O49     1.957   .     S
Cu34   O52     1.950   .     S
Cu34   Cu95    2.695   .     S
O49    C63     1.297   .     S
O50    C126    1.297   1_455 S
O51    C141    1.300   1_455 S
O52    C80     1.300   .     S
Br55   C86     1.919   .     S
Br56   C147    1.919   1_455 S
C63    O109    1.292   .     A
C64    O110    1.292   .     A
C64    C135    1.442   .     S
C64    O174    1.297   .     S
C65    C67     1.391   .     A
C65    C94     1.426   .     A
C65    Br119   1.925   .     S
C66    C93     1.426   .     A
C66    Br120   1.925   .     S
C66    C68     1.391   .     A
C67    H97     1.085   .     S
C67    C649    1.390   1_554 S
C68    H98     1.085   .     S
C68    C650    1.390   .     S
C69    C74     1.398   .     A
C69    H103    1.082   .     S
C69    C443    1.387   1_545 S
C70    C73     1.398   .     A
C70    H104    1.082   .     S
C70    C258    1.387   .     S
C71    Br121   1.923   .     S
C71    C255    1.387   .     S
C71    C135    1.406   .     S
C72    Br122   1.923   .     S
C72    C442    1.387   1_545 S
C74    C125    1.442   .     S
C74    C134    1.406   .     S
C75    N108    1.380   .     A
C75    C77     1.417   .     A
C75    Cl123   1.753   .     S
C76    N107    1.380   .     A
C76    C78     1.417   .     A
C76    Cl124   1.753   .     S
C77    H105    1.082   .     S
C77    N107    1.360   .     A
C78    H106    1.082   .     S
C78    N108    1.360   .     A
C79    O115    1.301   .     A
C79    C81     1.469   .     S
C79    O175    1.300   .     S
C80    C82     1.469   .     S
C80    O116    1.301   .     A
C81    C87     1.397   .     A
C81    C85     1.410   .     A
C82    C88     1.397   .     A
C82    C86     1.411   .     A
C83    H101    1.084   .     S
C83    C85     1.396   .     A
C83    C91     1.402   .     A
C84    H102    1.084   .     S
C84    C86     1.396   .     A
C84    C92     1.402   .     A
C85    Br180   1.919   .     S
C87    H100    1.079   .     S
C87    C89     1.401   .     A
C88    H99     1.079   .     S
C88    C90     1.401   .     A
C89    C91     1.412   .     A
C89    C93     1.423   .     A
C90    C92     1.412   .     A
C90    C94     1.423   .     A
C91    C625    1.390   .     S
C92    C626    1.390   1_554 S
C93    C652    1.428   .     S
C94    C651    1.428   1_554 S
Cu95   O113    1.950   .     S
Cu95   N107    2.026   .     S
Cu95   O109    1.952   .     S
Cu95   O116    1.940   .     S
Cu95   O112    1.957   .     S
Cu96   N108    2.026   .     S
Cu96   O115    1.940   .     S
Cu96   O110    1.952   .     S
Cu96   O111    1.957   .     S
Cu96   O114    1.950   .     S
Cu96   Cu157   2.695   .     S
O111   C125    1.297   .     S
O114   C142    1.300   .     S
Br117  C148    1.919   .     S
C125   O171    1.292   .     A
C126   O172    1.292   .     A
C126   C11     1.442   1_655 S
C126   O50     1.297   1_655 S
C127   C129    1.391   .     A
C127   C156    1.426   .     A
C127   Br181   1.925   .     S
C128   C155    1.426   .     A
C128   Br182   1.925   .     S
C128   C130    1.391   .     A
C129   H159    1.085   .     S
C129   C711    1.390   1_554 S
C130   H160    1.085   .     S
C130   C712    1.390   .     S
C131   C136    1.398   .     A
C131   H165    1.082   .     S
C131   C505    1.387   1_545 S
C132   C135    1.398   .     A
C132   H166    1.082   .     S
C132   C320    1.387   .     S
C133   Br183   1.923   .     S
C133   C317    1.387   .     S
C133   C11     1.406   1_655 S
C134   Br184   1.923   .     S
C134   C504    1.387   1_545 S
C136   C1      1.442   1_655 S
C136   C10     1.406   1_655 S
C137   N170    1.380   .     A
C137   C139    1.417   .     A
C137   Cl185   1.753   .     S
C138   N169    1.380   .     A
C138   C140    1.417   .     A
C138   Cl186   1.753   .     S
C139   H167    1.082   .     S
C139   N169    1.360   .     A
C140   H168    1.082   .     S
C140   N170    1.360   .     A
C141   O177    1.301   .     A
C141   C143    1.469   .     S
C141   O51     1.300   1_655 S
C142   C144    1.469   .     S
C142   O178    1.301   .     A
C143   C149    1.397   .     A
C143   C147    1.410   .     A
C144   C150    1.397   .     A
C144   C148    1.411   .     A
C145   H163    1.084   .     S
C145   C147    1.396   .     A
C145   C153    1.402   .     A
C146   H164    1.084   .     S
C146   C148    1.396   .     A
C146   C154    1.402   .     A
C147   Br56    1.919   1_655 S
C149   H162    1.079   .     S
C149   C151    1.401   .     A
C150   H161    1.079   .     S
C150   C152    1.401   .     A
C151   C153    1.412   .     A
C151   C155    1.423   .     A
C152   C154    1.412   .     A
C152   C156    1.423   .     A
C153   C687    1.390   .     S
C154   C688    1.390   1_554 S
C155   C714    1.428   .     S
C156   C713    1.428   1_554 S
Cu157  O175    1.950   .     S
Cu157  N169    2.026   .     S
Cu157  O171    1.952   .     S
Cu157  O178    1.940   .     S
Cu157  O174    1.957   .     S
Cu158  N170    2.026   .     S
Cu158  O177    1.940   .     S
Cu158  O172    1.952   .     S
Cu158  O173    1.957   .     S
Cu158  O176    1.950   .     S
Cu158  Cu33    2.695   1_655 S
O173   C1      1.297   1_655 S
O176   C18     1.300   1_655 S
Br179  C24     1.919   1_655 S
C187   O233    1.292   .     A
C187   C322    1.442   1_455 S
C187   O359    1.297   1_455 S
C188   O234    1.292   .     A
C188   C259    1.442   .     S
C188   O298    1.297   .     S
C189   C191    1.391   .     A
C189   C218    1.426   .     A
C189   Br243   1.925   .     S
C190   C217    1.426   .     A
C190   Br244   1.925   .     S
C190   C192    1.391   .     A
C191   H221    1.085   .     S
C191   C773    1.390   1_554 S
C192   H222    1.085   .     S
C192   C774    1.390   .     S
C193   C198    1.398   .     A
C193   H227    1.082   .     S
C194   C197    1.398   .     A
C194   H228    1.082   .     S
C194   C382    1.387   .     S
C195   Br245   1.923   .     S
C195   C379    1.387   .     S
C195   C259    1.406   .     S
C196   Br246   1.923   .     S
C196   C322    1.406   1_455 S
C197   C312    1.442   1_455 S
C197   C319    1.406   1_455 S
C198   C249    1.442   .     S
C198   C258    1.406   .     S
C199   N232    1.380   .     A
C199   C201    1.417   .     A
C199   Cl247   1.753   .     S
C200   N231    1.380   .     A
C200   C202    1.417   .     A
C200   Cl248   1.753   .     S
C201   H229    1.082   .     S
C201   N231    1.360   .     A
C202   H230    1.082   .     S
C202   N232    1.360   .     A
C203   O239    1.301   .     A
C203   C205    1.469   .     S
C203   O299    1.300   .     S
C204   C206    1.469   .     S
C204   O240    1.301   .     A
C204   O362    1.300   1_455 S
C205   C211    1.397   .     A
C205   C209    1.410   .     A
C206   C212    1.397   .     A
C206   C210    1.411   .     A
C207   H225    1.084   .     S
C207   C209    1.396   .     A
C207   C215    1.402   .     A
C208   H226    1.084   .     S
C208   C210    1.396   .     A
C208   C216    1.402   .     A
C209   Br304   1.919   .     S
C210   Br365   1.919   1_455 S
C211   H224    1.079   .     S
C211   C213    1.401   .     A
C212   H223    1.079   .     S
C212   C214    1.401   .     A
C213   C215    1.412   .     A
C213   C217    1.423   .     A
C214   C216    1.412   .     A
C214   C218    1.423   .     A
C215   C749    1.390   .     S
C216   C750    1.390   1_554 S
C217   C776    1.428   .     S
C218   C775    1.428   1_554 S
Cu219  O237    1.950   .     S
Cu219  N231    2.026   .     S
Cu219  O233    1.952   .     S
Cu219  O240    1.940   .     S
Cu219  O236    1.957   .     S
Cu219  Cu344   2.695   1_455 S
Cu220  N232    2.026   .     S
Cu220  O239    1.940   .     S
Cu220  O234    1.952   .     S
Cu220  O235    1.957   .     S
Cu220  O238    1.950   .     S
Cu220  Cu281   2.695   .     S
O235   C249    1.297   .     S
O236   C312    1.297   1_455 S
O237   C327    1.300   1_455 S
O238   C266    1.300   .     S
Br241  C272    1.919   .     S
Br242  C333    1.919   1_455 S
C249   O295    1.292   .     A
C250   O296    1.292   .     A
C250   C321    1.442   .     S
C250   O360    1.297   .     S
C251   C253    1.391   .     A
C251   C280    1.426   .     A
C251   Br305   1.925   .     S
C252   C279    1.426   .     A
C252   Br306   1.925   .     S
C252   C254    1.391   .     A
C253   H283    1.085   .     S
C253   C835    1.390   1_554 S
C254   H284    1.085   .     S
C254   C836    1.390   .     S
C255   C260    1.398   .     A
C255   H289    1.082   .     S
C256   C259    1.398   .     A
C256   H290    1.082   .     S
C256   C444    1.387   .     S
C257   Br307   1.923   .     S
C257   C441    1.387   .     S
C257   C321    1.406   .     S
C258   Br308   1.923   .     S
C260   C311    1.442   .     S
C260   C320    1.406   .     S
C261   N294    1.380   .     A
C261   C263    1.417   .     A
C261   Cl309   1.753   .     S
C262   N293    1.380   .     A
C262   C264    1.417   .     A
C262   Cl310   1.753   .     S
C263   H291    1.082   .     S
C263   N293    1.360   .     A
C264   H292    1.082   .     S
C264   N294    1.360   .     A
C265   O301    1.301   .     A
C265   C267    1.469   .     S
C265   O361    1.300   .     S
C266   C268    1.469   .     S
C266   O302    1.301   .     A
C267   C273    1.397   .     A
C267   C271    1.410   .     A
C268   C274    1.397   .     A
C268   C272    1.411   .     A
C269   H287    1.084   .     S
C269   C271    1.396   .     A
C269   C277    1.402   .     A
C270   H288    1.084   .     S
C270   C272    1.396   .     A
C270   C278    1.402   .     A
C271   Br366   1.919   .     S
C273   H286    1.079   .     S
C273   C275    1.401   .     A
C274   H285    1.079   .     S
C274   C276    1.401   .     A
C275   C277    1.412   .     A
C275   C279    1.423   .     A
C276   C278    1.412   .     A
C276   C280    1.423   .     A
C277   C811    1.390   .     S
C278   C812    1.390   1_554 S
C279   C838    1.428   .     S
C280   C837    1.428   1_554 S
Cu281  O299    1.950   .     S
Cu281  N293    2.026   .     S
Cu281  O295    1.952   .     S
Cu281  O302    1.940   .     S
Cu281  O298    1.957   .     S
Cu282  N294    2.026   .     S
Cu282  O301    1.940   .     S
Cu282  O296    1.952   .     S
Cu282  O297    1.957   .     S
Cu282  O300    1.950   .     S
Cu282  Cu343   2.695   .     S
O297   C311    1.297   .     S
O300   C328    1.300   .     S
Br303  C334    1.919   .     S
C311   O357    1.292   .     A
C312   O358    1.292   .     A
C312   C197    1.442   1_655 S
C312   O236    1.297   1_655 S
C313   C315    1.391   .     A
C313   C342    1.426   .     A
C313   Br367   1.925   .     S
C314   C341    1.426   .     A
C314   Br368   1.925   .     S
C314   C316    1.391   .     A
C315   H345    1.085   .     S
C315   C897    1.390   1_554 S
C316   H346    1.085   .     S
C316   C898    1.390   .     S
C317   C322    1.398   .     A
C317   H351    1.082   .     S
C318   C321    1.398   .     A
C318   H352    1.082   .     S
C318   C506    1.387   .     S
C319   Br369   1.923   .     S
C319   C503    1.387   .     S
C319   C197    1.406   1_655 S
C320   Br370   1.923   .     S
C322   C187    1.442   1_655 S
C322   C196    1.406   1_655 S
C323   N356    1.380   .     A
C323   C325    1.417   .     A
C323   Cl371   1.753   .     S
C324   N355    1.380   .     A
C324   C326    1.417   .     A
C324   Cl372   1.753   .     S
C325   H353    1.082   .     S
C325   N355    1.360   .     A
C326   H354    1.082   .     S
C326   N356    1.360   .     A
C327   O363    1.301   .     A
C327   C329    1.469   .     S
C327   O237    1.300   1_655 S
C328   C330    1.469   .     S
C328   O364    1.301   .     A
C329   C335    1.397   .     A
C329   C333    1.410   .     A
C330   C336    1.397   .     A
C330   C334    1.411   .     A
C331   H349    1.084   .     S
C331   C333    1.396   .     A
C331   C339    1.402   .     A
C332   H350    1.084   .     S
C332   C334    1.396   .     A
C332   C340    1.402   .     A
C333   Br242   1.919   1_655 S
C335   H348    1.079   .     S
C335   C337    1.401   .     A
C336   H347    1.079   .     S
C336   C338    1.401   .     A
C337   C339    1.412   .     A
C337   C341    1.423   .     A
C338   C340    1.412   .     A
C338   C342    1.423   .     A
C339   C873    1.390   .     S
C340   C874    1.390   1_554 S
C341   C900    1.428   .     S
C342   C899    1.428   1_554 S
Cu343  O361    1.950   .     S
Cu343  N355    2.026   .     S
Cu343  O357    1.952   .     S
Cu343  O364    1.940   .     S
Cu343  O360    1.957   .     S
Cu344  N356    2.026   .     S
Cu344  O363    1.940   .     S
Cu344  O358    1.952   .     S
Cu344  O359    1.957   .     S
Cu344  O362    1.950   .     S
Cu344  Cu219   2.695   1_655 S
O359   C187    1.297   1_655 S
O362   C204    1.300   1_655 S
Br365  C210    1.919   1_655 S
C373   O419    1.292   .     A
C373   C508    1.442   1_455 S
C373   O545    1.297   1_455 S
C374   O420    1.292   .     A
C374   C445    1.442   .     S
C374   O484    1.297   .     S
C375   C377    1.391   .     A
C375   C404    1.426   .     A
C375   Br429   1.925   .     S
C376   C403    1.426   .     A
C376   Br430   1.925   .     S
C376   C378    1.391   .     A
C377   H407    1.085   .     S
C377   C959    1.390   1_554 S
C378   H408    1.085   .     S
C378   C960    1.390   .     S
C379   C384    1.398   .     A
C379   H413    1.082   .     S
C380   C383    1.398   .     A
C380   H414    1.082   .     S
C380   C10     1.387   1_565 S
C381   Br431   1.923   .     S
C381   C7      1.387   1_565 S
C381   C445    1.406   .     S
C382   Br432   1.923   .     S
C382   C508    1.406   1_455 S
C383   C498    1.442   1_455 S
C383   C505    1.406   1_455 S
C384   C435    1.442   .     S
C384   C444    1.406   .     S
C385   N418    1.380   .     A
C385   C387    1.417   .     A
C385   Cl433   1.753   .     S
C386   N417    1.380   .     A
C386   C388    1.417   .     A
C386   Cl434   1.753   .     S
C387   H415    1.082   .     S
C387   N417    1.360   .     A
C388   H416    1.082   .     S
C388   N418    1.360   .     A
C389   O425    1.301   .     A
C389   C391    1.469   .     S
C389   O485    1.300   .     S
C390   C392    1.469   .     S
C390   O426    1.301   .     A
C390   O548    1.300   1_455 S
C391   C397    1.397   .     A
C391   C395    1.410   .     A
C392   C398    1.397   .     A
C392   C396    1.411   .     A
C393   H411    1.084   .     S
C393   C395    1.396   .     A
C393   C401    1.402   .     A
C394   H412    1.084   .     S
C394   C396    1.396   .     A
C394   C402    1.402   .     A
C395   Br490   1.919   .     S
C396   Br551   1.919   1_455 S
C397   H410    1.079   .     S
C397   C399    1.401   .     A
C398   H409    1.079   .     S
C398   C400    1.401   .     A
C399   C401    1.412   .     A
C399   C403    1.423   .     A
C400   C402    1.412   .     A
C400   C404    1.423   .     A
C401   C935    1.390   .     S
C402   C936    1.390   1_554 S
C403   C962    1.428   .     S
C404   C961    1.428   1_554 S
Cu405  O423    1.950   .     S
Cu405  N417    2.026   .     S
Cu405  O419    1.952   .     S
Cu405  O426    1.940   .     S
Cu405  O422    1.957   .     S
Cu405  Cu530   2.695   1_455 S
Cu406  N418    2.026   .     S
Cu406  O425    1.940   .     S
Cu406  O420    1.952   .     S
Cu406  O421    1.957   .     S
Cu406  O424    1.950   .     S
Cu406  Cu467   2.695   .     S
O421   C435    1.297   .     S
O422   C498    1.297   1_455 S
O423   C513    1.300   1_455 S
O424   C452    1.300   .     S
Br427  C458    1.919   .     S
Br428  C519    1.919   1_455 S
C435   O481    1.292   .     A
C436   O482    1.292   .     A
C436   C507    1.442   .     S
C436   O546    1.297   .     S
C437   C439    1.391   .     A
C437   C466    1.426   .     A
C437   Br491   1.925   .     S
C438   C465    1.426   .     A
C438   Br492   1.925   .     S
C438   C440    1.391   .     A
C439   H469    1.085   .     S
C439   C1021   1.390   1_554 S
C440   H470    1.085   .     S
C440   C1022   1.390   .     S
C441   C446    1.398   .     A
C441   H475    1.082   .     S
C442   C445    1.398   .     A
C442   H476    1.082   .     S
C442   C72     1.387   1_565 S
C443   Br493   1.923   .     S
C443   C69     1.387   1_565 S
C443   C507    1.406   .     S
C444   Br494   1.923   .     S
C446   C497    1.442   .     S
C446   C506    1.406   .     S
C447   N480    1.380   .     A
C447   C449    1.417   .     A
C447   Cl495   1.753   .     S
C448   N479    1.380   .     A
C448   C450    1.417   .     A
C448   Cl496   1.753   .     S
C449   H477    1.082   .     S
C449   N479    1.360   .     A
C450   H478    1.082   .     S
C450   N480    1.360   .     A
C451   O487    1.301   .     A
C451   C453    1.469   .     S
C451   O547    1.300   .     S
C452   C454    1.469   .     S
C452   O488    1.301   .     A
C453   C459    1.397   .     A
C453   C457    1.410   .     A
C454   C460    1.397   .     A
C454   C458    1.411   .     A
C455   H473    1.084   .     S
C455   C457    1.396   .     A
C455   C463    1.402   .     A
C456   H474    1.084   .     S
C456   C458    1.396   .     A
C456   C464    1.402   .     A
C457   Br552   1.919   .     S
C459   H472    1.079   .     S
C459   C461    1.401   .     A
C460   H471    1.079   .     S
C460   C462    1.401   .     A
C461   C463    1.412   .     A
C461   C465    1.423   .     A
C462   C464    1.412   .     A
C462   C466    1.423   .     A
C463   C997    1.390   .     S
C464   C998    1.390   1_554 S
C465   C1024   1.428   .     S
C466   C1023   1.428   1_554 S
Cu467  O485    1.950   .     S
Cu467  N479    2.026   .     S
Cu467  O481    1.952   .     S
Cu467  O488    1.940   .     S
Cu467  O484    1.957   .     S
Cu468  N480    2.026   .     S
Cu468  O487    1.940   .     S
Cu468  O482    1.952   .     S
Cu468  O483    1.957   .     S
Cu468  O486    1.950   .     S
Cu468  Cu529   2.695   .     S
O483   C497    1.297   .     S
O486   C514    1.300   .     S
Br489  C520    1.919   .     S
C497   O543    1.292   .     A
C498   O544    1.292   .     A
C498   C383    1.442   1_655 S
C498   O422    1.297   1_655 S
C499   C501    1.391   .     A
C499   C528    1.426   .     A
C499   Br553   1.925   .     S
C500   C527    1.426   .     A
C500   Br554   1.925   .     S
C500   C502    1.391   .     A
C501   H531    1.085   .     S
C501   C1083   1.390   1_554 S
C502   H532    1.085   .     S
C502   C1084   1.390   .     S
C503   C508    1.398   .     A
C503   H537    1.082   .     S
C504   C507    1.398   .     A
C504   H538    1.082   .     S
C504   C134    1.387   1_565 S
C505   Br555   1.923   .     S
C505   C131    1.387   1_565 S
C505   C383    1.406   1_655 S
C506   Br556   1.923   .     S
C508   C373    1.442   1_655 S
C508   C382    1.406   1_655 S
C509   N542    1.380   .     A
C509   C511    1.417   .     A
C509   Cl557   1.753   .     S
C510   N541    1.380   .     A
C510   C512    1.417   .     A
C510   Cl558   1.753   .     S
C511   H539    1.082   .     S
C511   N541    1.360   .     A
C512   H540    1.082   .     S
C512   N542    1.360   .     A
C513   O549    1.301   .     A
C513   C515    1.469   .     S
C513   O423    1.300   1_655 S
C514   C516    1.469   .     S
C514   O550    1.301   .     A
C515   C521    1.397   .     A
C515   C519    1.410   .     A
C516   C522    1.397   .     A
C516   C520    1.411   .     A
C517   H535    1.084   .     S
C517   C519    1.396   .     A
C517   C525    1.402   .     A
C518   H536    1.084   .     S
C518   C520    1.396   .     A
C518   C526    1.402   .     A
C519   Br428   1.919   1_655 S
C521   H534    1.079   .     S
C521   C523    1.401   .     A
C522   H533    1.079   .     S
C522   C524    1.401   .     A
C523   C525    1.412   .     A
C523   C527    1.423   .     A
C524   C526    1.412   .     A
C524   C528    1.423   .     A
C525   C1059   1.390   .     S
C526   C1060   1.390   1_554 S
C527   C1086   1.428   .     S
C528   C1085   1.428   1_554 S
Cu529  O547    1.950   .     S
Cu529  N541    2.026   .     S
Cu529  O543    1.952   .     S
Cu529  O550    1.940   .     S
Cu529  O546    1.957   .     S
Cu530  N542    2.026   .     S
Cu530  O549    1.940   .     S
Cu530  O544    1.952   .     S
Cu530  O545    1.957   .     S
Cu530  O548    1.950   .     S
Cu530  Cu405   2.695   1_655 S
O545   C373    1.297   1_655 S
O548   C390    1.300   1_655 S
Br551  C396    1.919   1_655 S
C559   O605    1.292   .     A
C559   C694    1.442   1_455 S
C559   O731    1.297   1_455 S
C560   O606    1.292   .     A
C560   C631    1.442   .     S
C560   O670    1.297   .     S
C561   C563    1.391   .     A
C561   C590    1.426   .     A
C561   Br615   1.925   .     S
C562   C589    1.426   .     A
C562   Br616   1.925   .     S
C562   C564    1.391   .     A
C563   H593    1.085   .     S
C564   H594    1.085   .     S
C564   C30     1.390   1_556 S
C565   C570    1.398   .     A
C565   H599    1.082   .     S
C565   C939    1.387   1_545 S
C566   C569    1.398   .     A
C566   H600    1.082   .     S
C566   C754    1.387   .     S
C567   Br617   1.923   .     S
C567   C751    1.387   .     S
C567   C631    1.406   .     S
C568   Br618   1.923   .     S
C568   C938    1.387   1_545 S
C568   C694    1.406   1_455 S
C569   C684    1.442   1_455 S
C569   C691    1.406   1_455 S
C570   C621    1.442   .     S
C570   C630    1.406   .     S
C571   N604    1.380   .     A
C571   C573    1.417   .     A
C571   Cl619   1.753   .     S
C572   N603    1.380   .     A
C572   C574    1.417   .     A
C572   Cl620   1.753   .     S
C573   H601    1.082   .     S
C573   N603    1.360   .     A
C574   H602    1.082   .     S
C574   N604    1.360   .     A
C575   O611    1.301   .     A
C575   C577    1.469   .     S
C575   O671    1.300   .     S
C576   C578    1.469   .     S
C576   O612    1.301   .     A
C576   O734    1.300   1_455 S
C577   C583    1.397   .     A
C577   C581    1.410   .     A
C578   C584    1.397   .     A
C578   C582    1.411   .     A
C579   H597    1.084   .     S
C579   C581    1.396   .     A
C579   C587    1.402   .     A
C580   H598    1.084   .     S
C580   C582    1.396   .     A
C580   C588    1.402   .     A
C581   Br676   1.919   .     S
C582   Br737   1.919   1_455 S
C583   H596    1.079   .     S
C583   C585    1.401   .     A
C584   H595    1.079   .     S
C584   C586    1.401   .     A
C585   C587    1.412   .     A
C585   C589    1.423   .     A
C586   C588    1.412   .     A
C586   C590    1.423   .     A
C587   C5      1.390   1_556 S
C589   C32     1.428   1_556 S
Cu591  O609    1.950   .     S
Cu591  N603    2.026   .     S
Cu591  O605    1.952   .     S
Cu591  O612    1.940   .     S
Cu591  O608    1.957   .     S
Cu591  Cu716   2.695   1_455 S
Cu592  N604    2.026   .     S
Cu592  O611    1.940   .     S
Cu592  O606    1.952   .     S
Cu592  O607    1.957   .     S
Cu592  O610    1.950   .     S
Cu592  Cu653   2.695   .     S
O607   C621    1.297   .     S
O608   C684    1.297   1_455 S
O609   C699    1.300   1_455 S
O610   C638    1.300   .     S
Br613  C644    1.919   .     S
Br614  C705    1.919   1_455 S
C621   O667    1.292   .     A
C622   O668    1.292   .     A
C622   C693    1.442   .     S
C622   O732    1.297   .     S
C623   C625    1.391   .     A
C623   C652    1.426   .     A
C623   Br677   1.925   .     S
C624   C651    1.426   .     A
C624   Br678   1.925   .     S
C624   C626    1.391   .     A
C625   H655    1.085   .     S
C626   H656    1.085   .     S
C626   C92     1.390   1_556 S
C627   C632    1.398   .     A
C627   H661    1.082   .     S
C627   C1001   1.387   1_545 S
C628   C631    1.398   .     A
C628   H662    1.082   .     S
C628   C816    1.387   .     S
C629   Br679   1.923   .     S
C629   C813    1.387   .     S
C629   C693    1.406   .     S
C630   Br680   1.923   .     S
C630   C1000   1.387   1_545 S
C632   C683    1.442   .     S
C632   C692    1.406   .     S
C633   N666    1.380   .     A
C633   C635    1.417   .     A
C633   Cl681   1.753   .     S
C634   N665    1.380   .     A
C634   C636    1.417   .     A
C634   Cl682   1.753   .     S
C635   H663    1.082   .     S
C635   N665    1.360   .     A
C636   H664    1.082   .     S
C636   N666    1.360   .     A
C637   O673    1.301   .     A
C637   C639    1.469   .     S
C637   O733    1.300   .     S
C638   C640    1.469   .     S
C638   O674    1.301   .     A
C639   C645    1.397   .     A
C639   C643    1.410   .     A
C640   C646    1.397   .     A
C640   C644    1.411   .     A
C641   H659    1.084   .     S
C641   C643    1.396   .     A
C641   C649    1.402   .     A
C642   H660    1.084   .     S
C642   C644    1.396   .     A
C642   C650    1.402   .     A
C643   Br738   1.919   .     S
C645   H658    1.079   .     S
C645   C647    1.401   .     A
C646   H657    1.079   .     S
C646   C648    1.401   .     A
C647   C649    1.412   .     A
C647   C651    1.423   .     A
C648   C650    1.412   .     A
C648   C652    1.423   .     A
C649   C67     1.390   1_556 S
C651   C94     1.428   1_556 S
Cu653  O671    1.950   .     S
Cu653  N665    2.026   .     S
Cu653  O667    1.952   .     S
Cu653  O674    1.940   .     S
Cu653  O670    1.957   .     S
Cu654  N666    2.026   .     S
Cu654  O673    1.940   .     S
Cu654  O668    1.952   .     S
Cu654  O669    1.957   .     S
Cu654  O672    1.950   .     S
Cu654  Cu715   2.695   .     S
O669   C683    1.297   .     S
O672   C700    1.300   .     S
Br675  C706    1.919   .     S
C683   O729    1.292   .     A
C684   O730    1.292   .     A
C684   C569    1.442   1_655 S
C684   O608    1.297   1_655 S
C685   C687    1.391   .     A
C685   C714    1.426   .     A
C685   Br739   1.925   .     S
C686   C713    1.426   .     A
C686   Br740   1.925   .     S
C686   C688    1.391   .     A
C687   H717    1.085   .     S
C688   H718    1.085   .     S
C688   C154    1.390   1_556 S
C689   C694    1.398   .     A
C689   H723    1.082   .     S
C689   C1063   1.387   1_545 S
C690   C693    1.398   .     A
C690   H724    1.082   .     S
C690   C878    1.387   .     S
C691   Br741   1.923   .     S
C691   C875    1.387   .     S
C691   C569    1.406   1_655 S
C692   Br742   1.923   .     S
C692   C1062   1.387   1_545 S
C694   C559    1.442   1_655 S
C694   C568    1.406   1_655 S
C695   N728    1.380   .     A
C695   C697    1.417   .     A
C695   Cl743   1.753   .     S
C696   N727    1.380   .     A
C696   C698    1.417   .     A
C696   Cl744   1.753   .     S
C697   H725    1.082   .     S
C697   N727    1.360   .     A
C698   H726    1.082   .     S
C698   N728    1.360   .     A
C699   O735    1.301   .     A
C699   C701    1.469   .     S
C699   O609    1.300   1_655 S
C700   C702    1.469   .     S
C700   O736    1.301   .     A
C701   C707    1.397   .     A
C701   C705    1.410   .     A
C702   C708    1.397   .     A
C702   C706    1.411   .     A
C703   H721    1.084   .     S
C703   C705    1.396   .     A
C703   C711    1.402   .     A
C704   H722    1.084   .     S
C704   C706    1.396   .     A
C704   C712    1.402   .     A
C705   Br614   1.919   1_655 S
C707   H720    1.079   .     S
C707   C709    1.401   .     A
C708   H719    1.079   .     S
C708   C710    1.401   .     A
C709   C711    1.412   .     A
C709   C713    1.423   .     A
C710   C712    1.412   .     A
C710   C714    1.423   .     A
C711   C129    1.390   1_556 S
C713   C156    1.428   1_556 S
Cu715  O733    1.950   .     S
Cu715  N727    2.026   .     S
Cu715  O729    1.952   .     S
Cu715  O736    1.940   .     S
Cu715  O732    1.957   .     S
Cu716  N728    2.026   .     S
Cu716  O735    1.940   .     S
Cu716  O730    1.952   .     S
Cu716  O731    1.957   .     S
Cu716  O734    1.950   .     S
Cu716  Cu591   2.695   1_655 S
O731   C559    1.297   1_655 S
O734   C576    1.300   1_655 S
Br737  C582    1.919   1_655 S
C745   O791    1.292   .     A
C745   C880    1.442   1_455 S
C745   O917    1.297   1_455 S
C746   O792    1.292   .     A
C746   C817    1.442   .     S
C746   O856    1.297   .     S
C747   C749    1.391   .     A
C747   C776    1.426   .     A
C747   Br801   1.925   .     S
C748   C775    1.426   .     A
C748   Br802   1.925   .     S
C748   C750    1.391   .     A
C749   H779    1.085   .     S
C750   H780    1.085   .     S
C750   C216    1.390   1_556 S
C751   C756    1.398   .     A
C751   H785    1.082   .     S
C752   C755    1.398   .     A
C752   H786    1.082   .     S
C752   C940    1.387   .     S
C753   Br803   1.923   .     S
C753   C937    1.387   .     S
C753   C817    1.406   .     S
C754   Br804   1.923   .     S
C754   C880    1.406   1_455 S
C755   C870    1.442   1_455 S
C755   C877    1.406   1_455 S
C756   C807    1.442   .     S
C756   C816    1.406   .     S
C757   N790    1.380   .     A
C757   C759    1.417   .     A
C757   Cl805   1.753   .     S
C758   N789    1.380   .     A
C758   C760    1.417   .     A
C758   Cl806   1.753   .     S
C759   H787    1.082   .     S
C759   N789    1.360   .     A
C760   H788    1.082   .     S
C760   N790    1.360   .     A
C761   O797    1.301   .     A
C761   C763    1.469   .     S
C761   O857    1.300   .     S
C762   C764    1.469   .     S
C762   O798    1.301   .     A
C762   O920    1.300   1_455 S
C763   C769    1.397   .     A
C763   C767    1.410   .     A
C764   C770    1.397   .     A
C764   C768    1.411   .     A
C765   H783    1.084   .     S
C765   C767    1.396   .     A
C765   C773    1.402   .     A
C766   H784    1.084   .     S
C766   C768    1.396   .     A
C766   C774    1.402   .     A
C767   Br862   1.919   .     S
C768   Br923   1.919   1_455 S
C769   H782    1.079   .     S
C769   C771    1.401   .     A
C770   H781    1.079   .     S
C770   C772    1.401   .     A
C771   C773    1.412   .     A
C771   C775    1.423   .     A
C772   C774    1.412   .     A
C772   C776    1.423   .     A
C773   C191    1.390   1_556 S
C775   C218    1.428   1_556 S
Cu777  O795    1.950   .     S
Cu777  N789    2.026   .     S
Cu777  O791    1.952   .     S
Cu777  O798    1.940   .     S
Cu777  O794    1.957   .     S
Cu777  Cu902   2.695   1_455 S
Cu778  N790    2.026   .     S
Cu778  O797    1.940   .     S
Cu778  O792    1.952   .     S
Cu778  O793    1.957   .     S
Cu778  O796    1.950   .     S
Cu778  Cu839   2.695   .     S
O793   C807    1.297   .     S
O794   C870    1.297   1_455 S
O795   C885    1.300   1_455 S
O796   C824    1.300   .     S
Br799  C830    1.919   .     S
Br800  C891    1.919   1_455 S
C807   O853    1.292   .     A
C808   O854    1.292   .     A
C808   C879    1.442   .     S
C808   O918    1.297   .     S
C809   C811    1.391   .     A
C809   C838    1.426   .     A
C809   Br863   1.925   .     S
C810   C837    1.426   .     A
C810   Br864   1.925   .     S
C810   C812    1.391   .     A
C811   H841    1.085   .     S
C812   H842    1.085   .     S
C812   C278    1.390   1_556 S
C813   C818    1.398   .     A
C813   H847    1.082   .     S
C814   C817    1.398   .     A
C814   H848    1.082   .     S
C814   C1002   1.387   .     S
C815   Br865   1.923   .     S
C815   C999    1.387   .     S
C815   C879    1.406   .     S
C816   Br866   1.923   .     S
C818   C869    1.442   .     S
C818   C878    1.406   .     S
C819   N852    1.380   .     A
C819   C821    1.417   .     A
C819   Cl867   1.753   .     S
C820   N851    1.380   .     A
C820   C822    1.417   .     A
C820   Cl868   1.753   .     S
C821   H849    1.082   .     S
C821   N851    1.360   .     A
C822   H850    1.082   .     S
C822   N852    1.360   .     A
C823   O859    1.301   .     A
C823   C825    1.469   .     S
C823   O919    1.300   .     S
C824   C826    1.469   .     S
C824   O860    1.301   .     A
C825   C831    1.397   .     A
C825   C829    1.410   .     A
C826   C832    1.397   .     A
C826   C830    1.411   .     A
C827   H845    1.084   .     S
C827   C829    1.396   .     A
C827   C835    1.402   .     A
C828   H846    1.084   .     S
C828   C830    1.396   .     A
C828   C836    1.402   .     A
C829   Br924   1.919   .     S
C831   H844    1.079   .     S
C831   C833    1.401   .     A
C832   H843    1.079   .     S
C832   C834    1.401   .     A
C833   C835    1.412   .     A
C833   C837    1.423   .     A
C834   C836    1.412   .     A
C834   C838    1.423   .     A
C835   C253    1.390   1_556 S
C837   C280    1.428   1_556 S
Cu839  O857    1.950   .     S
Cu839  N851    2.026   .     S
Cu839  O853    1.952   .     S
Cu839  O860    1.940   .     S
Cu839  O856    1.957   .     S
Cu840  N852    2.026   .     S
Cu840  O859    1.940   .     S
Cu840  O854    1.952   .     S
Cu840  O855    1.957   .     S
Cu840  O858    1.950   .     S
Cu840  Cu901   2.695   .     S
O855   C869    1.297   .     S
O858   C886    1.300   .     S
Br861  C892    1.919   .     S
C869   O915    1.292   .     A
C870   O916    1.292   .     A
C870   C755    1.442   1_655 S
C870   O794    1.297   1_655 S
C871   C873    1.391   .     A
C871   C900    1.426   .     A
C871   Br925   1.925   .     S
C872   C899    1.426   .     A
C872   Br926   1.925   .     S
C872   C874    1.391   .     A
C873   H903    1.085   .     S
C874   H904    1.085   .     S
C874   C340    1.390   1_556 S
C875   C880    1.398   .     A
C875   H909    1.082   .     S
C876   C879    1.398   .     A
C876   H910    1.082   .     S
C876   C1064   1.387   .     S
C877   Br927   1.923   .     S
C877   C1061   1.387   .     S
C877   C755    1.406   1_655 S
C878   Br928   1.923   .     S
C880   C745    1.442   1_655 S
C880   C754    1.406   1_655 S
C881   N914    1.380   .     A
C881   C883    1.417   .     A
C881   Cl929   1.753   .     S
C882   N913    1.380   .     A
C882   C884    1.417   .     A
C882   Cl930   1.753   .     S
C883   H911    1.082   .     S
C883   N913    1.360   .     A
C884   H912    1.082   .     S
C884   N914    1.360   .     A
C885   O921    1.301   .     A
C885   C887    1.469   .     S
C885   O795    1.300   1_655 S
C886   C888    1.469   .     S
C886   O922    1.301   .     A
C887   C893    1.397   .     A
C887   C891    1.410   .     A
C888   C894    1.397   .     A
C888   C892    1.411   .     A
C889   H907    1.084   .     S
C889   C891    1.396   .     A
C889   C897    1.402   .     A
C890   H908    1.084   .     S
C890   C892    1.396   .     A
C890   C898    1.402   .     A
C891   Br800   1.919   1_655 S
C893   H906    1.079   .     S
C893   C895    1.401   .     A
C894   H905    1.079   .     S
C894   C896    1.401   .     A
C895   C897    1.412   .     A
C895   C899    1.423   .     A
C896   C898    1.412   .     A
C896   C900    1.423   .     A
C897   C315    1.390   1_556 S
C899   C342    1.428   1_556 S
Cu901  O919    1.950   .     S
Cu901  N913    2.026   .     S
Cu901  O915    1.952   .     S
Cu901  O922    1.940   .     S
Cu901  O918    1.957   .     S
Cu902  N914    2.026   .     S
Cu902  O921    1.940   .     S
Cu902  O916    1.952   .     S
Cu902  O917    1.957   .     S
Cu902  O920    1.950   .     S
Cu902  Cu777   2.695   1_655 S
O917   C745    1.297   1_655 S
O920   C762    1.300   1_655 S
Br923  C768    1.919   1_655 S
C931   O977    1.292   .     A
C931   C1066   1.442   1_455 S
C931   O1103   1.297   1_455 S
C932   O978    1.292   .     A
C932   C1003   1.442   .     S
C932   O1042   1.297   .     S
C933   C935    1.391   .     A
C933   C962    1.426   .     A
C933   Br987   1.925   .     S
C934   C961    1.426   .     A
C934   Br988   1.925   .     S
C934   C936    1.391   .     A
C935   H965    1.085   .     S
C936   H966    1.085   .     S
C936   C402    1.390   1_556 S
C937   C942    1.398   .     A
C937   H971    1.082   .     S
C938   C941    1.398   .     A
C938   H972    1.082   .     S
C938   C568    1.387   1_565 S
C939   Br989   1.923   .     S
C939   C565    1.387   1_565 S
C939   C1003   1.406   .     S
C940   Br990   1.923   .     S
C940   C1066   1.406   1_455 S
C941   C1056   1.442   1_455 S
C941   C1063   1.406   1_455 S
C942   C993    1.442   .     S
C942   C1002   1.406   .     S
C943   N976    1.380   .     A
C943   C945    1.417   .     A
C943   Cl991   1.753   .     S
C944   N975    1.380   .     A
C944   C946    1.417   .     A
C944   Cl992   1.753   .     S
C945   H973    1.082   .     S
C945   N975    1.360   .     A
C946   H974    1.082   .     S
C946   N976    1.360   .     A
C947   O983    1.301   .     A
C947   C949    1.469   .     S
C947   O1043   1.300   .     S
C948   C950    1.469   .     S
C948   O984    1.301   .     A
C948   O1106   1.300   1_455 S
C949   C955    1.397   .     A
C949   C953    1.410   .     A
C950   C956    1.397   .     A
C950   C954    1.411   .     A
C951   H969    1.084   .     S
C951   C953    1.396   .     A
C951   C959    1.402   .     A
C952   H970    1.084   .     S
C952   C954    1.396   .     A
C952   C960    1.402   .     A
C953   Br1048  1.919   .     S
C954   Br1109  1.919   1_455 S
C955   H968    1.079   .     S
C955   C957    1.401   .     A
C956   H967    1.079   .     S
C956   C958    1.401   .     A
C957   C959    1.412   .     A
C957   C961    1.423   .     A
C958   C960    1.412   .     A
C958   C962    1.423   .     A
C959   C377    1.390   1_556 S
C961   C404    1.428   1_556 S
Cu963  O981    1.950   .     S
Cu963  N975    2.026   .     S
Cu963  O977    1.952   .     S
Cu963  O984    1.940   .     S
Cu963  O980    1.957   .     S
Cu963  Cu1088  2.695   1_455 S
Cu964  N976    2.026   .     S
Cu964  O983    1.940   .     S
Cu964  O978    1.952   .     S
Cu964  O979    1.957   .     S
Cu964  O982    1.950   .     S
Cu964  Cu1025  2.695   .     S
O979   C993    1.297   .     S
O980   C1056   1.297   1_455 S
O981   C1071   1.300   1_455 S
O982   C1010   1.300   .     S
Br985  C1016   1.919   .     S
Br986  C1077   1.919   1_455 S
C993   O1039   1.292   .     A
C994   O1040   1.292   .     A
C994   C1065   1.442   .     S
C994   O1104   1.297   .     S
C995   C997    1.391   .     A
C995   C1024   1.426   .     A
C995   Br1049  1.925   .     S
C996   C1023   1.426   .     A
C996   Br1050  1.925   .     S
C996   C998    1.391   .     A
C997   H1027   1.085   .     S
C998   H1028   1.085   .     S
C998   C464    1.390   1_556 S
C999   C1004   1.398   .     A
C999   H1033   1.082   .     S
C1000  C1003   1.398   .     A
C1000  H1034   1.082   .     S
C1000  C630    1.387   1_565 S
C1001  Br1051  1.923   .     S
C1001  C627    1.387   1_565 S
C1001  C1065   1.406   .     S
C1002  Br1052  1.923   .     S
C1004  C1055   1.442   .     S
C1004  C1064   1.406   .     S
C1005  N1038   1.380   .     A
C1005  C1007   1.417   .     A
C1005  Cl1053  1.753   .     S
C1006  N1037   1.380   .     A
C1006  C1008   1.417   .     A
C1006  Cl1054  1.753   .     S
C1007  H1035   1.082   .     S
C1007  N1037   1.360   .     A
C1008  H1036   1.082   .     S
C1008  N1038   1.360   .     A
C1009  O1045   1.301   .     A
C1009  C1011   1.469   .     S
C1009  O1105   1.300   .     S
C1010  C1012   1.469   .     S
C1010  O1046   1.301   .     A
C1011  C1017   1.397   .     A
C1011  C1015   1.410   .     A
C1012  C1018   1.397   .     A
C1012  C1016   1.411   .     A
C1013  H1031   1.084   .     S
C1013  C1015   1.396   .     A
C1013  C1021   1.402   .     A
C1014  H1032   1.084   .     S
C1014  C1016   1.396   .     A
C1014  C1022   1.402   .     A
C1015  Br1110  1.919   .     S
C1017  H1030   1.079   .     S
C1017  C1019   1.401   .     A
C1018  H1029   1.079   .     S
C1018  C1020   1.401   .     A
C1019  C1021   1.412   .     A
C1019  C1023   1.423   .     A
C1020  C1022   1.412   .     A
C1020  C1024   1.423   .     A
C1021  C439    1.390   1_556 S
C1023  C466    1.428   1_556 S
Cu1025 O1043   1.950   .     S
Cu1025 N1037   2.026   .     S
Cu1025 O1039   1.952   .     S
Cu1025 O1046   1.940   .     S
Cu1025 O1042   1.957   .     S
Cu1026 N1038   2.026   .     S
Cu1026 O1045   1.940   .     S
Cu1026 O1040   1.952   .     S
Cu1026 O1041   1.957   .     S
Cu1026 O1044   1.950   .     S
Cu1026 Cu1087  2.695   .     S
O1041  C1055   1.297   .     S
O1044  C1072   1.300   .     S
Br1047 C1078   1.919   .     S
C1055  O1101   1.292   .     A
C1056  O1102   1.292   .     A
C1056  C941    1.442   1_655 S
C1056  O980    1.297   1_655 S
C1057  C1059   1.391   .     A
C1057  C1086   1.426   .     A
C1057  Br1111  1.925   .     S
C1058  C1085   1.426   .     A
C1058  Br1112  1.925   .     S
C1058  C1060   1.391   .     A
C1059  H1089   1.085   .     S
C1060  H1090   1.085   .     S
C1060  C526    1.390   1_556 S
C1061  C1066   1.398   .     A
C1061  H1095   1.082   .     S
C1062  C1065   1.398   .     A
C1062  H1096   1.082   .     S
C1062  C692    1.387   1_565 S
C1063  Br1113  1.923   .     S
C1063  C689    1.387   1_565 S
C1063  C941    1.406   1_655 S
C1064  Br1114  1.923   .     S
C1066  C931    1.442   1_655 S
C1066  C940    1.406   1_655 S
C1067  N1100   1.380   .     A
C1067  C1069   1.417   .     A
C1067  Cl1115  1.753   .     S
C1068  N1099   1.380   .     A
C1068  C1070   1.417   .     A
C1068  Cl1116  1.753   .     S
C1069  H1097   1.082   .     S
C1069  N1099   1.360   .     A
C1070  H1098   1.082   .     S
C1070  N1100   1.360   .     A
C1071  O1107   1.301   .     A
C1071  C1073   1.469   .     S
C1071  O981    1.300   1_655 S
C1072  C1074   1.469   .     S
C1072  O1108   1.301   .     A
C1073  C1079   1.397   .     A
C1073  C1077   1.410   .     A
C1074  C1080   1.397   .     A
C1074  C1078   1.411   .     A
C1075  H1093   1.084   .     S
C1075  C1077   1.396   .     A
C1075  C1083   1.402   .     A
C1076  H1094   1.084   .     S
C1076  C1078   1.396   .     A
C1076  C1084   1.402   .     A
C1077  Br986   1.919   1_655 S
C1079  H1092   1.079   .     S
C1079  C1081   1.401   .     A
C1080  H1091   1.079   .     S
C1080  C1082   1.401   .     A
C1081  C1083   1.412   .     A
C1081  C1085   1.423   .     A
C1082  C1084   1.412   .     A
C1082  C1086   1.423   .     A
C1083  C501    1.390   1_556 S
C1085  C528    1.428   1_556 S
Cu1087 O1105   1.950   .     S
Cu1087 N1099   2.026   .     S
Cu1087 O1101   1.952   .     S
Cu1087 O1108   1.940   .     S
Cu1087 O1104   1.957   .     S
Cu1088 N1100   2.026   .     S
Cu1088 O1107   1.940   .     S
Cu1088 O1102   1.952   .     S
Cu1088 O1103   1.957   .     S
Cu1088 O1106   1.950   .     S
Cu1088 Cu963   2.695   1_655 S
O1103  C931    1.297   1_655 S
O1106  C948    1.300   1_655 S
Br1109 C954    1.919   1_655 S
