data_str_m2_o1_o18_pcu_sym.75
_audit_creation_date              2020-01-03
_audit_creation_method            'Materials Studio'
_symmetry_space_group_name_H-M    'P1'
_symmetry_Int_Tables_number       1
_symmetry_cell_setting            triclinic
loop_
_symmetry_equiv_pos_as_xyz
  x,y,z
_cell_length_a                    28.5797
_cell_length_b                    32.3903
_cell_length_c                    30.8231
_cell_angle_alpha                 89.8690
_cell_angle_beta                  73.7901
_cell_angle_gamma                 89.8975
loop_
_atom_site_label
_atom_site_type_symbol
_atom_site_fract_x
_atom_site_fract_y
_atom_site_fract_z
_atom_site_U_iso_or_equiv
_atom_site_adp_type
_atom_site_occupancy
C1     C     0.00050   0.08747   0.24850   0.00000  Uiso   1.00
C2     C     0.04006   0.02038   0.21969   0.00000  Uiso   1.00
C3     C     0.33265   0.29053   0.25203   0.00000  Uiso   1.00
C4     C     0.00077   0.04283   0.24763   0.00000  Uiso   1.00
C5     C     0.18389   0.13866   0.27526   0.00000  Uiso   1.00
C6     C     0.14935   0.19488   0.22505   0.00000  Uiso   1.00
C7     C     0.13431   0.13868   0.27525   0.00000  Uiso   1.00
C8     C     0.19893   0.19488   0.22507   0.00000  Uiso   1.00
C9     C     0.30583   0.16669   0.33633   0.00000  Uiso   1.00
C10    C     0.02755   0.16770   0.16371   0.00000  Uiso   1.00
C11    C     0.29093   0.16868   0.38596   0.00000  Uiso   1.00
C12    C     0.33289   0.24588   0.25134   0.00000  Uiso   1.00
C13    C     0.04330   0.17585   0.11484   0.00000  Uiso   1.00
C14    C     0.31039   0.16460   0.45734   0.00000  Uiso   1.00
C15    C     0.03022   0.20904   0.04878   0.00000  Uiso   1.00
C16    C     0.32502   0.16275   0.41039   0.00000  Uiso   1.00
C17    C     0.01212   0.19508   0.09314   0.00000  Uiso   1.00
C18    C     0.24241   0.17768   0.40908   0.00000  Uiso   1.00
C19    C     0.09237   0.17030   0.09142   0.00000  Uiso   1.00
C20    C     0.22798   0.18395   0.45613   0.00000  Uiso   1.00
C21    C     0.11251   0.18865   0.04891   0.00000  Uiso   1.00
C22    C     0.26198   0.17432   0.48036   0.00000  Uiso   1.00
C23    C     0.19937   0.18302   0.05133   0.00000  Uiso   1.00
C24    C     0.08011   0.20570   0.02641   0.00000  Uiso   1.00
C25    C     0.17978   0.19642   0.48003   0.00000  Uiso   1.00
C26    C     0.16361   0.18891   0.02746   0.00000  Uiso   1.00
C27    C     0.18961   0.19163   0.10034   0.00000  Uiso   1.00
C28    C     0.16502   0.24084   0.41651   0.00000  Uiso   1.00
C29    C     0.25224   0.29266   0.31361   0.00000  Uiso   1.00
C30    C     0.08086   0.04079   0.18565   0.00000  Uiso   1.00
C31    C     0.14736   0.21687   0.45909   0.00000  Uiso   1.00
C32    C     0.24767   0.17498   0.02730   0.00000  Uiso   1.00
C33    C     0.09793   0.22057   0.48249   0.00000  Uiso   1.00
C34    C     0.29445   0.02256   0.27682   0.00000  Uiso   1.00
C35    C     0.03895   0.31079   0.22276   0.00000  Uiso   1.00
C36    C     0.29329   0.31300   0.27982   0.00000  Uiso   1.00
Cu37   Cu    0.04689   0.16667   0.25000   0.00000  Uiso   1.00
Cu38   Cu    0.28645   0.16666   0.25000   0.00000  Uiso   1.00
H39    H     0.27456   0.16939   0.04539   0.00000  Uiso   1.00
H40    H     0.06832   0.29280   0.20111   0.00000  Uiso   1.00
H41    H     0.19647   0.11624   0.29554   0.00000  Uiso   1.00
H42    H     0.13670   0.21746   0.20498   0.00000  Uiso   1.00
H43    H     0.10957   0.11628   0.29553   0.00000  Uiso   1.00
H44    H     0.22361   0.21740   0.20494   0.00000  Uiso   1.00
H45    H     0.16001   0.21203   0.11725   0.00000  Uiso   1.00
H46    H     0.20256   0.25118   0.40543   0.00000  Uiso   1.00
H47    H     0.25458   0.26055   0.32278   0.00000  Uiso   1.00
H48    H     0.07848   0.07297   0.17674   0.00000  Uiso   1.00
H49    H     0.07315   0.23595   0.46669   0.00000  Uiso   1.00
H50    H     0.11457   0.15181   0.10719   0.00000  Uiso   1.00
H51    H     0.21591   0.17882   0.39007   0.00000  Uiso   1.00
H52    H     0.30754   0.20041   0.11081   0.00000  Uiso   1.00
H53    H     0.02939   0.15568   0.39333   0.00000  Uiso   1.00
H54    H     0.00362   0.15836   0.47567   0.00000  Uiso   1.00
H55    H     0.00551   0.22365   0.03240   0.00000  Uiso   1.00
H56    H     0.26506   0.04055   0.29846   0.00000  Uiso   1.00
N57    N     0.11736   0.16668   0.24999   0.00000  Uiso   1.00
N58    N     0.21597   0.16666   0.25001   0.00000  Uiso   1.00
O59    O     0.03958   0.10655   0.25000   0.00000  Uiso   1.00
O60    O     0.13773   0.24982   0.39369   0.00000  Uiso   1.00
O61    O     0.21524   0.31181   0.33216   0.00000  Uiso   1.00
O62    O     0.11767   0.02164   0.16653   0.00000  Uiso   1.00
O63    O     0.29375   0.22678   0.25000   0.00000  Uiso   1.00
O64    O     0.29372   0.10654   0.25001   0.00000  Uiso   1.00
O65    O     0.03961   0.22679   0.24999   0.00000  Uiso   1.00
O66    O     0.01852   0.16668   0.31491   0.00000  Uiso   1.00
O67    O     0.31481   0.16666   0.18509   0.00000  Uiso   1.00
O68    O     0.27267   0.16667   0.31492   0.00000  Uiso   1.00
O69    O     0.06067   0.16667   0.18508   0.00000  Uiso   1.00
O70    O     0.21470   0.17619   0.12230   0.00000  Uiso   1.00
C71    C     0.33383   0.08747   0.24850   0.00000  Uiso   1.00
C72    C     0.37339   0.02038   0.21969   0.00000  Uiso   1.00
C73    C     0.66598   0.29053   0.25203   0.00000  Uiso   1.00
C74    C     0.33410   0.04283   0.24763   0.00000  Uiso   1.00
C75    C     0.51723   0.13866   0.27526   0.00000  Uiso   1.00
C76    C     0.48268   0.19488   0.22505   0.00000  Uiso   1.00
C77    C     0.46764   0.13868   0.27525   0.00000  Uiso   1.00
C78    C     0.53226   0.19488   0.22507   0.00000  Uiso   1.00
C79    C     0.63916   0.16669   0.33633   0.00000  Uiso   1.00
C80    C     0.36089   0.16770   0.16371   0.00000  Uiso   1.00
C81    C     0.62426   0.16868   0.38596   0.00000  Uiso   1.00
C82    C     0.66622   0.24588   0.25134   0.00000  Uiso   1.00
C83    C     0.37663   0.17585   0.11484   0.00000  Uiso   1.00
C84    C     0.64372   0.16460   0.45734   0.00000  Uiso   1.00
C85    C     0.36355   0.20904   0.04878   0.00000  Uiso   1.00
C86    C     0.65835   0.16275   0.41039   0.00000  Uiso   1.00
C87    C     0.34545   0.19508   0.09314   0.00000  Uiso   1.00
C88    C     0.57574   0.17768   0.40908   0.00000  Uiso   1.00
C89    C     0.42570   0.17030   0.09142   0.00000  Uiso   1.00
C90    C     0.56132   0.18395   0.45613   0.00000  Uiso   1.00
C91    C     0.44584   0.18865   0.04891   0.00000  Uiso   1.00
C92    C     0.59531   0.17432   0.48036   0.00000  Uiso   1.00
C93    C     0.53270   0.18302   0.05133   0.00000  Uiso   1.00
C94    C     0.41344   0.20570   0.02641   0.00000  Uiso   1.00
C95    C     0.51312   0.19642   0.48003   0.00000  Uiso   1.00
C96    C     0.49694   0.18891   0.02746   0.00000  Uiso   1.00
C97    C     0.52294   0.19163   0.10034   0.00000  Uiso   1.00
C98    C     0.49835   0.24084   0.41651   0.00000  Uiso   1.00
C99    C     0.58557   0.29266   0.31361   0.00000  Uiso   1.00
C100   C     0.41419   0.04079   0.18565   0.00000  Uiso   1.00
C101   C     0.48069   0.21687   0.45909   0.00000  Uiso   1.00
C102   C     0.58100   0.17498   0.02730   0.00000  Uiso   1.00
C103   C     0.43126   0.22057   0.48249   0.00000  Uiso   1.00
C104   C     0.62778   0.02256   0.27682   0.00000  Uiso   1.00
C105   C     0.37228   0.31079   0.22276   0.00000  Uiso   1.00
C106   C     0.62662   0.31300   0.27982   0.00000  Uiso   1.00
Cu107  Cu    0.38022   0.16667   0.25000   0.00000  Uiso   1.00
Cu108  Cu    0.61978   0.16666   0.25000   0.00000  Uiso   1.00
H109   H     0.60790   0.16939   0.04539   0.00000  Uiso   1.00
H110   H     0.40165   0.29280   0.20111   0.00000  Uiso   1.00
H111   H     0.52980   0.11624   0.29554   0.00000  Uiso   1.00
H112   H     0.47004   0.21746   0.20498   0.00000  Uiso   1.00
H113   H     0.44290   0.11628   0.29553   0.00000  Uiso   1.00
H114   H     0.55695   0.21740   0.20494   0.00000  Uiso   1.00
H115   H     0.49335   0.21203   0.11725   0.00000  Uiso   1.00
H116   H     0.53589   0.25118   0.40543   0.00000  Uiso   1.00
H117   H     0.58791   0.26055   0.32278   0.00000  Uiso   1.00
H118   H     0.41182   0.07297   0.17674   0.00000  Uiso   1.00
H119   H     0.40648   0.23595   0.46669   0.00000  Uiso   1.00
H120   H     0.44790   0.15181   0.10719   0.00000  Uiso   1.00
H121   H     0.54924   0.17882   0.39007   0.00000  Uiso   1.00
H122   H     0.64087   0.20041   0.11081   0.00000  Uiso   1.00
H123   H     0.36272   0.15568   0.39333   0.00000  Uiso   1.00
H124   H     0.33695   0.15836   0.47567   0.00000  Uiso   1.00
H125   H     0.33884   0.22365   0.03240   0.00000  Uiso   1.00
H126   H     0.59840   0.04055   0.29846   0.00000  Uiso   1.00
N127   N     0.45069   0.16668   0.24999   0.00000  Uiso   1.00
N128   N     0.54931   0.16666   0.25001   0.00000  Uiso   1.00
O129   O     0.37291   0.10655   0.25000   0.00000  Uiso   1.00
O130   O     0.47106   0.24982   0.39369   0.00000  Uiso   1.00
O131   O     0.54857   0.31181   0.33216   0.00000  Uiso   1.00
O132   O     0.45100   0.02164   0.16653   0.00000  Uiso   1.00
O133   O     0.62709   0.22678   0.25000   0.00000  Uiso   1.00
O134   O     0.62706   0.10654   0.25001   0.00000  Uiso   1.00
O135   O     0.37294   0.22679   0.24999   0.00000  Uiso   1.00
O136   O     0.35186   0.16668   0.31491   0.00000  Uiso   1.00
O137   O     0.64814   0.16666   0.18509   0.00000  Uiso   1.00
O138   O     0.60600   0.16667   0.31492   0.00000  Uiso   1.00
O139   O     0.39400   0.16667   0.18508   0.00000  Uiso   1.00
O140   O     0.54803   0.17619   0.12230   0.00000  Uiso   1.00
C141   C     0.66716   0.08747   0.24850   0.00000  Uiso   1.00
C142   C     0.70672   0.02038   0.21969   0.00000  Uiso   1.00
C143   C     0.99931   0.29053   0.25203   0.00000  Uiso   1.00
C144   C     0.66743   0.04283   0.24763   0.00000  Uiso   1.00
C145   C     0.85056   0.13866   0.27526   0.00000  Uiso   1.00
C146   C     0.81601   0.19488   0.22505   0.00000  Uiso   1.00
C147   C     0.80097   0.13868   0.27525   0.00000  Uiso   1.00
C148   C     0.86560   0.19488   0.22507   0.00000  Uiso   1.00
C149   C     0.97250   0.16669   0.33633   0.00000  Uiso   1.00
C150   C     0.69422   0.16770   0.16371   0.00000  Uiso   1.00
C151   C     0.95759   0.16868   0.38596   0.00000  Uiso   1.00
C152   C     0.99955   0.24588   0.25134   0.00000  Uiso   1.00
C153   C     0.70996   0.17585   0.11484   0.00000  Uiso   1.00
C154   C     0.97705   0.16460   0.45734   0.00000  Uiso   1.00
C155   C     0.69689   0.20904   0.04878   0.00000  Uiso   1.00
C156   C     0.99169   0.16275   0.41039   0.00000  Uiso   1.00
C157   C     0.67878   0.19508   0.09314   0.00000  Uiso   1.00
C158   C     0.90908   0.17768   0.40908   0.00000  Uiso   1.00
C159   C     0.75904   0.17030   0.09142   0.00000  Uiso   1.00
C160   C     0.89465   0.18395   0.45613   0.00000  Uiso   1.00
C161   C     0.77918   0.18865   0.04891   0.00000  Uiso   1.00
C162   C     0.92865   0.17432   0.48036   0.00000  Uiso   1.00
C163   C     0.86604   0.18302   0.05133   0.00000  Uiso   1.00
C164   C     0.74678   0.20570   0.02641   0.00000  Uiso   1.00
C165   C     0.84645   0.19642   0.48003   0.00000  Uiso   1.00
C166   C     0.83027   0.18891   0.02746   0.00000  Uiso   1.00
C167   C     0.85627   0.19163   0.10034   0.00000  Uiso   1.00
C168   C     0.83168   0.24084   0.41651   0.00000  Uiso   1.00
C169   C     0.91891   0.29266   0.31361   0.00000  Uiso   1.00
C170   C     0.74753   0.04079   0.18565   0.00000  Uiso   1.00
C171   C     0.81403   0.21687   0.45909   0.00000  Uiso   1.00
C172   C     0.91434   0.17498   0.02730   0.00000  Uiso   1.00
C173   C     0.76460   0.22057   0.48249   0.00000  Uiso   1.00
C174   C     0.96112   0.02256   0.27682   0.00000  Uiso   1.00
C175   C     0.70561   0.31079   0.22276   0.00000  Uiso   1.00
C176   C     0.95995   0.31300   0.27982   0.00000  Uiso   1.00
Cu177  Cu    0.71355   0.16667   0.25000   0.00000  Uiso   1.00
Cu178  Cu    0.95311   0.16666   0.25000   0.00000  Uiso   1.00
H179   H     0.94123   0.16939   0.04539   0.00000  Uiso   1.00
H180   H     0.73498   0.29280   0.20111   0.00000  Uiso   1.00
H181   H     0.86314   0.11624   0.29554   0.00000  Uiso   1.00
H182   H     0.80337   0.21746   0.20498   0.00000  Uiso   1.00
H183   H     0.77624   0.11628   0.29553   0.00000  Uiso   1.00
H184   H     0.89028   0.21740   0.20494   0.00000  Uiso   1.00
H185   H     0.82668   0.21203   0.11725   0.00000  Uiso   1.00
H186   H     0.86922   0.25118   0.40543   0.00000  Uiso   1.00
H187   H     0.92124   0.26055   0.32278   0.00000  Uiso   1.00
H188   H     0.74515   0.07297   0.17674   0.00000  Uiso   1.00
H189   H     0.73982   0.23595   0.46669   0.00000  Uiso   1.00
H190   H     0.78123   0.15181   0.10719   0.00000  Uiso   1.00
H191   H     0.88258   0.17882   0.39007   0.00000  Uiso   1.00
H192   H     0.97420   0.20041   0.11081   0.00000  Uiso   1.00
H193   H     0.69605   0.15568   0.39333   0.00000  Uiso   1.00
H194   H     0.67028   0.15836   0.47567   0.00000  Uiso   1.00
H195   H     0.67218   0.22365   0.03240   0.00000  Uiso   1.00
H196   H     0.93173   0.04055   0.29846   0.00000  Uiso   1.00
N197   N     0.78403   0.16668   0.24999   0.00000  Uiso   1.00
N198   N     0.88264   0.16666   0.25001   0.00000  Uiso   1.00
O199   O     0.70625   0.10655   0.25000   0.00000  Uiso   1.00
O200   O     0.80439   0.24982   0.39369   0.00000  Uiso   1.00
O201   O     0.88190   0.31181   0.33216   0.00000  Uiso   1.00
O202   O     0.78433   0.02164   0.16653   0.00000  Uiso   1.00
O203   O     0.96042   0.22678   0.25000   0.00000  Uiso   1.00
O204   O     0.96039   0.10654   0.25001   0.00000  Uiso   1.00
O205   O     0.70628   0.22679   0.24999   0.00000  Uiso   1.00
O206   O     0.68519   0.16668   0.31491   0.00000  Uiso   1.00
O207   O     0.98148   0.16666   0.18509   0.00000  Uiso   1.00
O208   O     0.93933   0.16667   0.31492   0.00000  Uiso   1.00
O209   O     0.72733   0.16667   0.18508   0.00000  Uiso   1.00
O210   O     0.88137   0.17619   0.12230   0.00000  Uiso   1.00
C211   C     0.00050   0.42080   0.24850   0.00000  Uiso   1.00
C212   C     0.04006   0.35371   0.21969   0.00000  Uiso   1.00
C213   C     0.33265   0.62386   0.25203   0.00000  Uiso   1.00
C214   C     0.00077   0.37616   0.24763   0.00000  Uiso   1.00
C215   C     0.18389   0.47200   0.27526   0.00000  Uiso   1.00
C216   C     0.14935   0.52822   0.22505   0.00000  Uiso   1.00
C217   C     0.13431   0.47201   0.27525   0.00000  Uiso   1.00
C218   C     0.19893   0.52821   0.22507   0.00000  Uiso   1.00
C219   C     0.30583   0.50002   0.33633   0.00000  Uiso   1.00
C220   C     0.02755   0.50104   0.16371   0.00000  Uiso   1.00
C221   C     0.29093   0.50201   0.38596   0.00000  Uiso   1.00
C222   C     0.33289   0.57921   0.25134   0.00000  Uiso   1.00
C223   C     0.04330   0.50918   0.11484   0.00000  Uiso   1.00
C224   C     0.31039   0.49793   0.45734   0.00000  Uiso   1.00
C225   C     0.03022   0.54237   0.04878   0.00000  Uiso   1.00
C226   C     0.32502   0.49608   0.41039   0.00000  Uiso   1.00
C227   C     0.01212   0.52842   0.09314   0.00000  Uiso   1.00
C228   C     0.24241   0.51101   0.40908   0.00000  Uiso   1.00
C229   C     0.09237   0.50363   0.09142   0.00000  Uiso   1.00
C230   C     0.22798   0.51728   0.45613   0.00000  Uiso   1.00
C231   C     0.11251   0.52198   0.04891   0.00000  Uiso   1.00
C232   C     0.26198   0.50766   0.48036   0.00000  Uiso   1.00
C233   C     0.19937   0.51635   0.05133   0.00000  Uiso   1.00
C234   C     0.08011   0.53903   0.02641   0.00000  Uiso   1.00
C235   C     0.17978   0.52975   0.48003   0.00000  Uiso   1.00
C236   C     0.16361   0.52224   0.02746   0.00000  Uiso   1.00
C237   C     0.18961   0.52496   0.10034   0.00000  Uiso   1.00
C238   C     0.16502   0.57418   0.41651   0.00000  Uiso   1.00
C239   C     0.25224   0.62599   0.31361   0.00000  Uiso   1.00
C240   C     0.08086   0.37413   0.18565   0.00000  Uiso   1.00
C241   C     0.14736   0.55021   0.45909   0.00000  Uiso   1.00
C242   C     0.24767   0.50831   0.02730   0.00000  Uiso   1.00
C243   C     0.09793   0.55391   0.48249   0.00000  Uiso   1.00
C244   C     0.29445   0.35589   0.27682   0.00000  Uiso   1.00
C245   C     0.03895   0.64413   0.22276   0.00000  Uiso   1.00
C246   C     0.29329   0.64633   0.27982   0.00000  Uiso   1.00
Cu247  Cu    0.04689   0.50001   0.25000   0.00000  Uiso   1.00
Cu248  Cu    0.28645   0.49999   0.25000   0.00000  Uiso   1.00
H249   H     0.27456   0.50272   0.04539   0.00000  Uiso   1.00
H250   H     0.06832   0.62613   0.20111   0.00000  Uiso   1.00
H251   H     0.19647   0.44957   0.29554   0.00000  Uiso   1.00
H252   H     0.13670   0.55079   0.20498   0.00000  Uiso   1.00
H253   H     0.10957   0.44961   0.29553   0.00000  Uiso   1.00
H254   H     0.22361   0.55074   0.20494   0.00000  Uiso   1.00
H255   H     0.16001   0.54536   0.11725   0.00000  Uiso   1.00
H256   H     0.20256   0.58451   0.40543   0.00000  Uiso   1.00
H257   H     0.25458   0.59389   0.32278   0.00000  Uiso   1.00
H258   H     0.07848   0.40630   0.17674   0.00000  Uiso   1.00
H259   H     0.07315   0.56928   0.46669   0.00000  Uiso   1.00
H260   H     0.11457   0.48514   0.10719   0.00000  Uiso   1.00
H261   H     0.21591   0.51215   0.39007   0.00000  Uiso   1.00
H262   H     0.30754   0.53374   0.11081   0.00000  Uiso   1.00
H263   H     0.02939   0.48902   0.39333   0.00000  Uiso   1.00
H264   H     0.00362   0.49170   0.47567   0.00000  Uiso   1.00
H265   H     0.00551   0.55699   0.03240   0.00000  Uiso   1.00
H266   H     0.26506   0.37388   0.29846   0.00000  Uiso   1.00
N267   N     0.11736   0.50001   0.24999   0.00000  Uiso   1.00
N268   N     0.21597   0.49999   0.25001   0.00000  Uiso   1.00
O269   O     0.03958   0.43989   0.25000   0.00000  Uiso   1.00
O270   O     0.13773   0.58315   0.39369   0.00000  Uiso   1.00
O271   O     0.21524   0.64514   0.33216   0.00000  Uiso   1.00
O272   O     0.11767   0.35498   0.16653   0.00000  Uiso   1.00
O273   O     0.29375   0.56011   0.25000   0.00000  Uiso   1.00
O274   O     0.29372   0.43988   0.25001   0.00000  Uiso   1.00
O275   O     0.03961   0.56012   0.24999   0.00000  Uiso   1.00
O276   O     0.01852   0.50001   0.31491   0.00000  Uiso   1.00
O277   O     0.31481   0.49999   0.18509   0.00000  Uiso   1.00
O278   O     0.27267   0.50000   0.31492   0.00000  Uiso   1.00
O279   O     0.06067   0.50000   0.18508   0.00000  Uiso   1.00
O280   O     0.21470   0.50952   0.12230   0.00000  Uiso   1.00
C281   C     0.33383   0.42080   0.24850   0.00000  Uiso   1.00
C282   C     0.37339   0.35371   0.21969   0.00000  Uiso   1.00
C283   C     0.66598   0.62386   0.25203   0.00000  Uiso   1.00
C284   C     0.33410   0.37616   0.24763   0.00000  Uiso   1.00
C285   C     0.51723   0.47200   0.27526   0.00000  Uiso   1.00
C286   C     0.48268   0.52822   0.22505   0.00000  Uiso   1.00
C287   C     0.46764   0.47201   0.27525   0.00000  Uiso   1.00
C288   C     0.53226   0.52821   0.22507   0.00000  Uiso   1.00
C289   C     0.63916   0.50002   0.33633   0.00000  Uiso   1.00
C290   C     0.36089   0.50104   0.16371   0.00000  Uiso   1.00
C291   C     0.62426   0.50201   0.38596   0.00000  Uiso   1.00
C292   C     0.66622   0.57921   0.25134   0.00000  Uiso   1.00
C293   C     0.37663   0.50918   0.11484   0.00000  Uiso   1.00
C294   C     0.64372   0.49793   0.45734   0.00000  Uiso   1.00
C295   C     0.36355   0.54237   0.04878   0.00000  Uiso   1.00
C296   C     0.65835   0.49608   0.41039   0.00000  Uiso   1.00
C297   C     0.34545   0.52842   0.09314   0.00000  Uiso   1.00
C298   C     0.57574   0.51101   0.40908   0.00000  Uiso   1.00
C299   C     0.42570   0.50363   0.09142   0.00000  Uiso   1.00
C300   C     0.56132   0.51728   0.45613   0.00000  Uiso   1.00
C301   C     0.44584   0.52198   0.04891   0.00000  Uiso   1.00
C302   C     0.59531   0.50766   0.48036   0.00000  Uiso   1.00
C303   C     0.53270   0.51635   0.05133   0.00000  Uiso   1.00
C304   C     0.41344   0.53903   0.02641   0.00000  Uiso   1.00
C305   C     0.51312   0.52975   0.48003   0.00000  Uiso   1.00
C306   C     0.49694   0.52224   0.02746   0.00000  Uiso   1.00
C307   C     0.52294   0.52496   0.10034   0.00000  Uiso   1.00
C308   C     0.49835   0.57418   0.41651   0.00000  Uiso   1.00
C309   C     0.58557   0.62599   0.31361   0.00000  Uiso   1.00
C310   C     0.41419   0.37413   0.18565   0.00000  Uiso   1.00
C311   C     0.48069   0.55021   0.45909   0.00000  Uiso   1.00
C312   C     0.58100   0.50831   0.02730   0.00000  Uiso   1.00
C313   C     0.43126   0.55391   0.48249   0.00000  Uiso   1.00
C314   C     0.62778   0.35589   0.27682   0.00000  Uiso   1.00
C315   C     0.37228   0.64413   0.22276   0.00000  Uiso   1.00
C316   C     0.62662   0.64633   0.27982   0.00000  Uiso   1.00
Cu317  Cu    0.38022   0.50001   0.25000   0.00000  Uiso   1.00
Cu318  Cu    0.61978   0.49999   0.25000   0.00000  Uiso   1.00
H319   H     0.60790   0.50272   0.04539   0.00000  Uiso   1.00
H320   H     0.40165   0.62613   0.20111   0.00000  Uiso   1.00
H321   H     0.52980   0.44957   0.29554   0.00000  Uiso   1.00
H322   H     0.47004   0.55079   0.20498   0.00000  Uiso   1.00
H323   H     0.44290   0.44961   0.29553   0.00000  Uiso   1.00
H324   H     0.55695   0.55074   0.20494   0.00000  Uiso   1.00
H325   H     0.49335   0.54536   0.11725   0.00000  Uiso   1.00
H326   H     0.53589   0.58451   0.40543   0.00000  Uiso   1.00
H327   H     0.58791   0.59389   0.32278   0.00000  Uiso   1.00
H328   H     0.41182   0.40630   0.17674   0.00000  Uiso   1.00
H329   H     0.40648   0.56928   0.46669   0.00000  Uiso   1.00
H330   H     0.44790   0.48514   0.10719   0.00000  Uiso   1.00
H331   H     0.54924   0.51215   0.39007   0.00000  Uiso   1.00
H332   H     0.64087   0.53374   0.11081   0.00000  Uiso   1.00
H333   H     0.36272   0.48902   0.39333   0.00000  Uiso   1.00
H334   H     0.33695   0.49170   0.47567   0.00000  Uiso   1.00
H335   H     0.33884   0.55699   0.03240   0.00000  Uiso   1.00
H336   H     0.59840   0.37388   0.29846   0.00000  Uiso   1.00
N337   N     0.45069   0.50001   0.24999   0.00000  Uiso   1.00
N338   N     0.54931   0.49999   0.25001   0.00000  Uiso   1.00
O339   O     0.37291   0.43989   0.25000   0.00000  Uiso   1.00
O340   O     0.47106   0.58315   0.39369   0.00000  Uiso   1.00
O341   O     0.54857   0.64514   0.33216   0.00000  Uiso   1.00
O342   O     0.45100   0.35498   0.16653   0.00000  Uiso   1.00
O343   O     0.62709   0.56011   0.25000   0.00000  Uiso   1.00
O344   O     0.62706   0.43988   0.25001   0.00000  Uiso   1.00
O345   O     0.37294   0.56012   0.24999   0.00000  Uiso   1.00
O346   O     0.35186   0.50001   0.31491   0.00000  Uiso   1.00
O347   O     0.64814   0.49999   0.18509   0.00000  Uiso   1.00
O348   O     0.60600   0.50000   0.31492   0.00000  Uiso   1.00
O349   O     0.39400   0.50000   0.18508   0.00000  Uiso   1.00
O350   O     0.54803   0.50952   0.12230   0.00000  Uiso   1.00
C351   C     0.66716   0.42080   0.24850   0.00000  Uiso   1.00
C352   C     0.70672   0.35371   0.21969   0.00000  Uiso   1.00
C353   C     0.99931   0.62386   0.25203   0.00000  Uiso   1.00
C354   C     0.66743   0.37616   0.24763   0.00000  Uiso   1.00
C355   C     0.85056   0.47200   0.27526   0.00000  Uiso   1.00
C356   C     0.81601   0.52822   0.22505   0.00000  Uiso   1.00
C357   C     0.80097   0.47201   0.27525   0.00000  Uiso   1.00
C358   C     0.86560   0.52821   0.22507   0.00000  Uiso   1.00
C359   C     0.97250   0.50002   0.33633   0.00000  Uiso   1.00
C360   C     0.69422   0.50104   0.16371   0.00000  Uiso   1.00
C361   C     0.95759   0.50201   0.38596   0.00000  Uiso   1.00
C362   C     0.99955   0.57921   0.25134   0.00000  Uiso   1.00
C363   C     0.70996   0.50918   0.11484   0.00000  Uiso   1.00
C364   C     0.97705   0.49793   0.45734   0.00000  Uiso   1.00
C365   C     0.69689   0.54237   0.04878   0.00000  Uiso   1.00
C366   C     0.99169   0.49608   0.41039   0.00000  Uiso   1.00
C367   C     0.67878   0.52842   0.09314   0.00000  Uiso   1.00
C368   C     0.90908   0.51101   0.40908   0.00000  Uiso   1.00
C369   C     0.75904   0.50363   0.09142   0.00000  Uiso   1.00
C370   C     0.89465   0.51728   0.45613   0.00000  Uiso   1.00
C371   C     0.77918   0.52198   0.04891   0.00000  Uiso   1.00
C372   C     0.92865   0.50766   0.48036   0.00000  Uiso   1.00
C373   C     0.86604   0.51635   0.05133   0.00000  Uiso   1.00
C374   C     0.74678   0.53903   0.02641   0.00000  Uiso   1.00
C375   C     0.84645   0.52975   0.48003   0.00000  Uiso   1.00
C376   C     0.83027   0.52224   0.02746   0.00000  Uiso   1.00
C377   C     0.85627   0.52496   0.10034   0.00000  Uiso   1.00
C378   C     0.83168   0.57418   0.41651   0.00000  Uiso   1.00
C379   C     0.91891   0.62599   0.31361   0.00000  Uiso   1.00
C380   C     0.74753   0.37413   0.18565   0.00000  Uiso   1.00
C381   C     0.81403   0.55021   0.45909   0.00000  Uiso   1.00
C382   C     0.91434   0.50831   0.02730   0.00000  Uiso   1.00
C383   C     0.76460   0.55391   0.48249   0.00000  Uiso   1.00
C384   C     0.96112   0.35589   0.27682   0.00000  Uiso   1.00
C385   C     0.70561   0.64413   0.22276   0.00000  Uiso   1.00
C386   C     0.95995   0.64633   0.27982   0.00000  Uiso   1.00
Cu387  Cu    0.71355   0.50001   0.25000   0.00000  Uiso   1.00
Cu388  Cu    0.95311   0.49999   0.25000   0.00000  Uiso   1.00
H389   H     0.94123   0.50272   0.04539   0.00000  Uiso   1.00
H390   H     0.73498   0.62613   0.20111   0.00000  Uiso   1.00
H391   H     0.86314   0.44957   0.29554   0.00000  Uiso   1.00
H392   H     0.80337   0.55079   0.20498   0.00000  Uiso   1.00
H393   H     0.77624   0.44961   0.29553   0.00000  Uiso   1.00
H394   H     0.89028   0.55074   0.20494   0.00000  Uiso   1.00
H395   H     0.82668   0.54536   0.11725   0.00000  Uiso   1.00
H396   H     0.86922   0.58451   0.40543   0.00000  Uiso   1.00
H397   H     0.92124   0.59389   0.32278   0.00000  Uiso   1.00
H398   H     0.74515   0.40630   0.17674   0.00000  Uiso   1.00
H399   H     0.73982   0.56928   0.46669   0.00000  Uiso   1.00
H400   H     0.78123   0.48514   0.10719   0.00000  Uiso   1.00
H401   H     0.88258   0.51215   0.39007   0.00000  Uiso   1.00
H402   H     0.97420   0.53374   0.11081   0.00000  Uiso   1.00
H403   H     0.69605   0.48902   0.39333   0.00000  Uiso   1.00
H404   H     0.67028   0.49170   0.47567   0.00000  Uiso   1.00
H405   H     0.67218   0.55699   0.03240   0.00000  Uiso   1.00
H406   H     0.93173   0.37388   0.29846   0.00000  Uiso   1.00
N407   N     0.78403   0.50001   0.24999   0.00000  Uiso   1.00
N408   N     0.88264   0.49999   0.25001   0.00000  Uiso   1.00
O409   O     0.70625   0.43989   0.25000   0.00000  Uiso   1.00
O410   O     0.80439   0.58315   0.39369   0.00000  Uiso   1.00
O411   O     0.88190   0.64514   0.33216   0.00000  Uiso   1.00
O412   O     0.78433   0.35498   0.16653   0.00000  Uiso   1.00
O413   O     0.96042   0.56011   0.25000   0.00000  Uiso   1.00
O414   O     0.96039   0.43988   0.25001   0.00000  Uiso   1.00
O415   O     0.70628   0.56012   0.24999   0.00000  Uiso   1.00
O416   O     0.68519   0.50001   0.31491   0.00000  Uiso   1.00
O417   O     0.98148   0.49999   0.18509   0.00000  Uiso   1.00
O418   O     0.93933   0.50000   0.31492   0.00000  Uiso   1.00
O419   O     0.72733   0.50000   0.18508   0.00000  Uiso   1.00
O420   O     0.88137   0.50952   0.12230   0.00000  Uiso   1.00
C421   C     0.00050   0.75414   0.24850   0.00000  Uiso   1.00
C422   C     0.04006   0.68704   0.21969   0.00000  Uiso   1.00
C423   C     0.33265   0.95719   0.25203   0.00000  Uiso   1.00
C424   C     0.00077   0.70950   0.24763   0.00000  Uiso   1.00
C425   C     0.18389   0.80533   0.27526   0.00000  Uiso   1.00
C426   C     0.14935   0.86155   0.22505   0.00000  Uiso   1.00
C427   C     0.13431   0.80535   0.27525   0.00000  Uiso   1.00
C428   C     0.19893   0.86154   0.22507   0.00000  Uiso   1.00
C429   C     0.30583   0.83335   0.33633   0.00000  Uiso   1.00
C430   C     0.02755   0.83437   0.16371   0.00000  Uiso   1.00
C431   C     0.29093   0.83534   0.38596   0.00000  Uiso   1.00
C432   C     0.33289   0.91254   0.25134   0.00000  Uiso   1.00
C433   C     0.04330   0.84251   0.11484   0.00000  Uiso   1.00
C434   C     0.31039   0.83127   0.45734   0.00000  Uiso   1.00
C435   C     0.03022   0.87571   0.04878   0.00000  Uiso   1.00
C436   C     0.32502   0.82942   0.41039   0.00000  Uiso   1.00
C437   C     0.01212   0.86175   0.09314   0.00000  Uiso   1.00
C438   C     0.24241   0.84435   0.40908   0.00000  Uiso   1.00
C439   C     0.09237   0.83696   0.09142   0.00000  Uiso   1.00
C440   C     0.22798   0.85061   0.45613   0.00000  Uiso   1.00
C441   C     0.11251   0.85532   0.04891   0.00000  Uiso   1.00
C442   C     0.26198   0.84099   0.48036   0.00000  Uiso   1.00
C443   C     0.19937   0.84969   0.05133   0.00000  Uiso   1.00
C444   C     0.08011   0.87236   0.02641   0.00000  Uiso   1.00
C445   C     0.17978   0.86308   0.48003   0.00000  Uiso   1.00
C446   C     0.16361   0.85558   0.02746   0.00000  Uiso   1.00
C447   C     0.18961   0.85829   0.10034   0.00000  Uiso   1.00
C448   C     0.16502   0.90751   0.41651   0.00000  Uiso   1.00
C449   C     0.25224   0.95932   0.31361   0.00000  Uiso   1.00
C450   C     0.08086   0.70746   0.18565   0.00000  Uiso   1.00
C451   C     0.14736   0.88354   0.45909   0.00000  Uiso   1.00
C452   C     0.24767   0.84165   0.02730   0.00000  Uiso   1.00
C453   C     0.09793   0.88724   0.48249   0.00000  Uiso   1.00
C454   C     0.29445   0.68923   0.27682   0.00000  Uiso   1.00
C455   C     0.03895   0.97746   0.22276   0.00000  Uiso   1.00
C456   C     0.29329   0.97967   0.27982   0.00000  Uiso   1.00
Cu457  Cu    0.04689   0.83334   0.25000   0.00000  Uiso   1.00
Cu458  Cu    0.28645   0.83333   0.25000   0.00000  Uiso   1.00
H459   H     0.27456   0.83605   0.04539   0.00000  Uiso   1.00
H460   H     0.06832   0.95946   0.20111   0.00000  Uiso   1.00
H461   H     0.19647   0.78290   0.29554   0.00000  Uiso   1.00
H462   H     0.13670   0.88413   0.20498   0.00000  Uiso   1.00
H463   H     0.10957   0.78295   0.29553   0.00000  Uiso   1.00
H464   H     0.22361   0.88407   0.20494   0.00000  Uiso   1.00
H465   H     0.16001   0.87869   0.11725   0.00000  Uiso   1.00
H466   H     0.20256   0.91784   0.40543   0.00000  Uiso   1.00
H467   H     0.25458   0.92722   0.32278   0.00000  Uiso   1.00
H468   H     0.07848   0.73963   0.17674   0.00000  Uiso   1.00
H469   H     0.07315   0.90261   0.46669   0.00000  Uiso   1.00
H470   H     0.11457   0.81848   0.10719   0.00000  Uiso   1.00
H471   H     0.21591   0.84548   0.39007   0.00000  Uiso   1.00
H472   H     0.30754   0.86707   0.11081   0.00000  Uiso   1.00
H473   H     0.02939   0.82235   0.39333   0.00000  Uiso   1.00
H474   H     0.00362   0.82503   0.47567   0.00000  Uiso   1.00
H475   H     0.00551   0.89032   0.03240   0.00000  Uiso   1.00
H476   H     0.26506   0.70721   0.29846   0.00000  Uiso   1.00
N477   N     0.11736   0.83334   0.24999   0.00000  Uiso   1.00
N478   N     0.21597   0.83332   0.25001   0.00000  Uiso   1.00
O479   O     0.03958   0.77322   0.25000   0.00000  Uiso   1.00
O480   O     0.13773   0.91649   0.39369   0.00000  Uiso   1.00
O481   O     0.21524   0.97847   0.33216   0.00000  Uiso   1.00
O482   O     0.11767   0.68831   0.16653   0.00000  Uiso   1.00
O483   O     0.29375   0.89345   0.25000   0.00000  Uiso   1.00
O484   O     0.29372   0.77321   0.25001   0.00000  Uiso   1.00
O485   O     0.03961   0.89346   0.24999   0.00000  Uiso   1.00
O486   O     0.01852   0.83334   0.31491   0.00000  Uiso   1.00
O487   O     0.31481   0.83332   0.18509   0.00000  Uiso   1.00
O488   O     0.27267   0.83333   0.31492   0.00000  Uiso   1.00
O489   O     0.06067   0.83333   0.18508   0.00000  Uiso   1.00
O490   O     0.21470   0.84285   0.12230   0.00000  Uiso   1.00
C491   C     0.33383   0.75414   0.24850   0.00000  Uiso   1.00
C492   C     0.37339   0.68704   0.21969   0.00000  Uiso   1.00
C493   C     0.66598   0.95719   0.25203   0.00000  Uiso   1.00
C494   C     0.33410   0.70950   0.24763   0.00000  Uiso   1.00
C495   C     0.51723   0.80533   0.27526   0.00000  Uiso   1.00
C496   C     0.48268   0.86155   0.22505   0.00000  Uiso   1.00
C497   C     0.46764   0.80535   0.27525   0.00000  Uiso   1.00
C498   C     0.53226   0.86154   0.22507   0.00000  Uiso   1.00
C499   C     0.63916   0.83335   0.33633   0.00000  Uiso   1.00
C500   C     0.36089   0.83437   0.16371   0.00000  Uiso   1.00
C501   C     0.62426   0.83534   0.38596   0.00000  Uiso   1.00
C502   C     0.66622   0.91254   0.25134   0.00000  Uiso   1.00
C503   C     0.37663   0.84251   0.11484   0.00000  Uiso   1.00
C504   C     0.64372   0.83127   0.45734   0.00000  Uiso   1.00
C505   C     0.36355   0.87571   0.04878   0.00000  Uiso   1.00
C506   C     0.65835   0.82942   0.41039   0.00000  Uiso   1.00
C507   C     0.34545   0.86175   0.09314   0.00000  Uiso   1.00
C508   C     0.57574   0.84435   0.40908   0.00000  Uiso   1.00
C509   C     0.42570   0.83696   0.09142   0.00000  Uiso   1.00
C510   C     0.56132   0.85061   0.45613   0.00000  Uiso   1.00
C511   C     0.44584   0.85532   0.04891   0.00000  Uiso   1.00
C512   C     0.59531   0.84099   0.48036   0.00000  Uiso   1.00
C513   C     0.53270   0.84969   0.05133   0.00000  Uiso   1.00
C514   C     0.41344   0.87236   0.02641   0.00000  Uiso   1.00
C515   C     0.51312   0.86308   0.48003   0.00000  Uiso   1.00
C516   C     0.49694   0.85558   0.02746   0.00000  Uiso   1.00
C517   C     0.52294   0.85829   0.10034   0.00000  Uiso   1.00
C518   C     0.49835   0.90751   0.41651   0.00000  Uiso   1.00
C519   C     0.58557   0.95932   0.31361   0.00000  Uiso   1.00
C520   C     0.41419   0.70746   0.18565   0.00000  Uiso   1.00
C521   C     0.48069   0.88354   0.45909   0.00000  Uiso   1.00
C522   C     0.58100   0.84165   0.02730   0.00000  Uiso   1.00
C523   C     0.43126   0.88724   0.48249   0.00000  Uiso   1.00
C524   C     0.62778   0.68923   0.27682   0.00000  Uiso   1.00
C525   C     0.37228   0.97746   0.22276   0.00000  Uiso   1.00
C526   C     0.62662   0.97967   0.27982   0.00000  Uiso   1.00
Cu527  Cu    0.38022   0.83334   0.25000   0.00000  Uiso   1.00
Cu528  Cu    0.61978   0.83333   0.25000   0.00000  Uiso   1.00
H529   H     0.60790   0.83605   0.04539   0.00000  Uiso   1.00
H530   H     0.40165   0.95946   0.20111   0.00000  Uiso   1.00
H531   H     0.52980   0.78290   0.29554   0.00000  Uiso   1.00
H532   H     0.47004   0.88413   0.20498   0.00000  Uiso   1.00
H533   H     0.44290   0.78295   0.29553   0.00000  Uiso   1.00
H534   H     0.55695   0.88407   0.20494   0.00000  Uiso   1.00
H535   H     0.49335   0.87869   0.11725   0.00000  Uiso   1.00
H536   H     0.53589   0.91784   0.40543   0.00000  Uiso   1.00
H537   H     0.58791   0.92722   0.32278   0.00000  Uiso   1.00
H538   H     0.41182   0.73963   0.17674   0.00000  Uiso   1.00
H539   H     0.40648   0.90261   0.46669   0.00000  Uiso   1.00
H540   H     0.44790   0.81848   0.10719   0.00000  Uiso   1.00
H541   H     0.54924   0.84548   0.39007   0.00000  Uiso   1.00
H542   H     0.64087   0.86707   0.11081   0.00000  Uiso   1.00
H543   H     0.36272   0.82235   0.39333   0.00000  Uiso   1.00
H544   H     0.33695   0.82503   0.47567   0.00000  Uiso   1.00
H545   H     0.33884   0.89032   0.03240   0.00000  Uiso   1.00
H546   H     0.59840   0.70721   0.29846   0.00000  Uiso   1.00
N547   N     0.45069   0.83334   0.24999   0.00000  Uiso   1.00
N548   N     0.54931   0.83332   0.25001   0.00000  Uiso   1.00
O549   O     0.37291   0.77322   0.25000   0.00000  Uiso   1.00
O550   O     0.47106   0.91649   0.39369   0.00000  Uiso   1.00
O551   O     0.54857   0.97847   0.33216   0.00000  Uiso   1.00
O552   O     0.45100   0.68831   0.16653   0.00000  Uiso   1.00
O553   O     0.62709   0.89345   0.25000   0.00000  Uiso   1.00
O554   O     0.62706   0.77321   0.25001   0.00000  Uiso   1.00
O555   O     0.37294   0.89346   0.24999   0.00000  Uiso   1.00
O556   O     0.35186   0.83334   0.31491   0.00000  Uiso   1.00
O557   O     0.64814   0.83332   0.18509   0.00000  Uiso   1.00
O558   O     0.60600   0.83333   0.31492   0.00000  Uiso   1.00
O559   O     0.39400   0.83333   0.18508   0.00000  Uiso   1.00
O560   O     0.54803   0.84285   0.12230   0.00000  Uiso   1.00
C561   C     0.66716   0.75414   0.24850   0.00000  Uiso   1.00
C562   C     0.70672   0.68704   0.21969   0.00000  Uiso   1.00
C563   C     0.99931   0.95719   0.25203   0.00000  Uiso   1.00
C564   C     0.66743   0.70950   0.24763   0.00000  Uiso   1.00
C565   C     0.85056   0.80533   0.27526   0.00000  Uiso   1.00
C566   C     0.81601   0.86155   0.22505   0.00000  Uiso   1.00
C567   C     0.80097   0.80535   0.27525   0.00000  Uiso   1.00
C568   C     0.86560   0.86154   0.22507   0.00000  Uiso   1.00
C569   C     0.97250   0.83335   0.33633   0.00000  Uiso   1.00
C570   C     0.69422   0.83437   0.16371   0.00000  Uiso   1.00
C571   C     0.95759   0.83534   0.38596   0.00000  Uiso   1.00
C572   C     0.99955   0.91254   0.25134   0.00000  Uiso   1.00
C573   C     0.70996   0.84251   0.11484   0.00000  Uiso   1.00
C574   C     0.97705   0.83127   0.45734   0.00000  Uiso   1.00
C575   C     0.69689   0.87571   0.04878   0.00000  Uiso   1.00
C576   C     0.99169   0.82942   0.41039   0.00000  Uiso   1.00
C577   C     0.67878   0.86175   0.09314   0.00000  Uiso   1.00
C578   C     0.90908   0.84435   0.40908   0.00000  Uiso   1.00
C579   C     0.75904   0.83696   0.09142   0.00000  Uiso   1.00
C580   C     0.89465   0.85061   0.45613   0.00000  Uiso   1.00
C581   C     0.77918   0.85532   0.04891   0.00000  Uiso   1.00
C582   C     0.92865   0.84099   0.48036   0.00000  Uiso   1.00
C583   C     0.86604   0.84969   0.05133   0.00000  Uiso   1.00
C584   C     0.74678   0.87236   0.02641   0.00000  Uiso   1.00
C585   C     0.84645   0.86308   0.48003   0.00000  Uiso   1.00
C586   C     0.83027   0.85558   0.02746   0.00000  Uiso   1.00
C587   C     0.85627   0.85829   0.10034   0.00000  Uiso   1.00
C588   C     0.83168   0.90751   0.41651   0.00000  Uiso   1.00
C589   C     0.91891   0.95932   0.31361   0.00000  Uiso   1.00
C590   C     0.74753   0.70746   0.18565   0.00000  Uiso   1.00
C591   C     0.81403   0.88354   0.45909   0.00000  Uiso   1.00
C592   C     0.91434   0.84165   0.02730   0.00000  Uiso   1.00
C593   C     0.76460   0.88724   0.48249   0.00000  Uiso   1.00
C594   C     0.96112   0.68923   0.27682   0.00000  Uiso   1.00
C595   C     0.70561   0.97746   0.22276   0.00000  Uiso   1.00
C596   C     0.95995   0.97967   0.27982   0.00000  Uiso   1.00
Cu597  Cu    0.71355   0.83334   0.25000   0.00000  Uiso   1.00
Cu598  Cu    0.95311   0.83333   0.25000   0.00000  Uiso   1.00
H599   H     0.94123   0.83605   0.04539   0.00000  Uiso   1.00
H600   H     0.73498   0.95946   0.20111   0.00000  Uiso   1.00
H601   H     0.86314   0.78290   0.29554   0.00000  Uiso   1.00
H602   H     0.80337   0.88413   0.20498   0.00000  Uiso   1.00
H603   H     0.77624   0.78295   0.29553   0.00000  Uiso   1.00
H604   H     0.89028   0.88407   0.20494   0.00000  Uiso   1.00
H605   H     0.82668   0.87869   0.11725   0.00000  Uiso   1.00
H606   H     0.86922   0.91784   0.40543   0.00000  Uiso   1.00
H607   H     0.92124   0.92722   0.32278   0.00000  Uiso   1.00
H608   H     0.74515   0.73963   0.17674   0.00000  Uiso   1.00
H609   H     0.73982   0.90261   0.46669   0.00000  Uiso   1.00
H610   H     0.78123   0.81848   0.10719   0.00000  Uiso   1.00
H611   H     0.88258   0.84548   0.39007   0.00000  Uiso   1.00
H612   H     0.97420   0.86707   0.11081   0.00000  Uiso   1.00
H613   H     0.69605   0.82235   0.39333   0.00000  Uiso   1.00
H614   H     0.67028   0.82503   0.47567   0.00000  Uiso   1.00
H615   H     0.67218   0.89032   0.03240   0.00000  Uiso   1.00
H616   H     0.93173   0.70721   0.29846   0.00000  Uiso   1.00
N617   N     0.78403   0.83334   0.24999   0.00000  Uiso   1.00
N618   N     0.88264   0.83332   0.25001   0.00000  Uiso   1.00
O619   O     0.70625   0.77322   0.25000   0.00000  Uiso   1.00
O620   O     0.80439   0.91649   0.39369   0.00000  Uiso   1.00
O621   O     0.88190   0.97847   0.33216   0.00000  Uiso   1.00
O622   O     0.78433   0.68831   0.16653   0.00000  Uiso   1.00
O623   O     0.96042   0.89345   0.25000   0.00000  Uiso   1.00
O624   O     0.96039   0.77321   0.25001   0.00000  Uiso   1.00
O625   O     0.70628   0.89346   0.24999   0.00000  Uiso   1.00
O626   O     0.68519   0.83334   0.31491   0.00000  Uiso   1.00
O627   O     0.98148   0.83332   0.18509   0.00000  Uiso   1.00
O628   O     0.93933   0.83333   0.31492   0.00000  Uiso   1.00
O629   O     0.72733   0.83333   0.18508   0.00000  Uiso   1.00
O630   O     0.88137   0.84285   0.12230   0.00000  Uiso   1.00
C631   C     0.00050   0.08747   0.74850   0.00000  Uiso   1.00
C632   C     0.04006   0.02038   0.71969   0.00000  Uiso   1.00
C633   C     0.33265   0.29053   0.75203   0.00000  Uiso   1.00
C634   C     0.00077   0.04283   0.74763   0.00000  Uiso   1.00
C635   C     0.18389   0.13866   0.77526   0.00000  Uiso   1.00
C636   C     0.14935   0.19488   0.72505   0.00000  Uiso   1.00
C637   C     0.13431   0.13868   0.77525   0.00000  Uiso   1.00
C638   C     0.19893   0.19488   0.72507   0.00000  Uiso   1.00
C639   C     0.30583   0.16669   0.83633   0.00000  Uiso   1.00
C640   C     0.02755   0.16770   0.66371   0.00000  Uiso   1.00
C641   C     0.29093   0.16868   0.88596   0.00000  Uiso   1.00
C642   C     0.33289   0.24588   0.75134   0.00000  Uiso   1.00
C643   C     0.04330   0.17585   0.61484   0.00000  Uiso   1.00
C644   C     0.31039   0.16460   0.95734   0.00000  Uiso   1.00
C645   C     0.03022   0.20904   0.54878   0.00000  Uiso   1.00
C646   C     0.32502   0.16275   0.91039   0.00000  Uiso   1.00
C647   C     0.01212   0.19508   0.59314   0.00000  Uiso   1.00
C648   C     0.24241   0.17768   0.90908   0.00000  Uiso   1.00
C649   C     0.09237   0.17030   0.59142   0.00000  Uiso   1.00
C650   C     0.22798   0.18395   0.95613   0.00000  Uiso   1.00
C651   C     0.11251   0.18865   0.54891   0.00000  Uiso   1.00
C652   C     0.26198   0.17432   0.98036   0.00000  Uiso   1.00
C653   C     0.19937   0.18302   0.55133   0.00000  Uiso   1.00
C654   C     0.08011   0.20570   0.52641   0.00000  Uiso   1.00
C655   C     0.17978   0.19642   0.98003   0.00000  Uiso   1.00
C656   C     0.16361   0.18891   0.52746   0.00000  Uiso   1.00
C657   C     0.18961   0.19163   0.60034   0.00000  Uiso   1.00
C658   C     0.16502   0.24084   0.91651   0.00000  Uiso   1.00
C659   C     0.25224   0.29266   0.81361   0.00000  Uiso   1.00
C660   C     0.08086   0.04079   0.68565   0.00000  Uiso   1.00
C661   C     0.14736   0.21687   0.95909   0.00000  Uiso   1.00
C662   C     0.24767   0.17498   0.52730   0.00000  Uiso   1.00
C663   C     0.09793   0.22057   0.98249   0.00000  Uiso   1.00
C664   C     0.29445   0.02256   0.77682   0.00000  Uiso   1.00
C665   C     0.03895   0.31079   0.72276   0.00000  Uiso   1.00
C666   C     0.29329   0.31300   0.77982   0.00000  Uiso   1.00
Cu667  Cu    0.04689   0.16667   0.75000   0.00000  Uiso   1.00
Cu668  Cu    0.28645   0.16666   0.75000   0.00000  Uiso   1.00
H669   H     0.27456   0.16939   0.54539   0.00000  Uiso   1.00
H670   H     0.06832   0.29280   0.70111   0.00000  Uiso   1.00
H671   H     0.19647   0.11624   0.79554   0.00000  Uiso   1.00
H672   H     0.13670   0.21746   0.70498   0.00000  Uiso   1.00
H673   H     0.10957   0.11628   0.79553   0.00000  Uiso   1.00
H674   H     0.22361   0.21740   0.70494   0.00000  Uiso   1.00
H675   H     0.16001   0.21203   0.61725   0.00000  Uiso   1.00
H676   H     0.20256   0.25118   0.90543   0.00000  Uiso   1.00
H677   H     0.25458   0.26055   0.82278   0.00000  Uiso   1.00
H678   H     0.07848   0.07297   0.67674   0.00000  Uiso   1.00
H679   H     0.07315   0.23595   0.96669   0.00000  Uiso   1.00
H680   H     0.11457   0.15181   0.60719   0.00000  Uiso   1.00
H681   H     0.21591   0.17882   0.89007   0.00000  Uiso   1.00
H682   H     0.30754   0.20041   0.61081   0.00000  Uiso   1.00
H683   H     0.02939   0.15568   0.89333   0.00000  Uiso   1.00
H684   H     0.00362   0.15836   0.97567   0.00000  Uiso   1.00
H685   H     0.00551   0.22365   0.53240   0.00000  Uiso   1.00
H686   H     0.26506   0.04055   0.79846   0.00000  Uiso   1.00
N687   N     0.11736   0.16668   0.74999   0.00000  Uiso   1.00
N688   N     0.21597   0.16666   0.75001   0.00000  Uiso   1.00
O689   O     0.03958   0.10655   0.75000   0.00000  Uiso   1.00
O690   O     0.13773   0.24982   0.89369   0.00000  Uiso   1.00
O691   O     0.21524   0.31181   0.83216   0.00000  Uiso   1.00
O692   O     0.11767   0.02164   0.66653   0.00000  Uiso   1.00
O693   O     0.29375   0.22678   0.75000   0.00000  Uiso   1.00
O694   O     0.29372   0.10654   0.75001   0.00000  Uiso   1.00
O695   O     0.03961   0.22679   0.74999   0.00000  Uiso   1.00
O696   O     0.01852   0.16668   0.81491   0.00000  Uiso   1.00
O697   O     0.31481   0.16666   0.68509   0.00000  Uiso   1.00
O698   O     0.27267   0.16667   0.81492   0.00000  Uiso   1.00
O699   O     0.06067   0.16667   0.68508   0.00000  Uiso   1.00
O700   O     0.21470   0.17619   0.62230   0.00000  Uiso   1.00
C701   C     0.33383   0.08747   0.74850   0.00000  Uiso   1.00
C702   C     0.37339   0.02038   0.71969   0.00000  Uiso   1.00
C703   C     0.66598   0.29053   0.75203   0.00000  Uiso   1.00
C704   C     0.33410   0.04283   0.74763   0.00000  Uiso   1.00
C705   C     0.51723   0.13866   0.77526   0.00000  Uiso   1.00
C706   C     0.48268   0.19488   0.72505   0.00000  Uiso   1.00
C707   C     0.46764   0.13868   0.77525   0.00000  Uiso   1.00
C708   C     0.53226   0.19488   0.72507   0.00000  Uiso   1.00
C709   C     0.63916   0.16669   0.83633   0.00000  Uiso   1.00
C710   C     0.36089   0.16770   0.66371   0.00000  Uiso   1.00
C711   C     0.62426   0.16868   0.88596   0.00000  Uiso   1.00
C712   C     0.66622   0.24588   0.75134   0.00000  Uiso   1.00
C713   C     0.37663   0.17585   0.61484   0.00000  Uiso   1.00
C714   C     0.64372   0.16460   0.95734   0.00000  Uiso   1.00
C715   C     0.36355   0.20904   0.54878   0.00000  Uiso   1.00
C716   C     0.65835   0.16275   0.91039   0.00000  Uiso   1.00
C717   C     0.34545   0.19508   0.59314   0.00000  Uiso   1.00
C718   C     0.57574   0.17768   0.90908   0.00000  Uiso   1.00
C719   C     0.42570   0.17030   0.59142   0.00000  Uiso   1.00
C720   C     0.56132   0.18395   0.95613   0.00000  Uiso   1.00
C721   C     0.44584   0.18865   0.54891   0.00000  Uiso   1.00
C722   C     0.59531   0.17432   0.98036   0.00000  Uiso   1.00
C723   C     0.53270   0.18302   0.55133   0.00000  Uiso   1.00
C724   C     0.41344   0.20570   0.52641   0.00000  Uiso   1.00
C725   C     0.51312   0.19642   0.98003   0.00000  Uiso   1.00
C726   C     0.49694   0.18891   0.52746   0.00000  Uiso   1.00
C727   C     0.52294   0.19163   0.60034   0.00000  Uiso   1.00
C728   C     0.49835   0.24084   0.91651   0.00000  Uiso   1.00
C729   C     0.58557   0.29266   0.81361   0.00000  Uiso   1.00
C730   C     0.41419   0.04079   0.68565   0.00000  Uiso   1.00
C731   C     0.48069   0.21687   0.95909   0.00000  Uiso   1.00
C732   C     0.58100   0.17498   0.52730   0.00000  Uiso   1.00
C733   C     0.43126   0.22057   0.98249   0.00000  Uiso   1.00
C734   C     0.62778   0.02256   0.77682   0.00000  Uiso   1.00
C735   C     0.37228   0.31079   0.72276   0.00000  Uiso   1.00
C736   C     0.62662   0.31300   0.77982   0.00000  Uiso   1.00
Cu737  Cu    0.38022   0.16667   0.75000   0.00000  Uiso   1.00
Cu738  Cu    0.61978   0.16666   0.75000   0.00000  Uiso   1.00
H739   H     0.60790   0.16939   0.54539   0.00000  Uiso   1.00
H740   H     0.40165   0.29280   0.70111   0.00000  Uiso   1.00
H741   H     0.52980   0.11624   0.79554   0.00000  Uiso   1.00
H742   H     0.47004   0.21746   0.70498   0.00000  Uiso   1.00
H743   H     0.44290   0.11628   0.79553   0.00000  Uiso   1.00
H744   H     0.55695   0.21740   0.70494   0.00000  Uiso   1.00
H745   H     0.49335   0.21203   0.61725   0.00000  Uiso   1.00
H746   H     0.53589   0.25118   0.90543   0.00000  Uiso   1.00
H747   H     0.58791   0.26055   0.82278   0.00000  Uiso   1.00
H748   H     0.41182   0.07297   0.67674   0.00000  Uiso   1.00
H749   H     0.40648   0.23595   0.96669   0.00000  Uiso   1.00
H750   H     0.44790   0.15181   0.60719   0.00000  Uiso   1.00
H751   H     0.54924   0.17882   0.89007   0.00000  Uiso   1.00
H752   H     0.64087   0.20041   0.61081   0.00000  Uiso   1.00
H753   H     0.36272   0.15568   0.89333   0.00000  Uiso   1.00
H754   H     0.33695   0.15836   0.97567   0.00000  Uiso   1.00
H755   H     0.33884   0.22365   0.53240   0.00000  Uiso   1.00
H756   H     0.59840   0.04055   0.79846   0.00000  Uiso   1.00
N757   N     0.45069   0.16668   0.74999   0.00000  Uiso   1.00
N758   N     0.54931   0.16666   0.75001   0.00000  Uiso   1.00
O759   O     0.37291   0.10655   0.75000   0.00000  Uiso   1.00
O760   O     0.47106   0.24982   0.89369   0.00000  Uiso   1.00
O761   O     0.54857   0.31181   0.83216   0.00000  Uiso   1.00
O762   O     0.45100   0.02164   0.66653   0.00000  Uiso   1.00
O763   O     0.62709   0.22678   0.75000   0.00000  Uiso   1.00
O764   O     0.62706   0.10654   0.75001   0.00000  Uiso   1.00
O765   O     0.37294   0.22679   0.74999   0.00000  Uiso   1.00
O766   O     0.35186   0.16668   0.81491   0.00000  Uiso   1.00
O767   O     0.64814   0.16666   0.68509   0.00000  Uiso   1.00
O768   O     0.60600   0.16667   0.81492   0.00000  Uiso   1.00
O769   O     0.39400   0.16667   0.68508   0.00000  Uiso   1.00
O770   O     0.54803   0.17619   0.62230   0.00000  Uiso   1.00
C771   C     0.66716   0.08747   0.74850   0.00000  Uiso   1.00
C772   C     0.70672   0.02038   0.71969   0.00000  Uiso   1.00
C773   C     0.99931   0.29053   0.75203   0.00000  Uiso   1.00
C774   C     0.66743   0.04283   0.74763   0.00000  Uiso   1.00
C775   C     0.85056   0.13866   0.77526   0.00000  Uiso   1.00
C776   C     0.81601   0.19488   0.72505   0.00000  Uiso   1.00
C777   C     0.80097   0.13868   0.77525   0.00000  Uiso   1.00
C778   C     0.86560   0.19488   0.72507   0.00000  Uiso   1.00
C779   C     0.97250   0.16669   0.83633   0.00000  Uiso   1.00
C780   C     0.69422   0.16770   0.66371   0.00000  Uiso   1.00
C781   C     0.95759   0.16868   0.88596   0.00000  Uiso   1.00
C782   C     0.99955   0.24588   0.75134   0.00000  Uiso   1.00
C783   C     0.70996   0.17585   0.61484   0.00000  Uiso   1.00
C784   C     0.97705   0.16460   0.95734   0.00000  Uiso   1.00
C785   C     0.69689   0.20904   0.54878   0.00000  Uiso   1.00
C786   C     0.99169   0.16275   0.91039   0.00000  Uiso   1.00
C787   C     0.67878   0.19508   0.59314   0.00000  Uiso   1.00
C788   C     0.90908   0.17768   0.90908   0.00000  Uiso   1.00
C789   C     0.75904   0.17030   0.59142   0.00000  Uiso   1.00
C790   C     0.89465   0.18395   0.95613   0.00000  Uiso   1.00
C791   C     0.77918   0.18865   0.54891   0.00000  Uiso   1.00
C792   C     0.92865   0.17432   0.98036   0.00000  Uiso   1.00
C793   C     0.86604   0.18302   0.55133   0.00000  Uiso   1.00
C794   C     0.74678   0.20570   0.52641   0.00000  Uiso   1.00
C795   C     0.84645   0.19642   0.98003   0.00000  Uiso   1.00
C796   C     0.83027   0.18891   0.52746   0.00000  Uiso   1.00
C797   C     0.85627   0.19163   0.60034   0.00000  Uiso   1.00
C798   C     0.83168   0.24084   0.91651   0.00000  Uiso   1.00
C799   C     0.91891   0.29266   0.81361   0.00000  Uiso   1.00
C800   C     0.74753   0.04079   0.68565   0.00000  Uiso   1.00
C801   C     0.81403   0.21687   0.95909   0.00000  Uiso   1.00
C802   C     0.91434   0.17498   0.52730   0.00000  Uiso   1.00
C803   C     0.76460   0.22057   0.98249   0.00000  Uiso   1.00
C804   C     0.96112   0.02256   0.77682   0.00000  Uiso   1.00
C805   C     0.70561   0.31079   0.72276   0.00000  Uiso   1.00
C806   C     0.95995   0.31300   0.77982   0.00000  Uiso   1.00
Cu807  Cu    0.71355   0.16667   0.75000   0.00000  Uiso   1.00
Cu808  Cu    0.95311   0.16666   0.75000   0.00000  Uiso   1.00
H809   H     0.94123   0.16939   0.54539   0.00000  Uiso   1.00
H810   H     0.73498   0.29280   0.70111   0.00000  Uiso   1.00
H811   H     0.86314   0.11624   0.79554   0.00000  Uiso   1.00
H812   H     0.80337   0.21746   0.70498   0.00000  Uiso   1.00
H813   H     0.77624   0.11628   0.79553   0.00000  Uiso   1.00
H814   H     0.89028   0.21740   0.70494   0.00000  Uiso   1.00
H815   H     0.82668   0.21203   0.61725   0.00000  Uiso   1.00
H816   H     0.86922   0.25118   0.90543   0.00000  Uiso   1.00
H817   H     0.92124   0.26055   0.82278   0.00000  Uiso   1.00
H818   H     0.74515   0.07297   0.67674   0.00000  Uiso   1.00
H819   H     0.73982   0.23595   0.96669   0.00000  Uiso   1.00
H820   H     0.78123   0.15181   0.60719   0.00000  Uiso   1.00
H821   H     0.88258   0.17882   0.89007   0.00000  Uiso   1.00
H822   H     0.97420   0.20041   0.61081   0.00000  Uiso   1.00
H823   H     0.69605   0.15568   0.89333   0.00000  Uiso   1.00
H824   H     0.67028   0.15836   0.97567   0.00000  Uiso   1.00
H825   H     0.67218   0.22365   0.53240   0.00000  Uiso   1.00
H826   H     0.93173   0.04055   0.79846   0.00000  Uiso   1.00
N827   N     0.78403   0.16668   0.74999   0.00000  Uiso   1.00
N828   N     0.88264   0.16666   0.75001   0.00000  Uiso   1.00
O829   O     0.70625   0.10655   0.75000   0.00000  Uiso   1.00
O830   O     0.80439   0.24982   0.89369   0.00000  Uiso   1.00
O831   O     0.88190   0.31181   0.83216   0.00000  Uiso   1.00
O832   O     0.78433   0.02164   0.66653   0.00000  Uiso   1.00
O833   O     0.96042   0.22678   0.75000   0.00000  Uiso   1.00
O834   O     0.96039   0.10654   0.75001   0.00000  Uiso   1.00
O835   O     0.70628   0.22679   0.74999   0.00000  Uiso   1.00
O836   O     0.68519   0.16668   0.81491   0.00000  Uiso   1.00
O837   O     0.98148   0.16666   0.68509   0.00000  Uiso   1.00
O838   O     0.93933   0.16667   0.81492   0.00000  Uiso   1.00
O839   O     0.72733   0.16667   0.68508   0.00000  Uiso   1.00
O840   O     0.88137   0.17619   0.62230   0.00000  Uiso   1.00
C841   C     0.00050   0.42080   0.74850   0.00000  Uiso   1.00
C842   C     0.04006   0.35371   0.71969   0.00000  Uiso   1.00
C843   C     0.33265   0.62386   0.75203   0.00000  Uiso   1.00
C844   C     0.00077   0.37616   0.74763   0.00000  Uiso   1.00
C845   C     0.18389   0.47200   0.77526   0.00000  Uiso   1.00
C846   C     0.14935   0.52822   0.72505   0.00000  Uiso   1.00
C847   C     0.13431   0.47201   0.77525   0.00000  Uiso   1.00
C848   C     0.19893   0.52821   0.72507   0.00000  Uiso   1.00
C849   C     0.30583   0.50002   0.83633   0.00000  Uiso   1.00
C850   C     0.02755   0.50104   0.66371   0.00000  Uiso   1.00
C851   C     0.29093   0.50201   0.88596   0.00000  Uiso   1.00
C852   C     0.33289   0.57921   0.75134   0.00000  Uiso   1.00
C853   C     0.04330   0.50918   0.61484   0.00000  Uiso   1.00
C854   C     0.31039   0.49793   0.95734   0.00000  Uiso   1.00
C855   C     0.03022   0.54237   0.54878   0.00000  Uiso   1.00
C856   C     0.32502   0.49608   0.91039   0.00000  Uiso   1.00
C857   C     0.01212   0.52842   0.59314   0.00000  Uiso   1.00
C858   C     0.24241   0.51101   0.90908   0.00000  Uiso   1.00
C859   C     0.09237   0.50363   0.59142   0.00000  Uiso   1.00
C860   C     0.22798   0.51728   0.95613   0.00000  Uiso   1.00
C861   C     0.11251   0.52198   0.54891   0.00000  Uiso   1.00
C862   C     0.26198   0.50766   0.98036   0.00000  Uiso   1.00
C863   C     0.19937   0.51635   0.55133   0.00000  Uiso   1.00
C864   C     0.08011   0.53903   0.52641   0.00000  Uiso   1.00
C865   C     0.17978   0.52975   0.98003   0.00000  Uiso   1.00
C866   C     0.16361   0.52224   0.52746   0.00000  Uiso   1.00
C867   C     0.18961   0.52496   0.60034   0.00000  Uiso   1.00
C868   C     0.16502   0.57418   0.91651   0.00000  Uiso   1.00
C869   C     0.25224   0.62599   0.81361   0.00000  Uiso   1.00
C870   C     0.08086   0.37413   0.68565   0.00000  Uiso   1.00
C871   C     0.14736   0.55021   0.95909   0.00000  Uiso   1.00
C872   C     0.24767   0.50831   0.52730   0.00000  Uiso   1.00
C873   C     0.09793   0.55391   0.98249   0.00000  Uiso   1.00
C874   C     0.29445   0.35589   0.77682   0.00000  Uiso   1.00
C875   C     0.03895   0.64413   0.72276   0.00000  Uiso   1.00
C876   C     0.29329   0.64633   0.77982   0.00000  Uiso   1.00
Cu877  Cu    0.04689   0.50001   0.75000   0.00000  Uiso   1.00
Cu878  Cu    0.28645   0.49999   0.75000   0.00000  Uiso   1.00
H879   H     0.27456   0.50272   0.54539   0.00000  Uiso   1.00
H880   H     0.06832   0.62613   0.70111   0.00000  Uiso   1.00
H881   H     0.19647   0.44957   0.79554   0.00000  Uiso   1.00
H882   H     0.13670   0.55079   0.70498   0.00000  Uiso   1.00
H883   H     0.10957   0.44961   0.79553   0.00000  Uiso   1.00
H884   H     0.22361   0.55074   0.70494   0.00000  Uiso   1.00
H885   H     0.16001   0.54536   0.61725   0.00000  Uiso   1.00
H886   H     0.20256   0.58451   0.90543   0.00000  Uiso   1.00
H887   H     0.25458   0.59389   0.82278   0.00000  Uiso   1.00
H888   H     0.07848   0.40630   0.67674   0.00000  Uiso   1.00
H889   H     0.07315   0.56928   0.96669   0.00000  Uiso   1.00
H890   H     0.11457   0.48514   0.60719   0.00000  Uiso   1.00
H891   H     0.21591   0.51215   0.89007   0.00000  Uiso   1.00
H892   H     0.30754   0.53374   0.61081   0.00000  Uiso   1.00
H893   H     0.02939   0.48902   0.89333   0.00000  Uiso   1.00
H894   H     0.00362   0.49170   0.97567   0.00000  Uiso   1.00
H895   H     0.00551   0.55699   0.53240   0.00000  Uiso   1.00
H896   H     0.26506   0.37388   0.79846   0.00000  Uiso   1.00
N897   N     0.11736   0.50001   0.74999   0.00000  Uiso   1.00
N898   N     0.21597   0.49999   0.75001   0.00000  Uiso   1.00
O899   O     0.03958   0.43989   0.75000   0.00000  Uiso   1.00
O900   O     0.13773   0.58315   0.89369   0.00000  Uiso   1.00
O901   O     0.21524   0.64514   0.83216   0.00000  Uiso   1.00
O902   O     0.11767   0.35498   0.66653   0.00000  Uiso   1.00
O903   O     0.29375   0.56011   0.75000   0.00000  Uiso   1.00
O904   O     0.29372   0.43988   0.75001   0.00000  Uiso   1.00
O905   O     0.03961   0.56012   0.74999   0.00000  Uiso   1.00
O906   O     0.01852   0.50001   0.81491   0.00000  Uiso   1.00
O907   O     0.31481   0.49999   0.68509   0.00000  Uiso   1.00
O908   O     0.27267   0.50000   0.81492   0.00000  Uiso   1.00
O909   O     0.06067   0.50000   0.68508   0.00000  Uiso   1.00
O910   O     0.21470   0.50952   0.62230   0.00000  Uiso   1.00
C911   C     0.33383   0.42080   0.74850   0.00000  Uiso   1.00
C912   C     0.37339   0.35371   0.71969   0.00000  Uiso   1.00
C913   C     0.66598   0.62386   0.75203   0.00000  Uiso   1.00
C914   C     0.33410   0.37616   0.74763   0.00000  Uiso   1.00
C915   C     0.51723   0.47200   0.77526   0.00000  Uiso   1.00
C916   C     0.48268   0.52822   0.72505   0.00000  Uiso   1.00
C917   C     0.46764   0.47201   0.77525   0.00000  Uiso   1.00
C918   C     0.53226   0.52821   0.72507   0.00000  Uiso   1.00
C919   C     0.63916   0.50002   0.83633   0.00000  Uiso   1.00
C920   C     0.36089   0.50104   0.66371   0.00000  Uiso   1.00
C921   C     0.62426   0.50201   0.88596   0.00000  Uiso   1.00
C922   C     0.66622   0.57921   0.75134   0.00000  Uiso   1.00
C923   C     0.37663   0.50918   0.61484   0.00000  Uiso   1.00
C924   C     0.64372   0.49793   0.95734   0.00000  Uiso   1.00
C925   C     0.36355   0.54237   0.54878   0.00000  Uiso   1.00
C926   C     0.65835   0.49608   0.91039   0.00000  Uiso   1.00
C927   C     0.34545   0.52842   0.59314   0.00000  Uiso   1.00
C928   C     0.57574   0.51101   0.90908   0.00000  Uiso   1.00
C929   C     0.42570   0.50363   0.59142   0.00000  Uiso   1.00
C930   C     0.56132   0.51728   0.95613   0.00000  Uiso   1.00
C931   C     0.44584   0.52198   0.54891   0.00000  Uiso   1.00
C932   C     0.59531   0.50766   0.98036   0.00000  Uiso   1.00
C933   C     0.53270   0.51635   0.55133   0.00000  Uiso   1.00
C934   C     0.41344   0.53903   0.52641   0.00000  Uiso   1.00
C935   C     0.51312   0.52975   0.98003   0.00000  Uiso   1.00
C936   C     0.49694   0.52224   0.52746   0.00000  Uiso   1.00
C937   C     0.52294   0.52496   0.60034   0.00000  Uiso   1.00
C938   C     0.49835   0.57418   0.91651   0.00000  Uiso   1.00
C939   C     0.58557   0.62599   0.81361   0.00000  Uiso   1.00
C940   C     0.41419   0.37413   0.68565   0.00000  Uiso   1.00
C941   C     0.48069   0.55021   0.95909   0.00000  Uiso   1.00
C942   C     0.58100   0.50831   0.52730   0.00000  Uiso   1.00
C943   C     0.43126   0.55391   0.98249   0.00000  Uiso   1.00
C944   C     0.62778   0.35589   0.77682   0.00000  Uiso   1.00
C945   C     0.37228   0.64413   0.72276   0.00000  Uiso   1.00
C946   C     0.62662   0.64633   0.77982   0.00000  Uiso   1.00
Cu947  Cu    0.38022   0.50001   0.75000   0.00000  Uiso   1.00
Cu948  Cu    0.61978   0.49999   0.75000   0.00000  Uiso   1.00
H949   H     0.60790   0.50272   0.54539   0.00000  Uiso   1.00
H950   H     0.40165   0.62613   0.70111   0.00000  Uiso   1.00
H951   H     0.52980   0.44957   0.79554   0.00000  Uiso   1.00
H952   H     0.47004   0.55079   0.70498   0.00000  Uiso   1.00
H953   H     0.44290   0.44961   0.79553   0.00000  Uiso   1.00
H954   H     0.55695   0.55074   0.70494   0.00000  Uiso   1.00
H955   H     0.49335   0.54536   0.61725   0.00000  Uiso   1.00
H956   H     0.53589   0.58451   0.90543   0.00000  Uiso   1.00
H957   H     0.58791   0.59389   0.82278   0.00000  Uiso   1.00
H958   H     0.41182   0.40630   0.67674   0.00000  Uiso   1.00
H959   H     0.40648   0.56928   0.96669   0.00000  Uiso   1.00
H960   H     0.44790   0.48514   0.60719   0.00000  Uiso   1.00
H961   H     0.54924   0.51215   0.89007   0.00000  Uiso   1.00
H962   H     0.64087   0.53374   0.61081   0.00000  Uiso   1.00
H963   H     0.36272   0.48902   0.89333   0.00000  Uiso   1.00
H964   H     0.33695   0.49170   0.97567   0.00000  Uiso   1.00
H965   H     0.33884   0.55699   0.53240   0.00000  Uiso   1.00
H966   H     0.59840   0.37388   0.79846   0.00000  Uiso   1.00
N967   N     0.45069   0.50001   0.74999   0.00000  Uiso   1.00
N968   N     0.54931   0.49999   0.75001   0.00000  Uiso   1.00
O969   O     0.37291   0.43989   0.75000   0.00000  Uiso   1.00
O970   O     0.47106   0.58315   0.89369   0.00000  Uiso   1.00
O971   O     0.54857   0.64514   0.83216   0.00000  Uiso   1.00
O972   O     0.45100   0.35498   0.66653   0.00000  Uiso   1.00
O973   O     0.62709   0.56011   0.75000   0.00000  Uiso   1.00
O974   O     0.62706   0.43988   0.75001   0.00000  Uiso   1.00
O975   O     0.37294   0.56012   0.74999   0.00000  Uiso   1.00
O976   O     0.35186   0.50001   0.81491   0.00000  Uiso   1.00
O977   O     0.64814   0.49999   0.68509   0.00000  Uiso   1.00
O978   O     0.60600   0.50000   0.81492   0.00000  Uiso   1.00
O979   O     0.39400   0.50000   0.68508   0.00000  Uiso   1.00
O980   O     0.54803   0.50952   0.62230   0.00000  Uiso   1.00
C981   C     0.66716   0.42080   0.74850   0.00000  Uiso   1.00
C982   C     0.70672   0.35371   0.71969   0.00000  Uiso   1.00
C983   C     0.99931   0.62386   0.75203   0.00000  Uiso   1.00
C984   C     0.66743   0.37616   0.74763   0.00000  Uiso   1.00
C985   C     0.85056   0.47200   0.77526   0.00000  Uiso   1.00
C986   C     0.81601   0.52822   0.72505   0.00000  Uiso   1.00
C987   C     0.80097   0.47201   0.77525   0.00000  Uiso   1.00
C988   C     0.86560   0.52821   0.72507   0.00000  Uiso   1.00
C989   C     0.97250   0.50002   0.83633   0.00000  Uiso   1.00
C990   C     0.69422   0.50104   0.66371   0.00000  Uiso   1.00
C991   C     0.95759   0.50201   0.88596   0.00000  Uiso   1.00
C992   C     0.99955   0.57921   0.75134   0.00000  Uiso   1.00
C993   C     0.70996   0.50918   0.61484   0.00000  Uiso   1.00
C994   C     0.97705   0.49793   0.95734   0.00000  Uiso   1.00
C995   C     0.69689   0.54237   0.54878   0.00000  Uiso   1.00
C996   C     0.99169   0.49608   0.91039   0.00000  Uiso   1.00
C997   C     0.67878   0.52842   0.59314   0.00000  Uiso   1.00
C998   C     0.90908   0.51101   0.90908   0.00000  Uiso   1.00
C999   C     0.75904   0.50363   0.59142   0.00000  Uiso   1.00
C1000  C     0.89465   0.51728   0.95613   0.00000  Uiso   1.00
C1001  C     0.77918   0.52198   0.54891   0.00000  Uiso   1.00
C1002  C     0.92865   0.50766   0.98036   0.00000  Uiso   1.00
C1003  C     0.86604   0.51635   0.55133   0.00000  Uiso   1.00
C1004  C     0.74678   0.53903   0.52641   0.00000  Uiso   1.00
C1005  C     0.84645   0.52975   0.98003   0.00000  Uiso   1.00
C1006  C     0.83027   0.52224   0.52746   0.00000  Uiso   1.00
C1007  C     0.85627   0.52496   0.60034   0.00000  Uiso   1.00
C1008  C     0.83168   0.57418   0.91651   0.00000  Uiso   1.00
C1009  C     0.91891   0.62599   0.81361   0.00000  Uiso   1.00
C1010  C     0.74753   0.37413   0.68565   0.00000  Uiso   1.00
C1011  C     0.81403   0.55021   0.95909   0.00000  Uiso   1.00
C1012  C     0.91434   0.50831   0.52730   0.00000  Uiso   1.00
C1013  C     0.76460   0.55391   0.98249   0.00000  Uiso   1.00
C1014  C     0.96112   0.35589   0.77682   0.00000  Uiso   1.00
C1015  C     0.70561   0.64413   0.72276   0.00000  Uiso   1.00
C1016  C     0.95995   0.64633   0.77982   0.00000  Uiso   1.00
Cu1017 Cu    0.71355   0.50001   0.75000   0.00000  Uiso   1.00
Cu1018 Cu    0.95311   0.49999   0.75000   0.00000  Uiso   1.00
H1019  H     0.94123   0.50272   0.54539   0.00000  Uiso   1.00
H1020  H     0.73498   0.62613   0.70111   0.00000  Uiso   1.00
H1021  H     0.86314   0.44957   0.79554   0.00000  Uiso   1.00
H1022  H     0.80337   0.55079   0.70498   0.00000  Uiso   1.00
H1023  H     0.77624   0.44961   0.79553   0.00000  Uiso   1.00
H1024  H     0.89028   0.55074   0.70494   0.00000  Uiso   1.00
H1025  H     0.82668   0.54536   0.61725   0.00000  Uiso   1.00
H1026  H     0.86922   0.58451   0.90543   0.00000  Uiso   1.00
H1027  H     0.92124   0.59389   0.82278   0.00000  Uiso   1.00
H1028  H     0.74515   0.40630   0.67674   0.00000  Uiso   1.00
H1029  H     0.73982   0.56928   0.96669   0.00000  Uiso   1.00
H1030  H     0.78123   0.48514   0.60719   0.00000  Uiso   1.00
H1031  H     0.88258   0.51215   0.89007   0.00000  Uiso   1.00
H1032  H     0.97420   0.53374   0.61081   0.00000  Uiso   1.00
H1033  H     0.69605   0.48902   0.89333   0.00000  Uiso   1.00
H1034  H     0.67028   0.49170   0.97567   0.00000  Uiso   1.00
H1035  H     0.67218   0.55699   0.53240   0.00000  Uiso   1.00
H1036  H     0.93173   0.37388   0.79846   0.00000  Uiso   1.00
N1037  N     0.78403   0.50001   0.74999   0.00000  Uiso   1.00
N1038  N     0.88264   0.49999   0.75001   0.00000  Uiso   1.00
O1039  O     0.70625   0.43989   0.75000   0.00000  Uiso   1.00
O1040  O     0.80439   0.58315   0.89369   0.00000  Uiso   1.00
O1041  O     0.88190   0.64514   0.83216   0.00000  Uiso   1.00
O1042  O     0.78433   0.35498   0.66653   0.00000  Uiso   1.00
O1043  O     0.96042   0.56011   0.75000   0.00000  Uiso   1.00
O1044  O     0.96039   0.43988   0.75001   0.00000  Uiso   1.00
O1045  O     0.70628   0.56012   0.74999   0.00000  Uiso   1.00
O1046  O     0.68519   0.50001   0.81491   0.00000  Uiso   1.00
O1047  O     0.98148   0.49999   0.68509   0.00000  Uiso   1.00
O1048  O     0.93933   0.50000   0.81492   0.00000  Uiso   1.00
O1049  O     0.72733   0.50000   0.68508   0.00000  Uiso   1.00
O1050  O     0.88137   0.50952   0.62230   0.00000  Uiso   1.00
C1051  C     0.00050   0.75414   0.74850   0.00000  Uiso   1.00
C1052  C     0.04006   0.68704   0.71969   0.00000  Uiso   1.00
C1053  C     0.33265   0.95719   0.75203   0.00000  Uiso   1.00
C1054  C     0.00077   0.70950   0.74763   0.00000  Uiso   1.00
C1055  C     0.18389   0.80533   0.77526   0.00000  Uiso   1.00
C1056  C     0.14935   0.86155   0.72505   0.00000  Uiso   1.00
C1057  C     0.13431   0.80535   0.77525   0.00000  Uiso   1.00
C1058  C     0.19893   0.86154   0.72507   0.00000  Uiso   1.00
C1059  C     0.30583   0.83335   0.83633   0.00000  Uiso   1.00
C1060  C     0.02755   0.83437   0.66371   0.00000  Uiso   1.00
C1061  C     0.29093   0.83534   0.88596   0.00000  Uiso   1.00
C1062  C     0.33289   0.91254   0.75134   0.00000  Uiso   1.00
C1063  C     0.04330   0.84251   0.61484   0.00000  Uiso   1.00
C1064  C     0.31039   0.83127   0.95734   0.00000  Uiso   1.00
C1065  C     0.03022   0.87571   0.54878   0.00000  Uiso   1.00
C1066  C     0.32502   0.82942   0.91039   0.00000  Uiso   1.00
C1067  C     0.01212   0.86175   0.59314   0.00000  Uiso   1.00
C1068  C     0.24241   0.84435   0.90908   0.00000  Uiso   1.00
C1069  C     0.09237   0.83696   0.59142   0.00000  Uiso   1.00
C1070  C     0.22798   0.85061   0.95613   0.00000  Uiso   1.00
C1071  C     0.11251   0.85532   0.54891   0.00000  Uiso   1.00
C1072  C     0.26198   0.84099   0.98036   0.00000  Uiso   1.00
C1073  C     0.19937   0.84969   0.55133   0.00000  Uiso   1.00
C1074  C     0.08011   0.87236   0.52641   0.00000  Uiso   1.00
C1075  C     0.17978   0.86308   0.98003   0.00000  Uiso   1.00
C1076  C     0.16361   0.85558   0.52746   0.00000  Uiso   1.00
C1077  C     0.18961   0.85829   0.60034   0.00000  Uiso   1.00
C1078  C     0.16502   0.90751   0.91651   0.00000  Uiso   1.00
C1079  C     0.25224   0.95932   0.81361   0.00000  Uiso   1.00
C1080  C     0.08086   0.70746   0.68565   0.00000  Uiso   1.00
C1081  C     0.14736   0.88354   0.95909   0.00000  Uiso   1.00
C1082  C     0.24767   0.84165   0.52730   0.00000  Uiso   1.00
C1083  C     0.09793   0.88724   0.98249   0.00000  Uiso   1.00
C1084  C     0.29445   0.68923   0.77682   0.00000  Uiso   1.00
C1085  C     0.03895   0.97746   0.72276   0.00000  Uiso   1.00
C1086  C     0.29329   0.97967   0.77982   0.00000  Uiso   1.00
Cu1087 Cu    0.04689   0.83334   0.75000   0.00000  Uiso   1.00
Cu1088 Cu    0.28645   0.83333   0.75000   0.00000  Uiso   1.00
H1089  H     0.27456   0.83605   0.54539   0.00000  Uiso   1.00
H1090  H     0.06832   0.95946   0.70111   0.00000  Uiso   1.00
H1091  H     0.19647   0.78290   0.79554   0.00000  Uiso   1.00
H1092  H     0.13670   0.88413   0.70498   0.00000  Uiso   1.00
H1093  H     0.10957   0.78295   0.79553   0.00000  Uiso   1.00
H1094  H     0.22361   0.88407   0.70494   0.00000  Uiso   1.00
H1095  H     0.16001   0.87869   0.61725   0.00000  Uiso   1.00
H1096  H     0.20256   0.91784   0.90543   0.00000  Uiso   1.00
H1097  H     0.25458   0.92722   0.82278   0.00000  Uiso   1.00
H1098  H     0.07848   0.73963   0.67674   0.00000  Uiso   1.00
H1099  H     0.07315   0.90261   0.96669   0.00000  Uiso   1.00
H1100  H     0.11457   0.81848   0.60719   0.00000  Uiso   1.00
H1101  H     0.21591   0.84548   0.89007   0.00000  Uiso   1.00
H1102  H     0.30754   0.86707   0.61081   0.00000  Uiso   1.00
H1103  H     0.02939   0.82235   0.89333   0.00000  Uiso   1.00
H1104  H     0.00362   0.82503   0.97567   0.00000  Uiso   1.00
H1105  H     0.00551   0.89032   0.53240   0.00000  Uiso   1.00
H1106  H     0.26506   0.70721   0.79846   0.00000  Uiso   1.00
N1107  N     0.11736   0.83334   0.74999   0.00000  Uiso   1.00
N1108  N     0.21597   0.83332   0.75001   0.00000  Uiso   1.00
O1109  O     0.03958   0.77322   0.75000   0.00000  Uiso   1.00
O1110  O     0.13773   0.91649   0.89369   0.00000  Uiso   1.00
O1111  O     0.21524   0.97847   0.83216   0.00000  Uiso   1.00
O1112  O     0.11767   0.68831   0.66653   0.00000  Uiso   1.00
O1113  O     0.29375   0.89345   0.75000   0.00000  Uiso   1.00
O1114  O     0.29372   0.77321   0.75001   0.00000  Uiso   1.00
O1115  O     0.03961   0.89346   0.74999   0.00000  Uiso   1.00
O1116  O     0.01852   0.83334   0.81491   0.00000  Uiso   1.00
O1117  O     0.31481   0.83332   0.68509   0.00000  Uiso   1.00
O1118  O     0.27267   0.83333   0.81492   0.00000  Uiso   1.00
O1119  O     0.06067   0.83333   0.68508   0.00000  Uiso   1.00
O1120  O     0.21470   0.84285   0.62230   0.00000  Uiso   1.00
C1121  C     0.33383   0.75414   0.74850   0.00000  Uiso   1.00
C1122  C     0.37339   0.68704   0.71969   0.00000  Uiso   1.00
C1123  C     0.66598   0.95719   0.75203   0.00000  Uiso   1.00
C1124  C     0.33410   0.70950   0.74763   0.00000  Uiso   1.00
C1125  C     0.51723   0.80533   0.77526   0.00000  Uiso   1.00
C1126  C     0.48268   0.86155   0.72505   0.00000  Uiso   1.00
C1127  C     0.46764   0.80535   0.77525   0.00000  Uiso   1.00
C1128  C     0.53226   0.86154   0.72507   0.00000  Uiso   1.00
C1129  C     0.63916   0.83335   0.83633   0.00000  Uiso   1.00
C1130  C     0.36089   0.83437   0.66371   0.00000  Uiso   1.00
C1131  C     0.62426   0.83534   0.88596   0.00000  Uiso   1.00
C1132  C     0.66622   0.91254   0.75134   0.00000  Uiso   1.00
C1133  C     0.37663   0.84251   0.61484   0.00000  Uiso   1.00
C1134  C     0.64372   0.83127   0.95734   0.00000  Uiso   1.00
C1135  C     0.36355   0.87571   0.54878   0.00000  Uiso   1.00
C1136  C     0.65835   0.82942   0.91039   0.00000  Uiso   1.00
C1137  C     0.34545   0.86175   0.59314   0.00000  Uiso   1.00
C1138  C     0.57574   0.84435   0.90908   0.00000  Uiso   1.00
C1139  C     0.42570   0.83696   0.59142   0.00000  Uiso   1.00
C1140  C     0.56132   0.85061   0.95613   0.00000  Uiso   1.00
C1141  C     0.44584   0.85532   0.54891   0.00000  Uiso   1.00
C1142  C     0.59531   0.84099   0.98036   0.00000  Uiso   1.00
C1143  C     0.53270   0.84969   0.55133   0.00000  Uiso   1.00
C1144  C     0.41344   0.87236   0.52641   0.00000  Uiso   1.00
C1145  C     0.51312   0.86308   0.98003   0.00000  Uiso   1.00
C1146  C     0.49694   0.85558   0.52746   0.00000  Uiso   1.00
C1147  C     0.52294   0.85829   0.60034   0.00000  Uiso   1.00
C1148  C     0.49835   0.90751   0.91651   0.00000  Uiso   1.00
C1149  C     0.58557   0.95932   0.81361   0.00000  Uiso   1.00
C1150  C     0.41419   0.70746   0.68565   0.00000  Uiso   1.00
C1151  C     0.48069   0.88354   0.95909   0.00000  Uiso   1.00
C1152  C     0.58100   0.84165   0.52730   0.00000  Uiso   1.00
C1153  C     0.43126   0.88724   0.98249   0.00000  Uiso   1.00
C1154  C     0.62778   0.68923   0.77682   0.00000  Uiso   1.00
C1155  C     0.37228   0.97746   0.72276   0.00000  Uiso   1.00
C1156  C     0.62662   0.97967   0.77982   0.00000  Uiso   1.00
Cu1157 Cu    0.38022   0.83334   0.75000   0.00000  Uiso   1.00
Cu1158 Cu    0.61978   0.83333   0.75000   0.00000  Uiso   1.00
H1159  H     0.60790   0.83605   0.54539   0.00000  Uiso   1.00
H1160  H     0.40165   0.95946   0.70111   0.00000  Uiso   1.00
H1161  H     0.52980   0.78290   0.79554   0.00000  Uiso   1.00
H1162  H     0.47004   0.88413   0.70498   0.00000  Uiso   1.00
H1163  H     0.44290   0.78295   0.79553   0.00000  Uiso   1.00
H1164  H     0.55695   0.88407   0.70494   0.00000  Uiso   1.00
H1165  H     0.49335   0.87869   0.61725   0.00000  Uiso   1.00
H1166  H     0.53589   0.91784   0.90543   0.00000  Uiso   1.00
H1167  H     0.58791   0.92722   0.82278   0.00000  Uiso   1.00
H1168  H     0.41182   0.73963   0.67674   0.00000  Uiso   1.00
H1169  H     0.40648   0.90261   0.96669   0.00000  Uiso   1.00
H1170  H     0.44790   0.81848   0.60719   0.00000  Uiso   1.00
H1171  H     0.54924   0.84548   0.89007   0.00000  Uiso   1.00
H1172  H     0.64087   0.86707   0.61081   0.00000  Uiso   1.00
H1173  H     0.36272   0.82235   0.89333   0.00000  Uiso   1.00
H1174  H     0.33695   0.82503   0.97567   0.00000  Uiso   1.00
H1175  H     0.33884   0.89032   0.53240   0.00000  Uiso   1.00
H1176  H     0.59840   0.70721   0.79846   0.00000  Uiso   1.00
N1177  N     0.45069   0.83334   0.74999   0.00000  Uiso   1.00
N1178  N     0.54931   0.83332   0.75001   0.00000  Uiso   1.00
O1179  O     0.37291   0.77322   0.75000   0.00000  Uiso   1.00
O1180  O     0.47106   0.91649   0.89369   0.00000  Uiso   1.00
O1181  O     0.54857   0.97847   0.83216   0.00000  Uiso   1.00
O1182  O     0.45100   0.68831   0.66653   0.00000  Uiso   1.00
O1183  O     0.62709   0.89345   0.75000   0.00000  Uiso   1.00
O1184  O     0.62706   0.77321   0.75001   0.00000  Uiso   1.00
O1185  O     0.37294   0.89346   0.74999   0.00000  Uiso   1.00
O1186  O     0.35186   0.83334   0.81491   0.00000  Uiso   1.00
O1187  O     0.64814   0.83332   0.68509   0.00000  Uiso   1.00
O1188  O     0.60600   0.83333   0.81492   0.00000  Uiso   1.00
O1189  O     0.39400   0.83333   0.68508   0.00000  Uiso   1.00
O1190  O     0.54803   0.84285   0.62230   0.00000  Uiso   1.00
C1191  C     0.66716   0.75414   0.74850   0.00000  Uiso   1.00
C1192  C     0.70672   0.68704   0.71969   0.00000  Uiso   1.00
C1193  C     0.99931   0.95719   0.75203   0.00000  Uiso   1.00
C1194  C     0.66743   0.70950   0.74763   0.00000  Uiso   1.00
C1195  C     0.85056   0.80533   0.77526   0.00000  Uiso   1.00
C1196  C     0.81601   0.86155   0.72505   0.00000  Uiso   1.00
C1197  C     0.80097   0.80535   0.77525   0.00000  Uiso   1.00
C1198  C     0.86560   0.86154   0.72507   0.00000  Uiso   1.00
C1199  C     0.97250   0.83335   0.83633   0.00000  Uiso   1.00
C1200  C     0.69422   0.83437   0.66371   0.00000  Uiso   1.00
C1201  C     0.95759   0.83534   0.88596   0.00000  Uiso   1.00
C1202  C     0.99955   0.91254   0.75134   0.00000  Uiso   1.00
C1203  C     0.70996   0.84251   0.61484   0.00000  Uiso   1.00
C1204  C     0.97705   0.83127   0.95734   0.00000  Uiso   1.00
C1205  C     0.69689   0.87571   0.54878   0.00000  Uiso   1.00
C1206  C     0.99169   0.82942   0.91039   0.00000  Uiso   1.00
C1207  C     0.67878   0.86175   0.59314   0.00000  Uiso   1.00
C1208  C     0.90908   0.84435   0.90908   0.00000  Uiso   1.00
C1209  C     0.75904   0.83696   0.59142   0.00000  Uiso   1.00
C1210  C     0.89465   0.85061   0.95613   0.00000  Uiso   1.00
C1211  C     0.77918   0.85532   0.54891   0.00000  Uiso   1.00
C1212  C     0.92865   0.84099   0.98036   0.00000  Uiso   1.00
C1213  C     0.86604   0.84969   0.55133   0.00000  Uiso   1.00
C1214  C     0.74678   0.87236   0.52641   0.00000  Uiso   1.00
C1215  C     0.84645   0.86308   0.98003   0.00000  Uiso   1.00
C1216  C     0.83027   0.85558   0.52746   0.00000  Uiso   1.00
C1217  C     0.85627   0.85829   0.60034   0.00000  Uiso   1.00
C1218  C     0.83168   0.90751   0.91651   0.00000  Uiso   1.00
C1219  C     0.91891   0.95932   0.81361   0.00000  Uiso   1.00
C1220  C     0.74753   0.70746   0.68565   0.00000  Uiso   1.00
C1221  C     0.81403   0.88354   0.95909   0.00000  Uiso   1.00
C1222  C     0.91434   0.84165   0.52730   0.00000  Uiso   1.00
C1223  C     0.76460   0.88724   0.98249   0.00000  Uiso   1.00
C1224  C     0.96112   0.68923   0.77682   0.00000  Uiso   1.00
C1225  C     0.70561   0.97746   0.72276   0.00000  Uiso   1.00
C1226  C     0.95995   0.97967   0.77982   0.00000  Uiso   1.00
Cu1227 Cu    0.71355   0.83334   0.75000   0.00000  Uiso   1.00
Cu1228 Cu    0.95311   0.83333   0.75000   0.00000  Uiso   1.00
H1229  H     0.94123   0.83605   0.54539   0.00000  Uiso   1.00
H1230  H     0.73498   0.95946   0.70111   0.00000  Uiso   1.00
H1231  H     0.86314   0.78290   0.79554   0.00000  Uiso   1.00
H1232  H     0.80337   0.88413   0.70498   0.00000  Uiso   1.00
H1233  H     0.77624   0.78295   0.79553   0.00000  Uiso   1.00
H1234  H     0.89028   0.88407   0.70494   0.00000  Uiso   1.00
H1235  H     0.82668   0.87869   0.61725   0.00000  Uiso   1.00
H1236  H     0.86922   0.91784   0.90543   0.00000  Uiso   1.00
H1237  H     0.92124   0.92722   0.82278   0.00000  Uiso   1.00
H1238  H     0.74515   0.73963   0.67674   0.00000  Uiso   1.00
H1239  H     0.73982   0.90261   0.96669   0.00000  Uiso   1.00
H1240  H     0.78123   0.81848   0.60719   0.00000  Uiso   1.00
H1241  H     0.88258   0.84548   0.89007   0.00000  Uiso   1.00
H1242  H     0.97420   0.86707   0.61081   0.00000  Uiso   1.00
H1243  H     0.69605   0.82235   0.89333   0.00000  Uiso   1.00
H1244  H     0.67028   0.82503   0.97567   0.00000  Uiso   1.00
H1245  H     0.67218   0.89032   0.53240   0.00000  Uiso   1.00
H1246  H     0.93173   0.70721   0.79846   0.00000  Uiso   1.00
N1247  N     0.78403   0.83334   0.74999   0.00000  Uiso   1.00
N1248  N     0.88264   0.83332   0.75001   0.00000  Uiso   1.00
O1249  O     0.70625   0.77322   0.75000   0.00000  Uiso   1.00
O1250  O     0.80439   0.91649   0.89369   0.00000  Uiso   1.00
O1251  O     0.88190   0.97847   0.83216   0.00000  Uiso   1.00
O1252  O     0.78433   0.68831   0.66653   0.00000  Uiso   1.00
O1253  O     0.96042   0.89345   0.75000   0.00000  Uiso   1.00
O1254  O     0.96039   0.77321   0.75001   0.00000  Uiso   1.00
O1255  O     0.70628   0.89346   0.74999   0.00000  Uiso   1.00
O1256  O     0.68519   0.83334   0.81491   0.00000  Uiso   1.00
O1257  O     0.98148   0.83332   0.68509   0.00000  Uiso   1.00
O1258  O     0.93933   0.83333   0.81492   0.00000  Uiso   1.00
O1259  O     0.72733   0.83333   0.68508   0.00000  Uiso   1.00
O1260  O     0.88137   0.84285   0.62230   0.00000  Uiso   1.00
loop_
_geom_bond_atom_site_label_1
_geom_bond_atom_site_label_2
_geom_bond_distance
_geom_bond_site_symmetry_2
_ccdc_geom_bond_type
C1     C4      1.446   .     S
C1     O59     1.290   .     A
C1     O204    1.291   1_455 S
C2     C4      1.411   .     A
C2     C30     1.488   .     S
C2     C455    1.393   1_545 S
C3     C36     1.411   .     A
C3     C12     1.446   .     S
C3     C105    1.399   .     S
C4     C174    1.398   1_455 S
C5     N58     1.367   .     A
C5     C7      1.417   .     A
C5     H41     1.082   .     S
C6     H42     1.082   .     S
C6     N57     1.367   .     A
C6     C8      1.417   .     A
C7     H43     1.082   .     S
C7     N57     1.367   .     A
C8     N58     1.367   .     A
C8     H44     1.082   .     S
C9     O68     1.297   .     A
C9     C11     1.471   .     S
C9     O136    1.297   .     S
C10    O69     1.296   .     A
C10    C13     1.470   .     S
C10    O207    1.298   1_455 S
C11    C18     1.401   .     A
C11    C16     1.401   .     A
C12    O63     1.290   .     A
C12    O135    1.291   .     S
C13    C17     1.400   .     A
C13    C19     1.398   .     A
C14    C22     1.403   .     A
C14    C16     1.391   .     A
C14    H124    1.084   .     S
C15    H55     1.084   .     S
C15    C24     1.404   .     A
C15    C17     1.394   .     A
C16    H123    1.083   .     S
C17    H192    1.082   1_455 S
C18    H51     1.080   .     S
C18    C20     1.408   .     A
C19    H50     1.080   .     S
C19    C21     1.406   .     A
C20    C22     1.415   .     A
C20    C25     1.427   .     A
C21    C26     1.425   .     A
C21    C24     1.414   .     A
C22    C662    1.389   .     S
C23    C27     1.485   .     S
C23    C32     1.397   .     A
C23    C26     1.429   .     A
C24    C663    1.392   1_554 S
C25    C31     1.430   .     A
C25    C656    1.425   .     S
C26    C655    1.425   1_554 S
C27    H45     1.085   .     S
C27    O70     1.221   .     D
C28    H46     1.084   .     S
C28    O60     1.222   .     D
C28    C31     1.486   .     S
C29    C36     1.487   .     S
C29    O61     1.221   .     D
C29    H47     1.084   .     S
C30    O62     1.221   .     D
C30    H48     1.084   .     S
C31    C33     1.400   .     A
C32    H39     1.083   .     S
C32    C652    1.389   1_554 S
C33    H49     1.085   .     S
C33    C654    1.392   .     S
C34    H56     1.085   .     S
C34    C74     1.398   .     S
C34    C456    1.392   1_545 S
C35    H40     1.085   .     S
C35    C143    1.399   1_455 S
C35    C212    1.393   .     S
C36    C244    1.392   .     S
Cu37   O66     1.938   .     S
Cu37   O59     1.959   .     S
Cu37   O69     1.929   .     S
Cu37   N57     2.014   .     S
Cu37   O65     1.958   .     S
Cu37   Cu178   2.680   1_455 S
Cu38   O64     1.958   .     S
Cu38   O67     1.938   .     S
Cu38   O63     1.959   .     S
Cu38   N58     2.014   .     S
Cu38   O68     1.929   .     S
Cu38   Cu107   2.680   .     S
H52    C87     1.082   .     S
H53    C156    1.083   1_455 S
H54    C154    1.084   1_455 S
O64    C71     1.291   .     S
O65    C152    1.291   1_455 S
O66    C149    1.297   1_455 S
O67    C80     1.298   .     S
C71    C74     1.446   .     S
C71    O129    1.290   .     A
C72    C74     1.411   .     A
C72    C100    1.488   .     S
C72    C525    1.393   1_545 S
C73    C106    1.411   .     A
C73    C82     1.446   .     S
C73    C175    1.399   .     S
C75    N128    1.367   .     A
C75    C77     1.417   .     A
C75    H111    1.082   .     S
C76    H112    1.082   .     S
C76    N127    1.367   .     A
C76    C78     1.417   .     A
C77    H113    1.082   .     S
C77    N127    1.367   .     A
C78    N128    1.367   .     A
C78    H114    1.082   .     S
C79    O138    1.297   .     A
C79    C81     1.471   .     S
C79    O206    1.297   .     S
C80    O139    1.296   .     A
C80    C83     1.470   .     S
C81    C88     1.401   .     A
C81    C86     1.401   .     A
C82    O133    1.290   .     A
C82    O205    1.291   .     S
C83    C87     1.400   .     A
C83    C89     1.398   .     A
C84    C92     1.403   .     A
C84    C86     1.391   .     A
C84    H194    1.084   .     S
C85    H125    1.084   .     S
C85    C94     1.404   .     A
C85    C87     1.394   .     A
C86    H193    1.083   .     S
C88    H121    1.080   .     S
C88    C90     1.408   .     A
C89    H120    1.080   .     S
C89    C91     1.406   .     A
C90    C92     1.415   .     A
C90    C95     1.427   .     A
C91    C96     1.425   .     A
C91    C94     1.414   .     A
C92    C732    1.389   .     S
C93    C97     1.485   .     S
C93    C102    1.397   .     A
C93    C96     1.429   .     A
C94    C733    1.392   1_554 S
C95    C101    1.430   .     A
C95    C726    1.425   .     S
C96    C725    1.425   1_554 S
C97    H115    1.085   .     S
C97    O140    1.221   .     D
C98    H116    1.084   .     S
C98    O130    1.222   .     D
C98    C101    1.486   .     S
C99    C106    1.487   .     S
C99    O131    1.221   .     D
C99    H117    1.084   .     S
C100   O132    1.221   .     D
C100   H118    1.084   .     S
C101   C103    1.400   .     A
C102   H109    1.083   .     S
C102   C722    1.389   1_554 S
C103   H119    1.085   .     S
C103   C724    1.392   .     S
C104   H126    1.085   .     S
C104   C144    1.398   .     S
C104   C526    1.392   1_545 S
C105   H110    1.085   .     S
C105   C282    1.393   .     S
C106   C314    1.392   .     S
Cu107  O136    1.938   .     S
Cu107  O129    1.959   .     S
Cu107  O139    1.929   .     S
Cu107  N127    2.014   .     S
Cu107  O135    1.958   .     S
Cu108  O134    1.958   .     S
Cu108  O137    1.938   .     S
Cu108  O133    1.959   .     S
Cu108  N128    2.014   .     S
Cu108  O138    1.929   .     S
Cu108  Cu177   2.680   .     S
H122   C157    1.082   .     S
O134   C141    1.291   .     S
O137   C150    1.298   .     S
C141   C144    1.446   .     S
C141   O199    1.290   .     A
C142   C144    1.411   .     A
C142   C170    1.488   .     S
C142   C595    1.393   1_545 S
C143   C176    1.411   .     A
C143   C152    1.446   .     S
C143   C35     1.399   1_655 S
C145   N198    1.367   .     A
C145   C147    1.417   .     A
C145   H181    1.082   .     S
C146   H182    1.082   .     S
C146   N197    1.367   .     A
C146   C148    1.417   .     A
C147   H183    1.082   .     S
C147   N197    1.367   .     A
C148   N198    1.367   .     A
C148   H184    1.082   .     S
C149   O208    1.297   .     A
C149   C151    1.471   .     S
C149   O66     1.297   1_655 S
C150   O209    1.296   .     A
C150   C153    1.470   .     S
C151   C158    1.401   .     A
C151   C156    1.401   .     A
C152   O203    1.290   .     A
C152   O65     1.291   1_655 S
C153   C157    1.400   .     A
C153   C159    1.398   .     A
C154   C162    1.403   .     A
C154   C156    1.391   .     A
C154   H54     1.084   1_655 S
C155   H195    1.084   .     S
C155   C164    1.404   .     A
C155   C157    1.394   .     A
C156   H53     1.083   1_655 S
C158   H191    1.080   .     S
C158   C160    1.408   .     A
C159   H190    1.080   .     S
C159   C161    1.406   .     A
C160   C162    1.415   .     A
C160   C165    1.427   .     A
C161   C166    1.425   .     A
C161   C164    1.414   .     A
C162   C802    1.389   .     S
C163   C167    1.485   .     S
C163   C172    1.397   .     A
C163   C166    1.429   .     A
C164   C803    1.392   1_554 S
C165   C171    1.430   .     A
C165   C796    1.425   .     S
C166   C795    1.425   1_554 S
C167   H185    1.085   .     S
C167   O210    1.221   .     D
C168   H186    1.084   .     S
C168   O200    1.222   .     D
C168   C171    1.486   .     S
C169   C176    1.487   .     S
C169   O201    1.221   .     D
C169   H187    1.084   .     S
C170   O202    1.221   .     D
C170   H188    1.084   .     S
C171   C173    1.400   .     A
C172   H179    1.083   .     S
C172   C792    1.389   1_554 S
C173   H189    1.085   .     S
C173   C794    1.392   .     S
C174   H196    1.085   .     S
C174   C4      1.398   1_655 S
C174   C596    1.392   1_545 S
C175   H180    1.085   .     S
C175   C352    1.393   .     S
C176   C384    1.392   .     S
Cu177  O206    1.938   .     S
Cu177  O199    1.959   .     S
Cu177  O209    1.929   .     S
Cu177  N197    2.014   .     S
Cu177  O205    1.958   .     S
Cu178  O204    1.958   .     S
Cu178  O207    1.938   .     S
Cu178  O203    1.959   .     S
Cu178  N198    2.014   .     S
Cu178  O208    1.929   .     S
Cu178  Cu37    2.680   1_655 S
H192   C17     1.082   1_655 S
O204   C1      1.291   1_655 S
O207   C10     1.298   1_655 S
C211   C214    1.446   .     S
C211   O269    1.290   .     A
C211   O414    1.291   1_455 S
C212   C214    1.411   .     A
C212   C240    1.488   .     S
C213   C246    1.411   .     A
C213   C222    1.446   .     S
C213   C315    1.399   .     S
C214   C384    1.398   1_455 S
C215   N268    1.367   .     A
C215   C217    1.417   .     A
C215   H251    1.082   .     S
C216   H252    1.082   .     S
C216   N267    1.367   .     A
C216   C218    1.417   .     A
C217   H253    1.082   .     S
C217   N267    1.367   .     A
C218   N268    1.367   .     A
C218   H254    1.082   .     S
C219   O278    1.297   .     A
C219   C221    1.471   .     S
C219   O346    1.297   .     S
C220   O279    1.296   .     A
C220   C223    1.470   .     S
C220   O417    1.298   1_455 S
C221   C228    1.401   .     A
C221   C226    1.401   .     A
C222   O273    1.290   .     A
C222   O345    1.291   .     S
C223   C227    1.400   .     A
C223   C229    1.398   .     A
C224   C232    1.403   .     A
C224   C226    1.391   .     A
C224   H334    1.084   .     S
C225   H265    1.084   .     S
C225   C234    1.404   .     A
C225   C227    1.394   .     A
C226   H333    1.083   .     S
C227   H402    1.082   1_455 S
C228   H261    1.080   .     S
C228   C230    1.408   .     A
C229   H260    1.080   .     S
C229   C231    1.406   .     A
C230   C232    1.415   .     A
C230   C235    1.427   .     A
C231   C236    1.425   .     A
C231   C234    1.414   .     A
C232   C872    1.389   .     S
C233   C237    1.485   .     S
C233   C242    1.397   .     A
C233   C236    1.429   .     A
C234   C873    1.392   1_554 S
C235   C241    1.430   .     A
C235   C866    1.425   .     S
C236   C865    1.425   1_554 S
C237   H255    1.085   .     S
C237   O280    1.221   .     D
C238   H256    1.084   .     S
C238   O270    1.222   .     D
C238   C241    1.486   .     S
C239   C246    1.487   .     S
C239   O271    1.221   .     D
C239   H257    1.084   .     S
C240   O272    1.221   .     D
C240   H258    1.084   .     S
C241   C243    1.400   .     A
C242   H249    1.083   .     S
C242   C862    1.389   1_554 S
C243   H259    1.085   .     S
C243   C864    1.392   .     S
C244   H266    1.085   .     S
C244   C284    1.398   .     S
C245   H250    1.085   .     S
C245   C353    1.399   1_455 S
C245   C422    1.393   .     S
C246   C454    1.392   .     S
Cu247  O276    1.938   .     S
Cu247  O269    1.959   .     S
Cu247  O279    1.929   .     S
Cu247  N267    2.014   .     S
Cu247  O275    1.958   .     S
Cu247  Cu388   2.680   1_455 S
Cu248  O274    1.958   .     S
Cu248  O277    1.938   .     S
Cu248  O273    1.959   .     S
Cu248  N268    2.014   .     S
Cu248  O278    1.929   .     S
Cu248  Cu317   2.680   .     S
H262   C297    1.082   .     S
H263   C366    1.083   1_455 S
H264   C364    1.084   1_455 S
O274   C281    1.291   .     S
O275   C362    1.291   1_455 S
O276   C359    1.297   1_455 S
O277   C290    1.298   .     S
C281   C284    1.446   .     S
C281   O339    1.290   .     A
C282   C284    1.411   .     A
C282   C310    1.488   .     S
C283   C316    1.411   .     A
C283   C292    1.446   .     S
C283   C385    1.399   .     S
C285   N338    1.367   .     A
C285   C287    1.417   .     A
C285   H321    1.082   .     S
C286   H322    1.082   .     S
C286   N337    1.367   .     A
C286   C288    1.417   .     A
C287   H323    1.082   .     S
C287   N337    1.367   .     A
C288   N338    1.367   .     A
C288   H324    1.082   .     S
C289   O348    1.297   .     A
C289   C291    1.471   .     S
C289   O416    1.297   .     S
C290   O349    1.296   .     A
C290   C293    1.470   .     S
C291   C298    1.401   .     A
C291   C296    1.401   .     A
C292   O343    1.290   .     A
C292   O415    1.291   .     S
C293   C297    1.400   .     A
C293   C299    1.398   .     A
C294   C302    1.403   .     A
C294   C296    1.391   .     A
C294   H404    1.084   .     S
C295   H335    1.084   .     S
C295   C304    1.404   .     A
C295   C297    1.394   .     A
C296   H403    1.083   .     S
C298   H331    1.080   .     S
C298   C300    1.408   .     A
C299   H330    1.080   .     S
C299   C301    1.406   .     A
C300   C302    1.415   .     A
C300   C305    1.427   .     A
C301   C306    1.425   .     A
C301   C304    1.414   .     A
C302   C942    1.389   .     S
C303   C307    1.485   .     S
C303   C312    1.397   .     A
C303   C306    1.429   .     A
C304   C943    1.392   1_554 S
C305   C311    1.430   .     A
C305   C936    1.425   .     S
C306   C935    1.425   1_554 S
C307   H325    1.085   .     S
C307   O350    1.221   .     D
C308   H326    1.084   .     S
C308   O340    1.222   .     D
C308   C311    1.486   .     S
C309   C316    1.487   .     S
C309   O341    1.221   .     D
C309   H327    1.084   .     S
C310   O342    1.221   .     D
C310   H328    1.084   .     S
C311   C313    1.400   .     A
C312   H319    1.083   .     S
C312   C932    1.389   1_554 S
C313   H329    1.085   .     S
C313   C934    1.392   .     S
C314   H336    1.085   .     S
C314   C354    1.398   .     S
C315   H320    1.085   .     S
C315   C492    1.393   .     S
C316   C524    1.392   .     S
Cu317  O346    1.938   .     S
Cu317  O339    1.959   .     S
Cu317  O349    1.929   .     S
Cu317  N337    2.014   .     S
Cu317  O345    1.958   .     S
Cu318  O344    1.958   .     S
Cu318  O347    1.938   .     S
Cu318  O343    1.959   .     S
Cu318  N338    2.014   .     S
Cu318  O348    1.929   .     S
Cu318  Cu387   2.680   .     S
H332   C367    1.082   .     S
O344   C351    1.291   .     S
O347   C360    1.298   .     S
C351   C354    1.446   .     S
C351   O409    1.290   .     A
C352   C354    1.411   .     A
C352   C380    1.488   .     S
C353   C386    1.411   .     A
C353   C362    1.446   .     S
C353   C245    1.399   1_655 S
C355   N408    1.367   .     A
C355   C357    1.417   .     A
C355   H391    1.082   .     S
C356   H392    1.082   .     S
C356   N407    1.367   .     A
C356   C358    1.417   .     A
C357   H393    1.082   .     S
C357   N407    1.367   .     A
C358   N408    1.367   .     A
C358   H394    1.082   .     S
C359   O418    1.297   .     A
C359   C361    1.471   .     S
C359   O276    1.297   1_655 S
C360   O419    1.296   .     A
C360   C363    1.470   .     S
C361   C368    1.401   .     A
C361   C366    1.401   .     A
C362   O413    1.290   .     A
C362   O275    1.291   1_655 S
C363   C367    1.400   .     A
C363   C369    1.398   .     A
C364   C372    1.403   .     A
C364   C366    1.391   .     A
C364   H264    1.084   1_655 S
C365   H405    1.084   .     S
C365   C374    1.404   .     A
C365   C367    1.394   .     A
C366   H263    1.083   1_655 S
C368   H401    1.080   .     S
C368   C370    1.408   .     A
C369   H400    1.080   .     S
C369   C371    1.406   .     A
C370   C372    1.415   .     A
C370   C375    1.427   .     A
C371   C376    1.425   .     A
C371   C374    1.414   .     A
C372   C1012   1.389   .     S
C373   C377    1.485   .     S
C373   C382    1.397   .     A
C373   C376    1.429   .     A
C374   C1013   1.392   1_554 S
C375   C381    1.430   .     A
C375   C1006   1.425   .     S
C376   C1005   1.425   1_554 S
C377   H395    1.085   .     S
C377   O420    1.221   .     D
C378   H396    1.084   .     S
C378   O410    1.222   .     D
C378   C381    1.486   .     S
C379   C386    1.487   .     S
C379   O411    1.221   .     D
C379   H397    1.084   .     S
C380   O412    1.221   .     D
C380   H398    1.084   .     S
C381   C383    1.400   .     A
C382   H389    1.083   .     S
C382   C1002   1.389   1_554 S
C383   H399    1.085   .     S
C383   C1004   1.392   .     S
C384   H406    1.085   .     S
C384   C214    1.398   1_655 S
C385   H390    1.085   .     S
C385   C562    1.393   .     S
C386   C594    1.392   .     S
Cu387  O416    1.938   .     S
Cu387  O409    1.959   .     S
Cu387  O419    1.929   .     S
Cu387  N407    2.014   .     S
Cu387  O415    1.958   .     S
Cu388  O414    1.958   .     S
Cu388  O417    1.938   .     S
Cu388  O413    1.959   .     S
Cu388  N408    2.014   .     S
Cu388  O418    1.929   .     S
Cu388  Cu247   2.680   1_655 S
H402   C227    1.082   1_655 S
O414   C211    1.291   1_655 S
O417   C220    1.298   1_655 S
C421   C424    1.446   .     S
C421   O479    1.290   .     A
C421   O624    1.291   1_455 S
C422   C424    1.411   .     A
C422   C450    1.488   .     S
C423   C456    1.411   .     A
C423   C432    1.446   .     S
C423   C525    1.399   .     S
C424   C594    1.398   1_455 S
C425   N478    1.367   .     A
C425   C427    1.417   .     A
C425   H461    1.082   .     S
C426   H462    1.082   .     S
C426   N477    1.367   .     A
C426   C428    1.417   .     A
C427   H463    1.082   .     S
C427   N477    1.367   .     A
C428   N478    1.367   .     A
C428   H464    1.082   .     S
C429   O488    1.297   .     A
C429   C431    1.471   .     S
C429   O556    1.297   .     S
C430   O489    1.296   .     A
C430   C433    1.470   .     S
C430   O627    1.298   1_455 S
C431   C438    1.401   .     A
C431   C436    1.401   .     A
C432   O483    1.290   .     A
C432   O555    1.291   .     S
C433   C437    1.400   .     A
C433   C439    1.398   .     A
C434   C442    1.403   .     A
C434   C436    1.391   .     A
C434   H544    1.084   .     S
C435   H475    1.084   .     S
C435   C444    1.404   .     A
C435   C437    1.394   .     A
C436   H543    1.083   .     S
C437   H612    1.082   1_455 S
C438   H471    1.080   .     S
C438   C440    1.408   .     A
C439   H470    1.080   .     S
C439   C441    1.406   .     A
C440   C442    1.415   .     A
C440   C445    1.427   .     A
C441   C446    1.425   .     A
C441   C444    1.414   .     A
C442   C1082   1.389   .     S
C443   C447    1.485   .     S
C443   C452    1.397   .     A
C443   C446    1.429   .     A
C444   C1083   1.392   1_554 S
C445   C451    1.430   .     A
C445   C1076   1.425   .     S
C446   C1075   1.425   1_554 S
C447   H465    1.085   .     S
C447   O490    1.221   .     D
C448   H466    1.084   .     S
C448   O480    1.222   .     D
C448   C451    1.486   .     S
C449   C456    1.487   .     S
C449   O481    1.221   .     D
C449   H467    1.084   .     S
C450   O482    1.221   .     D
C450   H468    1.084   .     S
C451   C453    1.400   .     A
C452   H459    1.083   .     S
C452   C1072   1.389   1_554 S
C453   H469    1.085   .     S
C453   C1074   1.392   .     S
C454   H476    1.085   .     S
C454   C494    1.398   .     S
C455   H460    1.085   .     S
C455   C563    1.399   1_455 S
C455   C2      1.393   1_565 S
C456   C34     1.392   1_565 S
Cu457  O486    1.938   .     S
Cu457  O479    1.959   .     S
Cu457  O489    1.929   .     S
Cu457  N477    2.014   .     S
Cu457  O485    1.958   .     S
Cu457  Cu598   2.680   1_455 S
Cu458  O484    1.958   .     S
Cu458  O487    1.938   .     S
Cu458  O483    1.959   .     S
Cu458  N478    2.014   .     S
Cu458  O488    1.929   .     S
Cu458  Cu527   2.680   .     S
H472   C507    1.082   .     S
H473   C576    1.083   1_455 S
H474   C574    1.084   1_455 S
O484   C491    1.291   .     S
O485   C572    1.291   1_455 S
O486   C569    1.297   1_455 S
O487   C500    1.298   .     S
C491   C494    1.446   .     S
C491   O549    1.290   .     A
C492   C494    1.411   .     A
C492   C520    1.488   .     S
C493   C526    1.411   .     A
C493   C502    1.446   .     S
C493   C595    1.399   .     S
C495   N548    1.367   .     A
C495   C497    1.417   .     A
C495   H531    1.082   .     S
C496   H532    1.082   .     S
C496   N547    1.367   .     A
C496   C498    1.417   .     A
C497   H533    1.082   .     S
C497   N547    1.367   .     A
C498   N548    1.367   .     A
C498   H534    1.082   .     S
C499   O558    1.297   .     A
C499   C501    1.471   .     S
C499   O626    1.297   .     S
C500   O559    1.296   .     A
C500   C503    1.470   .     S
C501   C508    1.401   .     A
C501   C506    1.401   .     A
C502   O553    1.290   .     A
C502   O625    1.291   .     S
C503   C507    1.400   .     A
C503   C509    1.398   .     A
C504   C512    1.403   .     A
C504   C506    1.391   .     A
C504   H614    1.084   .     S
C505   H545    1.084   .     S
C505   C514    1.404   .     A
C505   C507    1.394   .     A
C506   H613    1.083   .     S
C508   H541    1.080   .     S
C508   C510    1.408   .     A
C509   H540    1.080   .     S
C509   C511    1.406   .     A
C510   C512    1.415   .     A
C510   C515    1.427   .     A
C511   C516    1.425   .     A
C511   C514    1.414   .     A
C512   C1152   1.389   .     S
C513   C517    1.485   .     S
C513   C522    1.397   .     A
C513   C516    1.429   .     A
C514   C1153   1.392   1_554 S
C515   C521    1.430   .     A
C515   C1146   1.425   .     S
C516   C1145   1.425   1_554 S
C517   H535    1.085   .     S
C517   O560    1.221   .     D
C518   H536    1.084   .     S
C518   O550    1.222   .     D
C518   C521    1.486   .     S
C519   C526    1.487   .     S
C519   O551    1.221   .     D
C519   H537    1.084   .     S
C520   O552    1.221   .     D
C520   H538    1.084   .     S
C521   C523    1.400   .     A
C522   H529    1.083   .     S
C522   C1142   1.389   1_554 S
C523   H539    1.085   .     S
C523   C1144   1.392   .     S
C524   H546    1.085   .     S
C524   C564    1.398   .     S
C525   H530    1.085   .     S
C525   C72     1.393   1_565 S
C526   C104    1.392   1_565 S
Cu527  O556    1.938   .     S
Cu527  O549    1.959   .     S
Cu527  O559    1.929   .     S
Cu527  N547    2.014   .     S
Cu527  O555    1.958   .     S
Cu528  O554    1.958   .     S
Cu528  O557    1.938   .     S
Cu528  O553    1.959   .     S
Cu528  N548    2.014   .     S
Cu528  O558    1.929   .     S
Cu528  Cu597   2.680   .     S
H542   C577    1.082   .     S
O554   C561    1.291   .     S
O557   C570    1.298   .     S
C561   C564    1.446   .     S
C561   O619    1.290   .     A
C562   C564    1.411   .     A
C562   C590    1.488   .     S
C563   C596    1.411   .     A
C563   C572    1.446   .     S
C563   C455    1.399   1_655 S
C565   N618    1.367   .     A
C565   C567    1.417   .     A
C565   H601    1.082   .     S
C566   H602    1.082   .     S
C566   N617    1.367   .     A
C566   C568    1.417   .     A
C567   H603    1.082   .     S
C567   N617    1.367   .     A
C568   N618    1.367   .     A
C568   H604    1.082   .     S
C569   O628    1.297   .     A
C569   C571    1.471   .     S
C569   O486    1.297   1_655 S
C570   O629    1.296   .     A
C570   C573    1.470   .     S
C571   C578    1.401   .     A
C571   C576    1.401   .     A
C572   O623    1.290   .     A
C572   O485    1.291   1_655 S
C573   C577    1.400   .     A
C573   C579    1.398   .     A
C574   C582    1.403   .     A
C574   C576    1.391   .     A
C574   H474    1.084   1_655 S
C575   H615    1.084   .     S
C575   C584    1.404   .     A
C575   C577    1.394   .     A
C576   H473    1.083   1_655 S
C578   H611    1.080   .     S
C578   C580    1.408   .     A
C579   H610    1.080   .     S
C579   C581    1.406   .     A
C580   C582    1.415   .     A
C580   C585    1.427   .     A
C581   C586    1.425   .     A
C581   C584    1.414   .     A
C582   C1222   1.389   .     S
C583   C587    1.485   .     S
C583   C592    1.397   .     A
C583   C586    1.429   .     A
C584   C1223   1.392   1_554 S
C585   C591    1.430   .     A
C585   C1216   1.425   .     S
C586   C1215   1.425   1_554 S
C587   H605    1.085   .     S
C587   O630    1.221   .     D
C588   H606    1.084   .     S
C588   O620    1.222   .     D
C588   C591    1.486   .     S
C589   C596    1.487   .     S
C589   O621    1.221   .     D
C589   H607    1.084   .     S
C590   O622    1.221   .     D
C590   H608    1.084   .     S
C591   C593    1.400   .     A
C592   H599    1.083   .     S
C592   C1212   1.389   1_554 S
C593   H609    1.085   .     S
C593   C1214   1.392   .     S
C594   H616    1.085   .     S
C594   C424    1.398   1_655 S
C595   H600    1.085   .     S
C595   C142    1.393   1_565 S
C596   C174    1.392   1_565 S
Cu597  O626    1.938   .     S
Cu597  O619    1.959   .     S
Cu597  O629    1.929   .     S
Cu597  N617    2.014   .     S
Cu597  O625    1.958   .     S
Cu598  O624    1.958   .     S
Cu598  O627    1.938   .     S
Cu598  O623    1.959   .     S
Cu598  N618    2.014   .     S
Cu598  O628    1.929   .     S
Cu598  Cu457   2.680   1_655 S
H612   C437    1.082   1_655 S
O624   C421    1.291   1_655 S
O627   C430    1.298   1_655 S
C631   C634    1.446   .     S
C631   O689    1.290   .     A
C631   O834    1.291   1_455 S
C632   C634    1.411   .     A
C632   C660    1.488   .     S
C632   C1085   1.393   1_545 S
C633   C666    1.411   .     A
C633   C642    1.446   .     S
C633   C735    1.399   .     S
C634   C804    1.398   1_455 S
C635   N688    1.367   .     A
C635   C637    1.417   .     A
C635   H671    1.082   .     S
C636   H672    1.082   .     S
C636   N687    1.367   .     A
C636   C638    1.417   .     A
C637   H673    1.082   .     S
C637   N687    1.367   .     A
C638   N688    1.367   .     A
C638   H674    1.082   .     S
C639   O698    1.297   .     A
C639   C641    1.471   .     S
C639   O766    1.297   .     S
C640   O699    1.296   .     A
C640   C643    1.470   .     S
C640   O837    1.298   1_455 S
C641   C648    1.401   .     A
C641   C646    1.401   .     A
C642   O693    1.290   .     A
C642   O765    1.291   .     S
C643   C647    1.400   .     A
C643   C649    1.398   .     A
C644   C652    1.403   .     A
C644   C646    1.391   .     A
C644   H754    1.084   .     S
C645   H685    1.084   .     S
C645   C654    1.404   .     A
C645   C647    1.394   .     A
C646   H753    1.083   .     S
C647   H822    1.082   1_455 S
C648   H681    1.080   .     S
C648   C650    1.408   .     A
C649   H680    1.080   .     S
C649   C651    1.406   .     A
C650   C652    1.415   .     A
C650   C655    1.427   .     A
C651   C656    1.425   .     A
C651   C654    1.414   .     A
C652   C32     1.389   1_556 S
C653   C657    1.485   .     S
C653   C662    1.397   .     A
C653   C656    1.429   .     A
C655   C661    1.430   .     A
C655   C26     1.425   1_556 S
C657   H675    1.085   .     S
C657   O700    1.221   .     D
C658   H676    1.084   .     S
C658   O690    1.222   .     D
C658   C661    1.486   .     S
C659   C666    1.487   .     S
C659   O691    1.221   .     D
C659   H677    1.084   .     S
C660   O692    1.221   .     D
C660   H678    1.084   .     S
C661   C663    1.400   .     A
C662   H669    1.083   .     S
C663   H679    1.085   .     S
C663   C24     1.392   1_556 S
C664   H686    1.085   .     S
C664   C704    1.398   .     S
C664   C1086   1.392   1_545 S
C665   H670    1.085   .     S
C665   C773    1.399   1_455 S
C665   C842    1.393   .     S
C666   C874    1.392   .     S
Cu667  O696    1.938   .     S
Cu667  O689    1.959   .     S
Cu667  O699    1.929   .     S
Cu667  N687    2.014   .     S
Cu667  O695    1.958   .     S
Cu667  Cu808   2.680   1_455 S
Cu668  O694    1.958   .     S
Cu668  O697    1.938   .     S
Cu668  O693    1.959   .     S
Cu668  N688    2.014   .     S
Cu668  O698    1.929   .     S
Cu668  Cu737   2.680   .     S
H682   C717    1.082   .     S
H683   C786    1.083   1_455 S
H684   C784    1.084   1_455 S
O694   C701    1.291   .     S
O695   C782    1.291   1_455 S
O696   C779    1.297   1_455 S
O697   C710    1.298   .     S
C701   C704    1.446   .     S
C701   O759    1.290   .     A
C702   C704    1.411   .     A
C702   C730    1.488   .     S
C702   C1155   1.393   1_545 S
C703   C736    1.411   .     A
C703   C712    1.446   .     S
C703   C805    1.399   .     S
C705   N758    1.367   .     A
C705   C707    1.417   .     A
C705   H741    1.082   .     S
C706   H742    1.082   .     S
C706   N757    1.367   .     A
C706   C708    1.417   .     A
C707   H743    1.082   .     S
C707   N757    1.367   .     A
C708   N758    1.367   .     A
C708   H744    1.082   .     S
C709   O768    1.297   .     A
C709   C711    1.471   .     S
C709   O836    1.297   .     S
C710   O769    1.296   .     A
C710   C713    1.470   .     S
C711   C718    1.401   .     A
C711   C716    1.401   .     A
C712   O763    1.290   .     A
C712   O835    1.291   .     S
C713   C717    1.400   .     A
C713   C719    1.398   .     A
C714   C722    1.403   .     A
C714   C716    1.391   .     A
C714   H824    1.084   .     S
C715   H755    1.084   .     S
C715   C724    1.404   .     A
C715   C717    1.394   .     A
C716   H823    1.083   .     S
C718   H751    1.080   .     S
C718   C720    1.408   .     A
C719   H750    1.080   .     S
C719   C721    1.406   .     A
C720   C722    1.415   .     A
C720   C725    1.427   .     A
C721   C726    1.425   .     A
C721   C724    1.414   .     A
C722   C102    1.389   1_556 S
C723   C727    1.485   .     S
C723   C732    1.397   .     A
C723   C726    1.429   .     A
C725   C731    1.430   .     A
C725   C96     1.425   1_556 S
C727   H745    1.085   .     S
C727   O770    1.221   .     D
C728   H746    1.084   .     S
C728   O760    1.222   .     D
C728   C731    1.486   .     S
C729   C736    1.487   .     S
C729   O761    1.221   .     D
C729   H747    1.084   .     S
C730   O762    1.221   .     D
C730   H748    1.084   .     S
C731   C733    1.400   .     A
C732   H739    1.083   .     S
C733   H749    1.085   .     S
C733   C94     1.392   1_556 S
C734   H756    1.085   .     S
C734   C774    1.398   .     S
C734   C1156   1.392   1_545 S
C735   H740    1.085   .     S
C735   C912    1.393   .     S
C736   C944    1.392   .     S
Cu737  O766    1.938   .     S
Cu737  O759    1.959   .     S
Cu737  O769    1.929   .     S
Cu737  N757    2.014   .     S
Cu737  O765    1.958   .     S
Cu738  O764    1.958   .     S
Cu738  O767    1.938   .     S
Cu738  O763    1.959   .     S
Cu738  N758    2.014   .     S
Cu738  O768    1.929   .     S
Cu738  Cu807   2.680   .     S
H752   C787    1.082   .     S
O764   C771    1.291   .     S
O767   C780    1.298   .     S
C771   C774    1.446   .     S
C771   O829    1.290   .     A
C772   C774    1.411   .     A
C772   C800    1.488   .     S
C772   C1225   1.393   1_545 S
C773   C806    1.411   .     A
C773   C782    1.446   .     S
C773   C665    1.399   1_655 S
C775   N828    1.367   .     A
C775   C777    1.417   .     A
C775   H811    1.082   .     S
C776   H812    1.082   .     S
C776   N827    1.367   .     A
C776   C778    1.417   .     A
C777   H813    1.082   .     S
C777   N827    1.367   .     A
C778   N828    1.367   .     A
C778   H814    1.082   .     S
C779   O838    1.297   .     A
C779   C781    1.471   .     S
C779   O696    1.297   1_655 S
C780   O839    1.296   .     A
C780   C783    1.470   .     S
C781   C788    1.401   .     A
C781   C786    1.401   .     A
C782   O833    1.290   .     A
C782   O695    1.291   1_655 S
C783   C787    1.400   .     A
C783   C789    1.398   .     A
C784   C792    1.403   .     A
C784   C786    1.391   .     A
C784   H684    1.084   1_655 S
C785   H825    1.084   .     S
C785   C794    1.404   .     A
C785   C787    1.394   .     A
C786   H683    1.083   1_655 S
C788   H821    1.080   .     S
C788   C790    1.408   .     A
C789   H820    1.080   .     S
C789   C791    1.406   .     A
C790   C792    1.415   .     A
C790   C795    1.427   .     A
C791   C796    1.425   .     A
C791   C794    1.414   .     A
C792   C172    1.389   1_556 S
C793   C797    1.485   .     S
C793   C802    1.397   .     A
C793   C796    1.429   .     A
C795   C801    1.430   .     A
C795   C166    1.425   1_556 S
C797   H815    1.085   .     S
C797   O840    1.221   .     D
C798   H816    1.084   .     S
C798   O830    1.222   .     D
C798   C801    1.486   .     S
C799   C806    1.487   .     S
C799   O831    1.221   .     D
C799   H817    1.084   .     S
C800   O832    1.221   .     D
C800   H818    1.084   .     S
C801   C803    1.400   .     A
C802   H809    1.083   .     S
C803   H819    1.085   .     S
C803   C164    1.392   1_556 S
C804   H826    1.085   .     S
C804   C634    1.398   1_655 S
C804   C1226   1.392   1_545 S
C805   H810    1.085   .     S
C805   C982    1.393   .     S
C806   C1014   1.392   .     S
Cu807  O836    1.938   .     S
Cu807  O829    1.959   .     S
Cu807  O839    1.929   .     S
Cu807  N827    2.014   .     S
Cu807  O835    1.958   .     S
Cu808  O834    1.958   .     S
Cu808  O837    1.938   .     S
Cu808  O833    1.959   .     S
Cu808  N828    2.014   .     S
Cu808  O838    1.929   .     S
Cu808  Cu667   2.680   1_655 S
H822   C647    1.082   1_655 S
O834   C631    1.291   1_655 S
O837   C640    1.298   1_655 S
C841   C844    1.446   .     S
C841   O899    1.290   .     A
C841   O1044   1.291   1_455 S
C842   C844    1.411   .     A
C842   C870    1.488   .     S
C843   C876    1.411   .     A
C843   C852    1.446   .     S
C843   C945    1.399   .     S
C844   C1014   1.398   1_455 S
C845   N898    1.367   .     A
C845   C847    1.417   .     A
C845   H881    1.082   .     S
C846   H882    1.082   .     S
C846   N897    1.367   .     A
C846   C848    1.417   .     A
C847   H883    1.082   .     S
C847   N897    1.367   .     A
C848   N898    1.367   .     A
C848   H884    1.082   .     S
C849   O908    1.297   .     A
C849   C851    1.471   .     S
C849   O976    1.297   .     S
C850   O909    1.296   .     A
C850   C853    1.470   .     S
C850   O1047   1.298   1_455 S
C851   C858    1.401   .     A
C851   C856    1.401   .     A
C852   O903    1.290   .     A
C852   O975    1.291   .     S
C853   C857    1.400   .     A
C853   C859    1.398   .     A
C854   C862    1.403   .     A
C854   C856    1.391   .     A
C854   H964    1.084   .     S
C855   H895    1.084   .     S
C855   C864    1.404   .     A
C855   C857    1.394   .     A
C856   H963    1.083   .     S
C857   H1032   1.082   1_455 S
C858   H891    1.080   .     S
C858   C860    1.408   .     A
C859   H890    1.080   .     S
C859   C861    1.406   .     A
C860   C862    1.415   .     A
C860   C865    1.427   .     A
C861   C866    1.425   .     A
C861   C864    1.414   .     A
C862   C242    1.389   1_556 S
C863   C867    1.485   .     S
C863   C872    1.397   .     A
C863   C866    1.429   .     A
C865   C871    1.430   .     A
C865   C236    1.425   1_556 S
C867   H885    1.085   .     S
C867   O910    1.221   .     D
C868   H886    1.084   .     S
C868   O900    1.222   .     D
C868   C871    1.486   .     S
C869   C876    1.487   .     S
C869   O901    1.221   .     D
C869   H887    1.084   .     S
C870   O902    1.221   .     D
C870   H888    1.084   .     S
C871   C873    1.400   .     A
C872   H879    1.083   .     S
C873   H889    1.085   .     S
C873   C234    1.392   1_556 S
C874   H896    1.085   .     S
C874   C914    1.398   .     S
C875   H880    1.085   .     S
C875   C983    1.399   1_455 S
C875   C1052   1.393   .     S
C876   C1084   1.392   .     S
Cu877  O906    1.938   .     S
Cu877  O899    1.959   .     S
Cu877  O909    1.929   .     S
Cu877  N897    2.014   .     S
Cu877  O905    1.958   .     S
Cu877  Cu1018  2.680   1_455 S
Cu878  O904    1.958   .     S
Cu878  O907    1.938   .     S
Cu878  O903    1.959   .     S
Cu878  N898    2.014   .     S
Cu878  O908    1.929   .     S
Cu878  Cu947   2.680   .     S
H892   C927    1.082   .     S
H893   C996    1.083   1_455 S
H894   C994    1.084   1_455 S
O904   C911    1.291   .     S
O905   C992    1.291   1_455 S
O906   C989    1.297   1_455 S
O907   C920    1.298   .     S
C911   C914    1.446   .     S
C911   O969    1.290   .     A
C912   C914    1.411   .     A
C912   C940    1.488   .     S
C913   C946    1.411   .     A
C913   C922    1.446   .     S
C913   C1015   1.399   .     S
C915   N968    1.367   .     A
C915   C917    1.417   .     A
C915   H951    1.082   .     S
C916   H952    1.082   .     S
C916   N967    1.367   .     A
C916   C918    1.417   .     A
C917   H953    1.082   .     S
C917   N967    1.367   .     A
C918   N968    1.367   .     A
C918   H954    1.082   .     S
C919   O978    1.297   .     A
C919   C921    1.471   .     S
C919   O1046   1.297   .     S
C920   O979    1.296   .     A
C920   C923    1.470   .     S
C921   C928    1.401   .     A
C921   C926    1.401   .     A
C922   O973    1.290   .     A
C922   O1045   1.291   .     S
C923   C927    1.400   .     A
C923   C929    1.398   .     A
C924   C932    1.403   .     A
C924   C926    1.391   .     A
C924   H1034   1.084   .     S
C925   H965    1.084   .     S
C925   C934    1.404   .     A
C925   C927    1.394   .     A
C926   H1033   1.083   .     S
C928   H961    1.080   .     S
C928   C930    1.408   .     A
C929   H960    1.080   .     S
C929   C931    1.406   .     A
C930   C932    1.415   .     A
C930   C935    1.427   .     A
C931   C936    1.425   .     A
C931   C934    1.414   .     A
C932   C312    1.389   1_556 S
C933   C937    1.485   .     S
C933   C942    1.397   .     A
C933   C936    1.429   .     A
C935   C941    1.430   .     A
C935   C306    1.425   1_556 S
C937   H955    1.085   .     S
C937   O980    1.221   .     D
C938   H956    1.084   .     S
C938   O970    1.222   .     D
C938   C941    1.486   .     S
C939   C946    1.487   .     S
C939   O971    1.221   .     D
C939   H957    1.084   .     S
C940   O972    1.221   .     D
C940   H958    1.084   .     S
C941   C943    1.400   .     A
C942   H949    1.083   .     S
C943   H959    1.085   .     S
C943   C304    1.392   1_556 S
C944   H966    1.085   .     S
C944   C984    1.398   .     S
C945   H950    1.085   .     S
C945   C1122   1.393   .     S
C946   C1154   1.392   .     S
Cu947  O976    1.938   .     S
Cu947  O969    1.959   .     S
Cu947  O979    1.929   .     S
Cu947  N967    2.014   .     S
Cu947  O975    1.958   .     S
Cu948  O974    1.958   .     S
Cu948  O977    1.938   .     S
Cu948  O973    1.959   .     S
Cu948  N968    2.014   .     S
Cu948  O978    1.929   .     S
Cu948  Cu1017  2.680   .     S
H962   C997    1.082   .     S
O974   C981    1.291   .     S
O977   C990    1.298   .     S
C981   C984    1.446   .     S
C981   O1039   1.290   .     A
C982   C984    1.411   .     A
C982   C1010   1.488   .     S
C983   C1016   1.411   .     A
C983   C992    1.446   .     S
C983   C875    1.399   1_655 S
C985   N1038   1.367   .     A
C985   C987    1.417   .     A
C985   H1021   1.082   .     S
C986   H1022   1.082   .     S
C986   N1037   1.367   .     A
C986   C988    1.417   .     A
C987   H1023   1.082   .     S
C987   N1037   1.367   .     A
C988   N1038   1.367   .     A
C988   H1024   1.082   .     S
C989   O1048   1.297   .     A
C989   C991    1.471   .     S
C989   O906    1.297   1_655 S
C990   O1049   1.296   .     A
C990   C993    1.470   .     S
C991   C998    1.401   .     A
C991   C996    1.401   .     A
C992   O1043   1.290   .     A
C992   O905    1.291   1_655 S
C993   C997    1.400   .     A
C993   C999    1.398   .     A
C994   C1002   1.403   .     A
C994   C996    1.391   .     A
C994   H894    1.084   1_655 S
C995   H1035   1.084   .     S
C995   C1004   1.404   .     A
C995   C997    1.394   .     A
C996   H893    1.083   1_655 S
C998   H1031   1.080   .     S
C998   C1000   1.408   .     A
C999   H1030   1.080   .     S
C999   C1001   1.406   .     A
C1000  C1002   1.415   .     A
C1000  C1005   1.427   .     A
C1001  C1006   1.425   .     A
C1001  C1004   1.414   .     A
C1002  C382    1.389   1_556 S
C1003  C1007   1.485   .     S
C1003  C1012   1.397   .     A
C1003  C1006   1.429   .     A
C1005  C1011   1.430   .     A
C1005  C376    1.425   1_556 S
C1007  H1025   1.085   .     S
C1007  O1050   1.221   .     D
C1008  H1026   1.084   .     S
C1008  O1040   1.222   .     D
C1008  C1011   1.486   .     S
C1009  C1016   1.487   .     S
C1009  O1041   1.221   .     D
C1009  H1027   1.084   .     S
C1010  O1042   1.221   .     D
C1010  H1028   1.084   .     S
C1011  C1013   1.400   .     A
C1012  H1019   1.083   .     S
C1013  H1029   1.085   .     S
C1013  C374    1.392   1_556 S
C1014  H1036   1.085   .     S
C1014  C844    1.398   1_655 S
C1015  H1020   1.085   .     S
C1015  C1192   1.393   .     S
C1016  C1224   1.392   .     S
Cu1017 O1046   1.938   .     S
Cu1017 O1039   1.959   .     S
Cu1017 O1049   1.929   .     S
Cu1017 N1037   2.014   .     S
Cu1017 O1045   1.958   .     S
Cu1018 O1044   1.958   .     S
Cu1018 O1047   1.938   .     S
Cu1018 O1043   1.959   .     S
Cu1018 N1038   2.014   .     S
Cu1018 O1048   1.929   .     S
Cu1018 Cu877   2.680   1_655 S
H1032  C857    1.082   1_655 S
O1044  C841    1.291   1_655 S
O1047  C850    1.298   1_655 S
C1051  C1054   1.446   .     S
C1051  O1109   1.290   .     A
C1051  O1254   1.291   1_455 S
C1052  C1054   1.411   .     A
C1052  C1080   1.488   .     S
C1053  C1086   1.411   .     A
C1053  C1062   1.446   .     S
C1053  C1155   1.399   .     S
C1054  C1224   1.398   1_455 S
C1055  N1108   1.367   .     A
C1055  C1057   1.417   .     A
C1055  H1091   1.082   .     S
C1056  H1092   1.082   .     S
C1056  N1107   1.367   .     A
C1056  C1058   1.417   .     A
C1057  H1093   1.082   .     S
C1057  N1107   1.367   .     A
C1058  N1108   1.367   .     A
C1058  H1094   1.082   .     S
C1059  O1118   1.297   .     A
C1059  C1061   1.471   .     S
C1059  O1186   1.297   .     S
C1060  O1119   1.296   .     A
C1060  C1063   1.470   .     S
C1060  O1257   1.298   1_455 S
C1061  C1068   1.401   .     A
C1061  C1066   1.401   .     A
C1062  O1113   1.290   .     A
C1062  O1185   1.291   .     S
C1063  C1067   1.400   .     A
C1063  C1069   1.398   .     A
C1064  C1072   1.403   .     A
C1064  C1066   1.391   .     A
C1064  H1174   1.084   .     S
C1065  H1105   1.084   .     S
C1065  C1074   1.404   .     A
C1065  C1067   1.394   .     A
C1066  H1173   1.083   .     S
C1067  H1242   1.082   1_455 S
C1068  H1101   1.080   .     S
C1068  C1070   1.408   .     A
C1069  H1100   1.080   .     S
C1069  C1071   1.406   .     A
C1070  C1072   1.415   .     A
C1070  C1075   1.427   .     A
C1071  C1076   1.425   .     A
C1071  C1074   1.414   .     A
C1072  C452    1.389   1_556 S
C1073  C1077   1.485   .     S
C1073  C1082   1.397   .     A
C1073  C1076   1.429   .     A
C1075  C1081   1.430   .     A
C1075  C446    1.425   1_556 S
C1077  H1095   1.085   .     S
C1077  O1120   1.221   .     D
C1078  H1096   1.084   .     S
C1078  O1110   1.222   .     D
C1078  C1081   1.486   .     S
C1079  C1086   1.487   .     S
C1079  O1111   1.221   .     D
C1079  H1097   1.084   .     S
C1080  O1112   1.221   .     D
C1080  H1098   1.084   .     S
C1081  C1083   1.400   .     A
C1082  H1089   1.083   .     S
C1083  H1099   1.085   .     S
C1083  C444    1.392   1_556 S
C1084  H1106   1.085   .     S
C1084  C1124   1.398   .     S
C1085  H1090   1.085   .     S
C1085  C1193   1.399   1_455 S
C1085  C632    1.393   1_565 S
C1086  C664    1.392   1_565 S
Cu1087 O1116   1.938   .     S
Cu1087 O1109   1.959   .     S
Cu1087 O1119   1.929   .     S
Cu1087 N1107   2.014   .     S
Cu1087 O1115   1.958   .     S
Cu1087 Cu1228  2.680   1_455 S
Cu1088 O1114   1.958   .     S
Cu1088 O1117   1.938   .     S
Cu1088 O1113   1.959   .     S
Cu1088 N1108   2.014   .     S
Cu1088 O1118   1.929   .     S
Cu1088 Cu1157  2.680   .     S
H1102  C1137   1.082   .     S
H1103  C1206   1.083   1_455 S
H1104  C1204   1.084   1_455 S
O1114  C1121   1.291   .     S
O1115  C1202   1.291   1_455 S
O1116  C1199   1.297   1_455 S
O1117  C1130   1.298   .     S
C1121  C1124   1.446   .     S
C1121  O1179   1.290   .     A
C1122  C1124   1.411   .     A
C1122  C1150   1.488   .     S
C1123  C1156   1.411   .     A
C1123  C1132   1.446   .     S
C1123  C1225   1.399   .     S
C1125  N1178   1.367   .     A
C1125  C1127   1.417   .     A
C1125  H1161   1.082   .     S
C1126  H1162   1.082   .     S
C1126  N1177   1.367   .     A
C1126  C1128   1.417   .     A
C1127  H1163   1.082   .     S
C1127  N1177   1.367   .     A
C1128  N1178   1.367   .     A
C1128  H1164   1.082   .     S
C1129  O1188   1.297   .     A
C1129  C1131   1.471   .     S
C1129  O1256   1.297   .     S
C1130  O1189   1.296   .     A
C1130  C1133   1.470   .     S
C1131  C1138   1.401   .     A
C1131  C1136   1.401   .     A
C1132  O1183   1.290   .     A
C1132  O1255   1.291   .     S
C1133  C1137   1.400   .     A
C1133  C1139   1.398   .     A
C1134  C1142   1.403   .     A
C1134  C1136   1.391   .     A
C1134  H1244   1.084   .     S
C1135  H1175   1.084   .     S
C1135  C1144   1.404   .     A
C1135  C1137   1.394   .     A
C1136  H1243   1.083   .     S
C1138  H1171   1.080   .     S
C1138  C1140   1.408   .     A
C1139  H1170   1.080   .     S
C1139  C1141   1.406   .     A
C1140  C1142   1.415   .     A
C1140  C1145   1.427   .     A
C1141  C1146   1.425   .     A
C1141  C1144   1.414   .     A
C1142  C522    1.389   1_556 S
C1143  C1147   1.485   .     S
C1143  C1152   1.397   .     A
C1143  C1146   1.429   .     A
C1145  C1151   1.430   .     A
C1145  C516    1.425   1_556 S
C1147  H1165   1.085   .     S
C1147  O1190   1.221   .     D
C1148  H1166   1.084   .     S
C1148  O1180   1.222   .     D
C1148  C1151   1.486   .     S
C1149  C1156   1.487   .     S
C1149  O1181   1.221   .     D
C1149  H1167   1.084   .     S
C1150  O1182   1.221   .     D
C1150  H1168   1.084   .     S
C1151  C1153   1.400   .     A
C1152  H1159   1.083   .     S
C1153  H1169   1.085   .     S
C1153  C514    1.392   1_556 S
C1154  H1176   1.085   .     S
C1154  C1194   1.398   .     S
C1155  H1160   1.085   .     S
C1155  C702    1.393   1_565 S
C1156  C734    1.392   1_565 S
Cu1157 O1186   1.938   .     S
Cu1157 O1179   1.959   .     S
Cu1157 O1189   1.929   .     S
Cu1157 N1177   2.014   .     S
Cu1157 O1185   1.958   .     S
Cu1158 O1184   1.958   .     S
Cu1158 O1187   1.938   .     S
Cu1158 O1183   1.959   .     S
Cu1158 N1178   2.014   .     S
Cu1158 O1188   1.929   .     S
Cu1158 Cu1227  2.680   .     S
H1172  C1207   1.082   .     S
O1184  C1191   1.291   .     S
O1187  C1200   1.298   .     S
C1191  C1194   1.446   .     S
C1191  O1249   1.290   .     A
C1192  C1194   1.411   .     A
C1192  C1220   1.488   .     S
C1193  C1226   1.411   .     A
C1193  C1202   1.446   .     S
C1193  C1085   1.399   1_655 S
C1195  N1248   1.367   .     A
C1195  C1197   1.417   .     A
C1195  H1231   1.082   .     S
C1196  H1232   1.082   .     S
C1196  N1247   1.367   .     A
C1196  C1198   1.417   .     A
C1197  H1233   1.082   .     S
C1197  N1247   1.367   .     A
C1198  N1248   1.367   .     A
C1198  H1234   1.082   .     S
C1199  O1258   1.297   .     A
C1199  C1201   1.471   .     S
C1199  O1116   1.297   1_655 S
C1200  O1259   1.296   .     A
C1200  C1203   1.470   .     S
C1201  C1208   1.401   .     A
C1201  C1206   1.401   .     A
C1202  O1253   1.290   .     A
C1202  O1115   1.291   1_655 S
C1203  C1207   1.400   .     A
C1203  C1209   1.398   .     A
C1204  C1212   1.403   .     A
C1204  C1206   1.391   .     A
C1204  H1104   1.084   1_655 S
C1205  H1245   1.084   .     S
C1205  C1214   1.404   .     A
C1205  C1207   1.394   .     A
C1206  H1103   1.083   1_655 S
C1208  H1241   1.080   .     S
C1208  C1210   1.408   .     A
C1209  H1240   1.080   .     S
C1209  C1211   1.406   .     A
C1210  C1212   1.415   .     A
C1210  C1215   1.427   .     A
C1211  C1216   1.425   .     A
C1211  C1214   1.414   .     A
C1212  C592    1.389   1_556 S
C1213  C1217   1.485   .     S
C1213  C1222   1.397   .     A
C1213  C1216   1.429   .     A
C1215  C1221   1.430   .     A
C1215  C586    1.425   1_556 S
C1217  H1235   1.085   .     S
C1217  O1260   1.221   .     D
C1218  H1236   1.084   .     S
C1218  O1250   1.222   .     D
C1218  C1221   1.486   .     S
C1219  C1226   1.487   .     S
C1219  O1251   1.221   .     D
C1219  H1237   1.084   .     S
C1220  O1252   1.221   .     D
C1220  H1238   1.084   .     S
C1221  C1223   1.400   .     A
C1222  H1229   1.083   .     S
C1223  H1239   1.085   .     S
C1223  C584    1.392   1_556 S
C1224  H1246   1.085   .     S
C1224  C1054   1.398   1_655 S
C1225  H1230   1.085   .     S
C1225  C772    1.393   1_565 S
C1226  C804    1.392   1_565 S
Cu1227 O1256   1.938   .     S
Cu1227 O1249   1.959   .     S
Cu1227 O1259   1.929   .     S
Cu1227 N1247   2.014   .     S
Cu1227 O1255   1.958   .     S
Cu1228 O1254   1.958   .     S
Cu1228 O1257   1.938   .     S
Cu1228 O1253   1.959   .     S
Cu1228 N1248   2.014   .     S
Cu1228 O1258   1.929   .     S
Cu1228 Cu1087  2.680   1_655 S
H1242  C1067   1.082   1_655 S
O1254  C1051   1.291   1_655 S
O1257  C1060   1.298   1_655 S
