data_str_m1_o1_o17_pcu_sym.97
_audit_creation_date              2020-01-03
_audit_creation_method            'Materials Studio'
_symmetry_space_group_name_H-M    'P1'
_symmetry_Int_Tables_number       1
_symmetry_cell_setting            triclinic
loop_
_symmetry_equiv_pos_as_xyz
  x,y,z
_cell_length_a                    36.7293
_cell_length_b                    36.6630
_cell_length_c                    34.3752
_cell_angle_alpha                 89.9989
_cell_angle_beta                  89.9988
_cell_angle_gamma                 90.0382
loop_
_atom_site_label
_atom_site_type_symbol
_atom_site_fract_x
_atom_site_fract_y
_atom_site_fract_z
_atom_site_U_iso_or_equiv
_atom_site_adp_type
_atom_site_occupancy
Br1    Br    0.07722   0.16845   0.45253   0.00000  Uiso   1.00
Br2    Br    0.28070   0.10852   0.04396   0.00000  Uiso   1.00
Br3    Br    0.08653   0.32190   0.95265   0.00000  Uiso   1.00
Br4    Br    0.42049   0.17096   0.04570   0.00000  Uiso   1.00
Br5    Br    0.31216   0.09483   0.95546   0.00000  Uiso   1.00
Br6    Br    0.21931   0.39147   0.04396   0.00000  Uiso   1.00
Br7    Br    0.41348   0.17809   0.95266   0.00000  Uiso   1.00
Br8    Br    0.07951   0.32904   0.04569   0.00000  Uiso   1.00
Br9    Br    0.48816   0.32700   0.39075   0.00000  Uiso   1.00
Br10   Br    0.01989   0.17482   0.60973   0.00000  Uiso   1.00
Br11   Br    0.17227   0.00042   0.39112   0.00000  Uiso   1.00
Br12   Br    0.41705   0.32527   0.54585   0.00000  Uiso   1.00
Br13   Br    0.32640   0.01284   0.61062   0.00000  Uiso   1.00
Br14   Br    0.01184   0.17300   0.39076   0.00000  Uiso   1.00
Br15   Br    0.48012   0.32518   0.60973   0.00000  Uiso   1.00
Br16   Br    0.32773   0.49957   0.39112   0.00000  Uiso   1.00
Br17   Br    0.17360   0.48716   0.61062   0.00000  Uiso   1.00
Br18   Br    0.25490   0.07736   0.88853   0.00000  Uiso   1.00
Br19   Br    0.19058   0.44801   0.10728   0.00000  Uiso   1.00
Br20   Br    0.42258   0.24290   0.89069   0.00000  Uiso   1.00
Br21   Br    0.07584   0.26638   0.10989   0.00000  Uiso   1.00
Br22   Br    0.24510   0.42264   0.88854   0.00000  Uiso   1.00
Br23   Br    0.34248   0.06395   0.45258   0.00000  Uiso   1.00
Br24   Br    0.30943   0.05198   0.10727   0.00000  Uiso   1.00
Br25   Br    0.07743   0.25709   0.89068   0.00000  Uiso   1.00
Br26   Br    0.42416   0.23362   0.10990   0.00000  Uiso   1.00
Br27   Br    0.16553   0.42624   0.54523   0.00000  Uiso   1.00
Br28   Br    0.42277   0.33155   0.45253   0.00000  Uiso   1.00
Br29   Br    0.08295   0.17473   0.54584   0.00000  Uiso   1.00
Br30   Br    0.15752   0.43605   0.45259   0.00000  Uiso   1.00
Br31   Br    0.33447   0.07376   0.54522   0.00000  Uiso   1.00
Br32   Br    0.18784   0.40517   0.95547   0.00000  Uiso   1.00
C33    C     0.48803   0.28094   0.41831   0.00000  Uiso   1.00
C34    C     0.22952   0.47379   0.08093   0.00000  Uiso   1.00
C35    C     0.22024   0.48441   0.54106   0.00000  Uiso   1.00
C36    C     0.48250   0.27866   0.45886   0.00000  Uiso   1.00
C37    C     0.01901   0.22232   0.54092   0.00000  Uiso   1.00
C38    C     0.21912   0.48691   0.45900   0.00000  Uiso   1.00
C39    C     0.27976   0.01559   0.54106   0.00000  Uiso   1.00
C40    C     0.23689   0.46895   0.95824   0.00000  Uiso   1.00
C41    C     0.26557   0.02969   0.04042   0.00000  Uiso   1.00
C42    C     0.02967   0.26573   0.95887   0.00000  Uiso   1.00
C43    C     0.47137   0.23247   0.04094   0.00000  Uiso   1.00
C44    C     0.26311   0.03105   0.95824   0.00000  Uiso   1.00
C45    C     0.46840   0.23998   0.91832   0.00000  Uiso   1.00
C46    C     0.23444   0.47031   0.04043   0.00000  Uiso   1.00
C47    C     0.47033   0.23427   0.95888   0.00000  Uiso   1.00
C48    C     0.02863   0.26753   0.04093   0.00000  Uiso   1.00
C49    C     0.09798   0.34802   0.25019   0.00000  Uiso   1.00
C50    C     0.40097   0.15264   0.74969   0.00000  Uiso   1.00
C51    C     0.15179   0.09768   0.25028   0.00000  Uiso   1.00
C52    C     0.34740   0.40099   0.74966   0.00000  Uiso   1.00
C53    C     0.40202   0.15198   0.25019   0.00000  Uiso   1.00
C54    C     0.09903   0.34736   0.74969   0.00000  Uiso   1.00
C55    C     0.34821   0.40232   0.25027   0.00000  Uiso   1.00
C56    C     0.03047   0.26305   0.08165   0.00000  Uiso   1.00
C57    C     0.15260   0.09901   0.74966   0.00000  Uiso   1.00
C58    C     0.09811   0.15206   0.75079   0.00000  Uiso   1.00
C59    C     0.40264   0.34922   0.24931   0.00000  Uiso   1.00
C60    C     0.15220   0.40175   0.75065   0.00000  Uiso   1.00
C61    C     0.34784   0.09854   0.24970   0.00000  Uiso   1.00
C62    C     0.40189   0.34794   0.75079   0.00000  Uiso   1.00
C63    C     0.09736   0.15078   0.24931   0.00000  Uiso   1.00
C64    C     0.34780   0.09825   0.75065   0.00000  Uiso   1.00
C65    C     0.15216   0.40146   0.24970   0.00000  Uiso   1.00
C66    C     0.00000   0.25000   0.47941   0.00000  Uiso   1.00
C67    C     0.24170   0.46781   0.91757   0.00000  Uiso   1.00
C68    C     0.00000   0.25000   0.52040   0.00000  Uiso   1.00
C69    C     0.25000  -0.00000   0.47956   0.00000  Uiso   1.00
C70    C     0.25000   0.00000   0.52056   0.00000  Uiso   1.00
C71    C     0.25000  -0.00000   0.97879   0.00000  Uiso   1.00
C72    C     0.25000  -0.00000   0.01984   0.00000  Uiso   1.00
C73    C     0.00000   0.25000   0.97942   0.00000  Uiso   1.00
C74    C     0.00000   0.25000   0.02042   0.00000  Uiso   1.00
C75    C     0.17604   0.38007   0.18358   0.00000  Uiso   1.00
C76    C     0.20459   0.34984   0.18466   0.00000  Uiso   1.00
C77    C     0.32572   0.11773   0.81800   0.00000  Uiso   1.00
C78    C     0.27048   0.02620   0.08093   0.00000  Uiso   1.00
C79    C     0.29450   0.14472   0.81252   0.00000  Uiso   1.00
C80    C     0.09778   0.15096   0.17428   0.00000  Uiso   1.00
C81    C     0.11261   0.18786   0.16147   0.00000  Uiso   1.00
C82    C     0.38053   0.32310   0.81620   0.00000  Uiso   1.00
C83    C     0.35913   0.28861   0.80628   0.00000  Uiso   1.00
C84    C     0.32397   0.11992   0.18358   0.00000  Uiso   1.00
C85    C     0.29541   0.15015   0.18465   0.00000  Uiso   1.00
C86    C     0.17428   0.38227   0.81800   0.00000  Uiso   1.00
C87    C     0.20550   0.35528   0.81252   0.00000  Uiso   1.00
C88    C     0.40222   0.34903   0.17428   0.00000  Uiso   1.00
C89    C     0.03160   0.26001   0.91832   0.00000  Uiso   1.00
C90    C     0.38738   0.31213   0.16148   0.00000  Uiso   1.00
C91    C     0.11947   0.17690   0.81620   0.00000  Uiso   1.00
C92    C     0.14087   0.21139   0.80628   0.00000  Uiso   1.00
C93    C     0.17364   0.11589   0.81822   0.00000  Uiso   1.00
C94    C     0.15527   0.09306   0.84988   0.00000  Uiso   1.00
C95    C     0.33194   0.38997   0.17893   0.00000  Uiso   1.00
C96    C     0.29347   0.37538   0.18489   0.00000  Uiso   1.00
C97    C     0.10961   0.33283   0.82152   0.00000  Uiso   1.00
C98    C     0.08420   0.35534   0.84728   0.00000  Uiso   1.00
C99    C     0.38183   0.17787   0.18498   0.00000  Uiso   1.00
C100   C     0.46953   0.23695   0.08165   0.00000  Uiso   1.00
C101   C     0.37041   0.21632   0.19763   0.00000  Uiso   1.00
C102   C     0.32636   0.38411   0.81823   0.00000  Uiso   1.00
C103   C     0.34473   0.40694   0.84988   0.00000  Uiso   1.00
C104   C     0.16806   0.11003   0.17893   0.00000  Uiso   1.00
C105   C     0.20653   0.12460   0.18488   0.00000  Uiso   1.00
C106   C     0.39039   0.16717   0.82152   0.00000  Uiso   1.00
C107   C     0.41579   0.14466   0.84728   0.00000  Uiso   1.00
C108   C     0.11817   0.32213   0.18498   0.00000  Uiso   1.00
C109   C     0.12957   0.28367   0.19762   0.00000  Uiso   1.00
C110   C     0.40782   0.14572   0.67563   0.00000  Uiso   1.00
C111   C    -0.00000   0.25000   0.39818   0.00000  Uiso   1.00
C112   C     0.44615   0.13141   0.66849   0.00000  Uiso   1.00
C113   C     0.07305   0.36987   0.31540   0.00000  Uiso   1.00
C114   C     0.03934   0.39249   0.30579   0.00000  Uiso   1.00
C115   C     0.35980   0.41400   0.67761   0.00000  Uiso   1.00
C116   C     0.37800   0.45116   0.67480   0.00000  Uiso   1.00
C117   C     0.13595   0.07971   0.32021   0.00000  Uiso   1.00
C118   C     0.10836   0.04859   0.31788   0.00000  Uiso   1.00
C119   C     0.09219   0.35428   0.67563   0.00000  Uiso   1.00
C120   C     0.05386   0.36859   0.66849   0.00000  Uiso   1.00
C121   C     0.42695   0.13013   0.31540   0.00000  Uiso   1.00
C122   C     0.00000   0.25000   0.60174   0.00000  Uiso   1.00
C123   C     0.46065   0.10751   0.30580   0.00000  Uiso   1.00
C124   C     0.14020   0.08600   0.67761   0.00000  Uiso   1.00
C125   C     0.12200   0.04884   0.67481   0.00000  Uiso   1.00
C126   C     0.36405   0.42029   0.32021   0.00000  Uiso   1.00
C127   C     0.39164   0.45141   0.31787   0.00000  Uiso   1.00
C128   C     0.41299   0.35569   0.32267   0.00000  Uiso   1.00
C129   C     0.38959   0.32892   0.34590   0.00000  Uiso   1.00
C130   C     0.07032   0.12758   0.68823   0.00000  Uiso   1.00
C131   C     0.03697   0.10780   0.70446   0.00000  Uiso   1.00
C132   C     0.36530   0.07689   0.31769   0.00000  Uiso   1.00
C133   C     0.25000  -0.00000   0.39829   0.00000  Uiso   1.00
C134   C     0.34124   0.09611   0.34764   0.00000  Uiso   1.00
C135   C     0.12864   0.42728   0.68665   0.00000  Uiso   1.00
C136   C     0.10417   0.45799   0.70127   0.00000  Uiso   1.00
C137   C     0.08702   0.14432   0.32267   0.00000  Uiso   1.00
C138   C     0.11041   0.17109   0.34590   0.00000  Uiso   1.00
C139   C     0.42968   0.37242   0.68823   0.00000  Uiso   1.00
C140   C     0.46303   0.39220   0.70445   0.00000  Uiso   1.00
C141   C     0.13470   0.42310   0.31769   0.00000  Uiso   1.00
C142   C     0.15875   0.40388   0.34764   0.00000  Uiso   1.00
C143   C     0.37137   0.07272   0.68665   0.00000  Uiso   1.00
C144   C     0.01454   0.22018   0.58162   0.00000  Uiso   1.00
C145   C     0.25000   0.00000   0.60185   0.00000  Uiso   1.00
C146   C     0.39583   0.04201   0.70127   0.00000  Uiso   1.00
C147   C     0.25000  -0.00000   0.89773   0.00000  Uiso   1.00
C148   C     0.25000  -0.00000   0.10138   0.00000  Uiso   1.00
C149   C     0.00000   0.25000   0.89820   0.00000  Uiso   1.00
C150   C     0.00000   0.25000   0.10175   0.00000  Uiso   1.00
C151   C     0.04089   0.19734   0.47930   0.00000  Uiso   1.00
C152   C     0.45761   0.30139   0.52018   0.00000  Uiso   1.00
C153   C     0.30789   0.03304   0.47938   0.00000  Uiso   1.00
C154   C     0.19367   0.46444   0.52019   0.00000  Uiso   1.00
C155   C     0.45911   0.30266   0.47930   0.00000  Uiso   1.00
C156   C     0.21764   0.49296   0.41847   0.00000  Uiso   1.00
C157   C     0.04240   0.19861   0.52018   0.00000  Uiso   1.00
C158   C     0.19211   0.46696   0.47939   0.00000  Uiso   1.00
C159   C     0.30633   0.03557   0.52018   0.00000  Uiso   1.00
C160   C     0.22091   0.43982   0.97916   0.00000  Uiso   1.00
C161   C     0.27704   0.06096   0.01972   0.00000  Uiso   1.00
C162   C     0.05503   0.28769   0.97932   0.00000  Uiso   1.00
C163   C     0.44636   0.21047   0.02018   0.00000  Uiso   1.00
C164   C     0.27909   0.06018   0.97916   0.00000  Uiso   1.00
C165   C     0.22297   0.43904   0.01972   0.00000  Uiso   1.00
C166   C     0.44498   0.21230   0.97933   0.00000  Uiso   1.00
C167   C     0.28119   0.01127   0.58183   0.00000  Uiso   1.00
C168   C     0.05364   0.28953   0.02017   0.00000  Uiso   1.00
C169   C     0.25000  -0.00000   0.35585   0.00000  Uiso   1.00
C170   C     0.25000   0.00000   0.64421   0.00000  Uiso   1.00
C171   C    -0.00000   0.25000   0.35580   0.00000  Uiso   1.00
C172   C     0.00000   0.25000   0.64418   0.00000  Uiso   1.00
C173   C     0.00000   0.25000   0.85582   0.00000  Uiso   1.00
C174   C     0.00000   0.25000   0.14417   0.00000  Uiso   1.00
C175   C     0.25000  -0.00000   0.85563   0.00000  Uiso   1.00
C176   C     0.25000  -0.00000   0.14403   0.00000  Uiso   1.00
C177   C     0.17976   0.06962   0.25045   0.00000  Uiso   1.00
C178   C     0.01197   0.21906   0.41831   0.00000  Uiso   1.00
C179   C     0.32015   0.43010   0.74953   0.00000  Uiso   1.00
C180   C     0.43032   0.17980   0.25036   0.00000  Uiso   1.00
C181   C     0.06990   0.32015   0.74953   0.00000  Uiso   1.00
C182   C     0.32024   0.43038   0.25045   0.00000  Uiso   1.00
C183   C     0.17985   0.06990   0.74953   0.00000  Uiso   1.00
C184   C     0.06968   0.32020   0.25036   0.00000  Uiso   1.00
C185   C     0.43010   0.17984   0.74953   0.00000  Uiso   1.00
C186   C     0.18023   0.42987   0.75033   0.00000  Uiso   1.00
C187   C     0.31972   0.07029   0.24964   0.00000  Uiso   1.00
C188   C     0.42985   0.31974   0.75046   0.00000  Uiso   1.00
C189   C     0.48546   0.27982   0.58162   0.00000  Uiso   1.00
C190   C     0.07028   0.18015   0.24926   0.00000  Uiso   1.00
C191   C     0.31977   0.07013   0.75033   0.00000  Uiso   1.00
C192   C     0.18028   0.42971   0.24964   0.00000  Uiso   1.00
C193   C     0.07015   0.18026   0.75046   0.00000  Uiso   1.00
C194   C     0.42972   0.31985   0.24927   0.00000  Uiso   1.00
C195   C     0.14933   0.37726   0.21760   0.00000  Uiso   1.00
C196   C     0.35252   0.12034   0.78406   0.00000  Uiso   1.00
C197   C     0.11335   0.13924   0.21362   0.00000  Uiso   1.00
C198   C     0.37813   0.35091   0.78309   0.00000  Uiso   1.00
C199   C     0.35068   0.12274   0.21760   0.00000  Uiso   1.00
C200   C     0.28236   0.00703   0.41847   0.00000  Uiso   1.00
C201   C     0.14748   0.37966   0.78406   0.00000  Uiso   1.00
C202   C     0.38665   0.36076   0.21362   0.00000  Uiso   1.00
C203   C     0.12187   0.14909   0.78309   0.00000  Uiso   1.00
C204   C     0.14845   0.12108   0.78327   0.00000  Uiso   1.00
C205   C     0.35623   0.38425   0.21489   0.00000  Uiso   1.00
C206   C     0.11887   0.35381   0.78444   0.00000  Uiso   1.00
C207   C     0.37796   0.15009   0.21809   0.00000  Uiso   1.00
C208   C     0.35155   0.37891   0.78327   0.00000  Uiso   1.00
C209   C     0.14377   0.11575   0.21489   0.00000  Uiso   1.00
C210   C     0.38113   0.14619   0.78444   0.00000  Uiso   1.00
C211   C     0.21881   0.48873   0.58183   0.00000  Uiso   1.00
C212   C     0.12204   0.34991   0.21809   0.00000  Uiso   1.00
C213   C     0.39268   0.13351   0.71491   0.00000  Uiso   1.00
C214   C     0.10098   0.37189   0.28237   0.00000  Uiso   1.00
C215   C     0.36889   0.39512   0.71594   0.00000  Uiso   1.00
C216   C     0.13210   0.10487   0.28488   0.00000  Uiso   1.00
C217   C     0.10733   0.36649   0.71491   0.00000  Uiso   1.00
C218   C     0.39902   0.12811   0.28237   0.00000  Uiso   1.00
C219   C     0.13112   0.10488   0.71594   0.00000  Uiso   1.00
C220   C     0.36790   0.39513   0.28487   0.00000  Uiso   1.00
C221   C     0.39379   0.36664   0.28495   0.00000  Uiso   1.00
C222   C     0.25830   0.03219   0.91757   0.00000  Uiso   1.00
C223   C     0.10107   0.12871   0.71830   0.00000  Uiso   1.00
C224   C     0.37119   0.10146   0.28238   0.00000  Uiso   1.00
C225   C     0.13062   0.39694   0.71706   0.00000  Uiso   1.00
C226   C     0.10621   0.13337   0.28495   0.00000  Uiso   1.00
C227   C     0.39894   0.37129   0.71830   0.00000  Uiso   1.00
C228   C     0.12880   0.39853   0.28239   0.00000  Uiso   1.00
C229   C     0.36939   0.10306   0.71707   0.00000  Uiso   1.00
C230   C     0.01750   0.22134   0.45886   0.00000  Uiso   1.00
C231   C     0.48100   0.27768   0.54092   0.00000  Uiso   1.00
C232   C     0.28088   0.01309   0.45900   0.00000  Uiso   1.00
H233   H     0.22186   0.35177   0.15832   0.00000  Uiso   1.00
H234   H     0.33902   0.12242   0.84644   0.00000  Uiso   1.00
H235   H     0.13274   0.09451   0.34804   0.00000  Uiso   1.00
H236   H     0.04585   0.36252   0.63808   0.00000  Uiso   1.00
H237   H     0.03430   0.35511   0.68843   0.00000  Uiso   1.00
H238   H     0.05266   0.39853   0.67275   0.00000  Uiso   1.00
H239   H     0.11031   0.36241   0.65138   0.00000  Uiso   1.00
H240   H     0.09251   0.32428   0.67262   0.00000  Uiso   1.00
H241   H     0.45306   0.07852   0.30106   0.00000  Uiso   1.00
H242   H     0.47418   0.11814   0.27922   0.00000  Uiso   1.00
H243   H     0.48029   0.10897   0.33031   0.00000  Uiso   1.00
H244   H     0.43541   0.15858   0.32140   0.00000  Uiso   1.00
H245   H     0.10467   0.19295   0.13082   0.00000  Uiso   1.00
H246   H     0.41578   0.12108   0.34365   0.00000  Uiso   1.00
H247   H     0.12348   0.03888   0.64442   0.00000  Uiso   1.00
H248   H     0.13634   0.02937   0.69414   0.00000  Uiso   1.00
H249   H     0.09291   0.05024   0.68326   0.00000  Uiso   1.00
H250   H     0.13288   0.10322   0.65231   0.00000  Uiso   1.00
H251   H     0.16982   0.08277   0.67334   0.00000  Uiso   1.00
H252   H     0.41974   0.44064   0.31488   0.00000  Uiso   1.00
H253   H     0.38549   0.46913   0.29249   0.00000  Uiso   1.00
H254   H     0.39029   0.46817   0.34469   0.00000  Uiso   1.00
H255   H     0.33660   0.43231   0.32295   0.00000  Uiso   1.00
H256   H     0.10105   0.20972   0.17997   0.00000  Uiso   1.00
H257   H     0.36727   0.40549   0.34803   0.00000  Uiso   1.00
H258   H     0.36502   0.34265   0.35761   0.00000  Uiso   1.00
H259   H     0.38073   0.30574   0.32742   0.00000  Uiso   1.00
H260   H     0.40558   0.31779   0.37050   0.00000  Uiso   1.00
H261   H     0.44000   0.34330   0.31716   0.00000  Uiso   1.00
H262   H     0.42008   0.37957   0.34087   0.00000  Uiso   1.00
H263   H     0.04493   0.08144   0.71789   0.00000  Uiso   1.00
H264   H     0.02286   0.12465   0.72655   0.00000  Uiso   1.00
H265   H     0.01764   0.10200   0.68045   0.00000  Uiso   1.00
H266   H     0.06277   0.15553   0.67907   0.00000  Uiso   1.00
H267   H     0.14277   0.18855   0.16353   0.00000  Uiso   1.00
H268   H     0.07753   0.11347   0.66098   0.00000  Uiso   1.00
H269   H     0.35553   0.11976   0.36076   0.00000  Uiso   1.00
H270   H     0.31568   0.10600   0.33410   0.00000  Uiso   1.00
H271   H     0.33388   0.07681   0.37099   0.00000  Uiso   1.00
H272   H     0.35239   0.05060   0.30963   0.00000  Uiso   1.00
H273   H     0.39137   0.06828   0.33105   0.00000  Uiso   1.00
H274   H     0.07774   0.44701   0.71173   0.00000  Uiso   1.00
H275   H     0.11748   0.47292   0.72549   0.00000  Uiso   1.00
H276   H     0.09850   0.47717   0.67709   0.00000  Uiso   1.00
H277   H     0.15602   0.43817   0.67972   0.00000  Uiso   1.00
H278   H     0.10267   0.13021   0.15149   0.00000  Uiso   1.00
H279   H     0.11754   0.41850   0.65834   0.00000  Uiso   1.00
H280   H     0.13499   0.15736   0.35760   0.00000  Uiso   1.00
H281   H     0.11927   0.19426   0.32741   0.00000  Uiso   1.00
H282   H     0.09442   0.18222   0.37049   0.00000  Uiso   1.00
H283   H     0.06000   0.15670   0.31717   0.00000  Uiso   1.00
H284   H     0.07993   0.12044   0.34088   0.00000  Uiso   1.00
H285   H     0.45508   0.41856   0.71788   0.00000  Uiso   1.00
H286   H     0.47714   0.37535   0.72655   0.00000  Uiso   1.00
H287   H     0.48236   0.39799   0.68044   0.00000  Uiso   1.00
H288   H     0.43723   0.34447   0.67907   0.00000  Uiso   1.00
H289   H     0.06777   0.15122   0.17387   0.00000  Uiso   1.00
H290   H     0.42247   0.38653   0.66098   0.00000  Uiso   1.00
H291   H     0.14447   0.38023   0.36075   0.00000  Uiso   1.00
H292   H     0.18432   0.39401   0.33410   0.00000  Uiso   1.00
H293   H     0.16610   0.42318   0.37100   0.00000  Uiso   1.00
H294   H     0.14761   0.44940   0.30963   0.00000  Uiso   1.00
H295   H     0.10863   0.43172   0.33105   0.00000  Uiso   1.00
H296   H     0.42226   0.05299   0.71173   0.00000  Uiso   1.00
H297   H     0.38252   0.02707   0.72549   0.00000  Uiso   1.00
H298   H     0.40150   0.02283   0.67709   0.00000  Uiso   1.00
H299   H     0.34398   0.06183   0.67972   0.00000  Uiso   1.00
H300   H     0.33011   0.29534   0.80077   0.00000  Uiso   1.00
H301   H     0.38246   0.08150   0.65835   0.00000  Uiso   1.00
H302   H     0.37067   0.27517   0.78011   0.00000  Uiso   1.00
H303   H     0.36056   0.26914   0.83098   0.00000  Uiso   1.00
H304   H     0.40915   0.31568   0.82260   0.00000  Uiso   1.00
H305   H     0.22172   0.35272   0.21109   0.00000  Uiso   1.00
H306   H     0.37057   0.33395   0.84424   0.00000  Uiso   1.00
H307   H     0.27814   0.14820   0.15832   0.00000  Uiso   1.00
H308   H     0.27829   0.14727   0.21109   0.00000  Uiso   1.00
H309   H     0.30765   0.17763   0.18469   0.00000  Uiso   1.00
H310   H     0.33870   0.11975   0.15543   0.00000  Uiso   1.00
H311   H     0.30881   0.09389   0.18318   0.00000  Uiso   1.00
H312   H     0.19494   0.32703   0.80963   0.00000  Uiso   1.00
H313   H     0.22134   0.36232   0.78603   0.00000  Uiso   1.00
H314   H     0.22400   0.35635   0.83802   0.00000  Uiso   1.00
H315   H     0.18598   0.40991   0.82117   0.00000  Uiso   1.00
H316   H     0.19235   0.32236   0.18472   0.00000  Uiso   1.00
H317   H     0.16097   0.37757   0.84644   0.00000  Uiso   1.00
H318   H     0.39532   0.30704   0.13083   0.00000  Uiso   1.00
H319   H     0.39894   0.29028   0.17998   0.00000  Uiso   1.00
H320   H     0.35722   0.31145   0.16354   0.00000  Uiso   1.00
H321   H     0.39733   0.36978   0.15148   0.00000  Uiso   1.00
H322   H     0.43222   0.34876   0.17387   0.00000  Uiso   1.00
H323   H     0.12933   0.22483   0.78010   0.00000  Uiso   1.00
H324   H     0.13944   0.23086   0.83097   0.00000  Uiso   1.00
H325   H     0.16989   0.20466   0.80077   0.00000  Uiso   1.00
H326   H     0.09086   0.18432   0.82260   0.00000  Uiso   1.00
H327   H     0.16131   0.38025   0.15544   0.00000  Uiso   1.00
H328   H     0.12943   0.16605   0.84424   0.00000  Uiso   1.00
H329   H     0.12870   0.10492   0.85851   0.00000  Uiso   1.00
H330   H     0.15056   0.06482   0.83941   0.00000  Uiso   1.00
H331   H     0.17304   0.09188   0.87595   0.00000  Uiso   1.00
H332   H     0.19961   0.10248   0.81008   0.00000  Uiso   1.00
H333   H     0.18263   0.14250   0.83018   0.00000  Uiso   1.00
H334   H     0.29435   0.34635   0.19411   0.00000  Uiso   1.00
H335   H     0.27807   0.39147   0.20657   0.00000  Uiso   1.00
H336   H     0.27866   0.37728   0.15683   0.00000  Uiso   1.00
H337   H     0.33108   0.41914   0.17056   0.00000  Uiso   1.00
H338   H     0.19121   0.40610   0.18319   0.00000  Uiso   1.00
H339   H     0.34153   0.37572   0.15265   0.00000  Uiso   1.00
H340   H     0.09872   0.37916   0.85976   0.00000  Uiso   1.00
H341   H     0.06047   0.36538   0.83041   0.00000  Uiso   1.00
H342   H     0.07380   0.33822   0.87135   0.00000  Uiso   1.00
H343   H     0.09652   0.30624   0.81512   0.00000  Uiso   1.00
H344   H     0.13426   0.32482   0.83799   0.00000  Uiso   1.00
H345   H     0.34777   0.21542   0.21901   0.00000  Uiso   1.00
H346   H     0.39366   0.23112   0.21079   0.00000  Uiso   1.00
H347   H     0.36120   0.23214   0.17191   0.00000  Uiso   1.00
H348   H     0.41032   0.17829   0.17433   0.00000  Uiso   1.00
H349   H     0.30506   0.17297   0.80963   0.00000  Uiso   1.00
H350   H     0.36596   0.17083   0.15880   0.00000  Uiso   1.00
H351   H     0.37130   0.39508   0.85851   0.00000  Uiso   1.00
H352   H     0.34944   0.43518   0.83941   0.00000  Uiso   1.00
H353   H     0.32696   0.40812   0.87595   0.00000  Uiso   1.00
H354   H     0.30039   0.39752   0.81008   0.00000  Uiso   1.00
H355   H     0.31737   0.35750   0.83018   0.00000  Uiso   1.00
H356   H     0.20567   0.15363   0.19410   0.00000  Uiso   1.00
H357   H     0.22193   0.10850   0.20656   0.00000  Uiso   1.00
H358   H     0.22134   0.12269   0.15682   0.00000  Uiso   1.00
H359   H     0.16891   0.08085   0.17055   0.00000  Uiso   1.00
H360   H     0.27865   0.13768   0.78603   0.00000  Uiso   1.00
H361   H     0.15847   0.12429   0.15266   0.00000  Uiso   1.00
H362   H     0.40127   0.12083   0.85975   0.00000  Uiso   1.00
H363   H     0.43953   0.13462   0.83041   0.00000  Uiso   1.00
H364   H     0.42618   0.16177   0.87135   0.00000  Uiso   1.00
H365   H     0.40348   0.19376   0.81512   0.00000  Uiso   1.00
H366   H     0.36574   0.17518   0.83799   0.00000  Uiso   1.00
H367   H     0.15220   0.28457   0.21901   0.00000  Uiso   1.00
H368   H     0.10632   0.26889   0.21077   0.00000  Uiso   1.00
H369   H     0.13879   0.26786   0.17191   0.00000  Uiso   1.00
H370   H     0.08968   0.32172   0.17432   0.00000  Uiso   1.00
H371   H     0.27600   0.14365   0.83802   0.00000  Uiso   1.00
H372   H     0.13405   0.32917   0.15880   0.00000  Uiso   1.00
H373   H     0.45416   0.13748   0.63808   0.00000  Uiso   1.00
H374   H     0.46571   0.14489   0.68843   0.00000  Uiso   1.00
H375   H     0.44735   0.10147   0.67276   0.00000  Uiso   1.00
H376   H     0.38970   0.13759   0.65138   0.00000  Uiso   1.00
H377   H     0.40750   0.17572   0.67262   0.00000  Uiso   1.00
H378   H     0.04693   0.42147   0.30105   0.00000  Uiso   1.00
H379   H     0.02582   0.38186   0.27922   0.00000  Uiso   1.00
H380   H     0.01971   0.39102   0.33030   0.00000  Uiso   1.00
H381   H     0.06459   0.34142   0.32140   0.00000  Uiso   1.00
H382   H     0.31401   0.09009   0.82117   0.00000  Uiso   1.00
H383   H     0.08421   0.37892   0.34365   0.00000  Uiso   1.00
H384   H     0.37652   0.46112   0.64442   0.00000  Uiso   1.00
H385   H     0.36367   0.47063   0.69414   0.00000  Uiso   1.00
H386   H     0.40710   0.44976   0.68326   0.00000  Uiso   1.00
H387   H     0.36713   0.39678   0.65231   0.00000  Uiso   1.00
H388   H     0.33018   0.41724   0.67334   0.00000  Uiso   1.00
H389   H     0.08025   0.05937   0.31490   0.00000  Uiso   1.00
H390   H     0.11450   0.03087   0.29250   0.00000  Uiso   1.00
H391   H     0.10970   0.03184   0.34470   0.00000  Uiso   1.00
H392   H     0.16339   0.06769   0.32295   0.00000  Uiso   1.00
O393   O     0.25000  -0.00000   0.25000   0.00000  Uiso   1.00
O394   O     0.25000   0.46963   0.66245   0.00000  Uiso   1.00
O395   O     0.46964   0.25000   0.33755   0.00000  Uiso   1.00
O396   O     0.03037   0.25000   0.66245   0.00000  Uiso   1.00
O397   O     0.00000   0.21963   0.83755   0.00000  Uiso   1.00
O398   O     0.00000   0.28036   0.16245   0.00000  Uiso   1.00
O399   O     0.28037  -0.00000   0.83755   0.00000  Uiso   1.00
O400   O     0.21964  -0.00000   0.16245   0.00000  Uiso   1.00
O401   O     0.00000   0.28036   0.83755   0.00000  Uiso   1.00
O402   O     0.00000   0.21963   0.16245   0.00000  Uiso   1.00
O403   O     0.21964  -0.00000   0.83755   0.00000  Uiso   1.00
O404   O     0.25000  -0.00000   0.75000   0.00000  Uiso   1.00
O405   O     0.28037  -0.00000   0.16245   0.00000  Uiso   1.00
O406   O     0.20725   0.07307   0.27302   0.00000  Uiso   1.00
O407   O     0.29276   0.42692   0.72698   0.00000  Uiso   1.00
O408   O     0.42693   0.20724   0.27302   0.00000  Uiso   1.00
O409   O     0.07308   0.29275   0.72698   0.00000  Uiso   1.00
O410   O     0.29276   0.42692   0.27302   0.00000  Uiso   1.00
O411   O     0.20725   0.07307   0.72698   0.00000  Uiso   1.00
O412   O     0.07308   0.29275   0.27302   0.00000  Uiso   1.00
O413   O     0.42693   0.20724   0.72698   0.00000  Uiso   1.00
O414   O     0.20725   0.42692   0.72698   0.00000  Uiso   1.00
O415   O     0.00000   0.25000   0.25000   0.00000  Uiso   1.00
O416   O     0.29276   0.07307   0.27302   0.00000  Uiso   1.00
O417   O     0.42693   0.29275   0.72698   0.00000  Uiso   1.00
O418   O     0.07308   0.20724   0.27302   0.00000  Uiso   1.00
O419   O     0.29276   0.07307   0.72698   0.00000  Uiso   1.00
O420   O     0.20725   0.42692   0.27302   0.00000  Uiso   1.00
O421   O     0.07308   0.20724   0.72698   0.00000  Uiso   1.00
O422   O     0.42693   0.29275   0.27302   0.00000  Uiso   1.00
O423   O     0.45725   0.32307   0.77302   0.00000  Uiso   1.00
O424   O     0.04276   0.17692   0.22698   0.00000  Uiso   1.00
O425   O     0.17693   0.45724   0.77302   0.00000  Uiso   1.00
O426   O     0.00000   0.25000   0.75000   0.00000  Uiso   1.00
O427   O     0.32308   0.04275   0.22698   0.00000  Uiso   1.00
O428   O     0.04276   0.17692   0.77302   0.00000  Uiso   1.00
O429   O     0.45725   0.32307   0.22698   0.00000  Uiso   1.00
O430   O     0.32308   0.04275   0.77302   0.00000  Uiso   1.00
O431   O     0.17693   0.45724   0.22698   0.00000  Uiso   1.00
O432   O     0.45725   0.17692   0.22698   0.00000  Uiso   1.00
O433   O     0.04276   0.32307   0.77302   0.00000  Uiso   1.00
O434   O     0.17693   0.04275   0.22698   0.00000  Uiso   1.00
O435   O     0.32308   0.45724   0.77302   0.00000  Uiso   1.00
O436   O     0.04276   0.32307   0.22698   0.00000  Uiso   1.00
O437   O     0.25000   0.46963   0.33755   0.00000  Uiso   1.00
O438   O     0.45725   0.17692   0.77302   0.00000  Uiso   1.00
O439   O     0.32308   0.45724   0.22698   0.00000  Uiso   1.00
O440   O     0.17693   0.04275   0.77302   0.00000  Uiso   1.00
O441   O     0.25000   0.03036   0.66245   0.00000  Uiso   1.00
O442   O     0.03037   0.25000   0.33755   0.00000  Uiso   1.00
O443   O     0.46964   0.25000   0.66245   0.00000  Uiso   1.00
O444   O     0.25000   0.03036   0.33755   0.00000  Uiso   1.00
Zn445  Zn    0.20660  -0.00000   0.21735   0.00000  Uiso   1.00
Zn446  Zn    0.04341   0.25000   0.28265   0.00000  Uiso   1.00
Zn447  Zn    0.25000   0.45659   0.71735   0.00000  Uiso   1.00
Zn448  Zn    0.25000   0.04340   0.28265   0.00000  Uiso   1.00
Zn449  Zn    0.04341   0.25000   0.71735   0.00000  Uiso   1.00
Zn450  Zn    0.45660   0.25000   0.28265   0.00000  Uiso   1.00
Zn451  Zn    0.25000   0.04340   0.71735   0.00000  Uiso   1.00
Zn452  Zn    0.25000   0.45659   0.28265   0.00000  Uiso   1.00
Zn453  Zn    0.29341  -0.00000   0.78265   0.00000  Uiso   1.00
Zn454  Zn    0.00000   0.20659   0.21735   0.00000  Uiso   1.00
Zn455  Zn    0.00000   0.29340   0.78265   0.00000  Uiso   1.00
Zn456  Zn    0.29341  -0.00000   0.21735   0.00000  Uiso   1.00
Zn457  Zn    0.20660  -0.00000   0.78265   0.00000  Uiso   1.00
Zn458  Zn    0.00000   0.29340   0.21735   0.00000  Uiso   1.00
Zn459  Zn    0.00000   0.20659   0.78265   0.00000  Uiso   1.00
Zn460  Zn    0.45660   0.25000   0.71735   0.00000  Uiso   1.00
Br461  Br    0.57722   0.16845   0.45253   0.00000  Uiso   1.00
Br462  Br    0.78070   0.10852   0.04396   0.00000  Uiso   1.00
Br463  Br    0.58653   0.32190   0.95265   0.00000  Uiso   1.00
Br464  Br    0.92049   0.17096   0.04570   0.00000  Uiso   1.00
Br465  Br    0.81216   0.09483   0.95546   0.00000  Uiso   1.00
Br466  Br    0.71931   0.39147   0.04396   0.00000  Uiso   1.00
Br467  Br    0.91348   0.17809   0.95266   0.00000  Uiso   1.00
Br468  Br    0.57951   0.32904   0.04569   0.00000  Uiso   1.00
Br469  Br    0.98816   0.32700   0.39075   0.00000  Uiso   1.00
Br470  Br    0.51989   0.17482   0.60973   0.00000  Uiso   1.00
Br471  Br    0.67227   0.00042   0.39112   0.00000  Uiso   1.00
Br472  Br    0.91705   0.32527   0.54585   0.00000  Uiso   1.00
Br473  Br    0.82640   0.01284   0.61062   0.00000  Uiso   1.00
Br474  Br    0.51184   0.17300   0.39076   0.00000  Uiso   1.00
Br475  Br    0.98012   0.32518   0.60973   0.00000  Uiso   1.00
Br476  Br    0.82773   0.49957   0.39112   0.00000  Uiso   1.00
Br477  Br    0.67360   0.48716   0.61062   0.00000  Uiso   1.00
Br478  Br    0.75490   0.07736   0.88853   0.00000  Uiso   1.00
Br479  Br    0.69058   0.44801   0.10728   0.00000  Uiso   1.00
Br480  Br    0.92258   0.24290   0.89069   0.00000  Uiso   1.00
Br481  Br    0.57584   0.26638   0.10989   0.00000  Uiso   1.00
Br482  Br    0.74510   0.42264   0.88854   0.00000  Uiso   1.00
Br483  Br    0.84248   0.06395   0.45258   0.00000  Uiso   1.00
Br484  Br    0.80943   0.05198   0.10727   0.00000  Uiso   1.00
Br485  Br    0.57743   0.25709   0.89068   0.00000  Uiso   1.00
Br486  Br    0.92416   0.23362   0.10990   0.00000  Uiso   1.00
Br487  Br    0.66553   0.42624   0.54523   0.00000  Uiso   1.00
Br488  Br    0.92277   0.33155   0.45253   0.00000  Uiso   1.00
Br489  Br    0.58295   0.17473   0.54584   0.00000  Uiso   1.00
Br490  Br    0.65752   0.43605   0.45259   0.00000  Uiso   1.00
Br491  Br    0.83447   0.07376   0.54522   0.00000  Uiso   1.00
Br492  Br    0.68784   0.40517   0.95547   0.00000  Uiso   1.00
C493   C     0.98803   0.28094   0.41831   0.00000  Uiso   1.00
C494   C     0.72952   0.47379   0.08093   0.00000  Uiso   1.00
C495   C     0.72024   0.48441   0.54106   0.00000  Uiso   1.00
C496   C     0.98250   0.27866   0.45886   0.00000  Uiso   1.00
C497   C     0.51901   0.22232   0.54092   0.00000  Uiso   1.00
C498   C     0.71912   0.48691   0.45900   0.00000  Uiso   1.00
C499   C     0.77976   0.01559   0.54106   0.00000  Uiso   1.00
C500   C     0.73689   0.46895   0.95824   0.00000  Uiso   1.00
C501   C     0.76557   0.02969   0.04042   0.00000  Uiso   1.00
C502   C     0.52967   0.26573   0.95887   0.00000  Uiso   1.00
C503   C     0.97137   0.23247   0.04094   0.00000  Uiso   1.00
C504   C     0.76311   0.03105   0.95824   0.00000  Uiso   1.00
C505   C     0.96840   0.23998   0.91832   0.00000  Uiso   1.00
C506   C     0.73444   0.47031   0.04043   0.00000  Uiso   1.00
C507   C     0.97033   0.23427   0.95888   0.00000  Uiso   1.00
C508   C     0.52863   0.26753   0.04093   0.00000  Uiso   1.00
C509   C     0.59798   0.34802   0.25019   0.00000  Uiso   1.00
C510   C     0.90097   0.15264   0.74969   0.00000  Uiso   1.00
C511   C     0.65179   0.09768   0.25028   0.00000  Uiso   1.00
C512   C     0.84740   0.40099   0.74966   0.00000  Uiso   1.00
C513   C     0.90202   0.15198   0.25019   0.00000  Uiso   1.00
C514   C     0.59903   0.34736   0.74969   0.00000  Uiso   1.00
C515   C     0.84821   0.40232   0.25027   0.00000  Uiso   1.00
C516   C     0.53047   0.26305   0.08165   0.00000  Uiso   1.00
C517   C     0.65260   0.09901   0.74966   0.00000  Uiso   1.00
C518   C     0.59811   0.15206   0.75079   0.00000  Uiso   1.00
C519   C     0.90264   0.34922   0.24931   0.00000  Uiso   1.00
C520   C     0.65220   0.40175   0.75065   0.00000  Uiso   1.00
C521   C     0.84784   0.09854   0.24970   0.00000  Uiso   1.00
C522   C     0.90189   0.34794   0.75079   0.00000  Uiso   1.00
C523   C     0.59736   0.15078   0.24931   0.00000  Uiso   1.00
C524   C     0.84780   0.09825   0.75065   0.00000  Uiso   1.00
C525   C     0.65216   0.40146   0.24970   0.00000  Uiso   1.00
C526   C     0.50000   0.25000   0.47941   0.00000  Uiso   1.00
C527   C     0.74170   0.46781   0.91757   0.00000  Uiso   1.00
C528   C     0.50000   0.25000   0.52040   0.00000  Uiso   1.00
C529   C     0.75000  -0.00000   0.47956   0.00000  Uiso   1.00
C530   C     0.75000   0.00000   0.52056   0.00000  Uiso   1.00
C531   C     0.75000  -0.00000   0.97879   0.00000  Uiso   1.00
C532   C     0.75000  -0.00000   0.01984   0.00000  Uiso   1.00
C533   C     0.50000   0.25000   0.97942   0.00000  Uiso   1.00
C534   C     0.50000   0.25000   0.02042   0.00000  Uiso   1.00
C535   C     0.67604   0.38007   0.18358   0.00000  Uiso   1.00
C536   C     0.70459   0.34984   0.18466   0.00000  Uiso   1.00
C537   C     0.82572   0.11773   0.81800   0.00000  Uiso   1.00
C538   C     0.77048   0.02620   0.08093   0.00000  Uiso   1.00
C539   C     0.79450   0.14472   0.81252   0.00000  Uiso   1.00
C540   C     0.59778   0.15096   0.17428   0.00000  Uiso   1.00
C541   C     0.61261   0.18786   0.16147   0.00000  Uiso   1.00
C542   C     0.88053   0.32310   0.81620   0.00000  Uiso   1.00
C543   C     0.85913   0.28861   0.80628   0.00000  Uiso   1.00
C544   C     0.82397   0.11992   0.18358   0.00000  Uiso   1.00
C545   C     0.79541   0.15015   0.18465   0.00000  Uiso   1.00
C546   C     0.67428   0.38227   0.81800   0.00000  Uiso   1.00
C547   C     0.70550   0.35528   0.81252   0.00000  Uiso   1.00
C548   C     0.90222   0.34903   0.17428   0.00000  Uiso   1.00
C549   C     0.53160   0.26001   0.91832   0.00000  Uiso   1.00
C550   C     0.88738   0.31213   0.16148   0.00000  Uiso   1.00
C551   C     0.61947   0.17690   0.81620   0.00000  Uiso   1.00
C552   C     0.64087   0.21139   0.80628   0.00000  Uiso   1.00
C553   C     0.67364   0.11589   0.81822   0.00000  Uiso   1.00
C554   C     0.65527   0.09306   0.84988   0.00000  Uiso   1.00
C555   C     0.83194   0.38997   0.17893   0.00000  Uiso   1.00
C556   C     0.79347   0.37538   0.18489   0.00000  Uiso   1.00
C557   C     0.60961   0.33283   0.82152   0.00000  Uiso   1.00
C558   C     0.58420   0.35534   0.84728   0.00000  Uiso   1.00
C559   C     0.88183   0.17787   0.18498   0.00000  Uiso   1.00
C560   C     0.96953   0.23695   0.08165   0.00000  Uiso   1.00
C561   C     0.87041   0.21632   0.19763   0.00000  Uiso   1.00
C562   C     0.82636   0.38411   0.81823   0.00000  Uiso   1.00
C563   C     0.84473   0.40694   0.84988   0.00000  Uiso   1.00
C564   C     0.66806   0.11003   0.17893   0.00000  Uiso   1.00
C565   C     0.70653   0.12460   0.18488   0.00000  Uiso   1.00
C566   C     0.89039   0.16717   0.82152   0.00000  Uiso   1.00
C567   C     0.91579   0.14466   0.84728   0.00000  Uiso   1.00
C568   C     0.61817   0.32213   0.18498   0.00000  Uiso   1.00
C569   C     0.62957   0.28367   0.19762   0.00000  Uiso   1.00
C570   C     0.90782   0.14572   0.67563   0.00000  Uiso   1.00
C571   C     0.50000   0.25000   0.39818   0.00000  Uiso   1.00
C572   C     0.94615   0.13141   0.66849   0.00000  Uiso   1.00
C573   C     0.57305   0.36987   0.31540   0.00000  Uiso   1.00
C574   C     0.53934   0.39249   0.30579   0.00000  Uiso   1.00
C575   C     0.85980   0.41400   0.67761   0.00000  Uiso   1.00
C576   C     0.87800   0.45116   0.67480   0.00000  Uiso   1.00
C577   C     0.63595   0.07971   0.32021   0.00000  Uiso   1.00
C578   C     0.60836   0.04859   0.31788   0.00000  Uiso   1.00
C579   C     0.59219   0.35428   0.67563   0.00000  Uiso   1.00
C580   C     0.55386   0.36859   0.66849   0.00000  Uiso   1.00
C581   C     0.92695   0.13013   0.31540   0.00000  Uiso   1.00
C582   C     0.50000   0.25000   0.60174   0.00000  Uiso   1.00
C583   C     0.96065   0.10751   0.30580   0.00000  Uiso   1.00
C584   C     0.64020   0.08600   0.67761   0.00000  Uiso   1.00
C585   C     0.62200   0.04884   0.67481   0.00000  Uiso   1.00
C586   C     0.86405   0.42029   0.32021   0.00000  Uiso   1.00
C587   C     0.89164   0.45141   0.31787   0.00000  Uiso   1.00
C588   C     0.91299   0.35569   0.32267   0.00000  Uiso   1.00
C589   C     0.88959   0.32892   0.34590   0.00000  Uiso   1.00
C590   C     0.57032   0.12758   0.68823   0.00000  Uiso   1.00
C591   C     0.53697   0.10780   0.70446   0.00000  Uiso   1.00
C592   C     0.86530   0.07689   0.31769   0.00000  Uiso   1.00
C593   C     0.75000  -0.00000   0.39829   0.00000  Uiso   1.00
C594   C     0.84124   0.09611   0.34764   0.00000  Uiso   1.00
C595   C     0.62864   0.42728   0.68665   0.00000  Uiso   1.00
C596   C     0.60417   0.45799   0.70127   0.00000  Uiso   1.00
C597   C     0.58702   0.14432   0.32267   0.00000  Uiso   1.00
C598   C     0.61041   0.17109   0.34590   0.00000  Uiso   1.00
C599   C     0.92968   0.37242   0.68823   0.00000  Uiso   1.00
C600   C     0.96303   0.39220   0.70445   0.00000  Uiso   1.00
C601   C     0.63470   0.42310   0.31769   0.00000  Uiso   1.00
C602   C     0.65875   0.40388   0.34764   0.00000  Uiso   1.00
C603   C     0.87137   0.07272   0.68665   0.00000  Uiso   1.00
C604   C     0.51454   0.22018   0.58162   0.00000  Uiso   1.00
C605   C     0.75000   0.00000   0.60185   0.00000  Uiso   1.00
C606   C     0.89583   0.04201   0.70127   0.00000  Uiso   1.00
C607   C     0.75000  -0.00000   0.89773   0.00000  Uiso   1.00
C608   C     0.75000  -0.00000   0.10138   0.00000  Uiso   1.00
C609   C     0.50000   0.25000   0.89820   0.00000  Uiso   1.00
C610   C     0.50000   0.25000   0.10175   0.00000  Uiso   1.00
C611   C     0.54089   0.19734   0.47930   0.00000  Uiso   1.00
C612   C     0.95761   0.30139   0.52018   0.00000  Uiso   1.00
C613   C     0.80789   0.03304   0.47938   0.00000  Uiso   1.00
C614   C     0.69367   0.46444   0.52019   0.00000  Uiso   1.00
C615   C     0.95911   0.30266   0.47930   0.00000  Uiso   1.00
C616   C     0.71764   0.49296   0.41847   0.00000  Uiso   1.00
C617   C     0.54240   0.19861   0.52018   0.00000  Uiso   1.00
C618   C     0.69211   0.46696   0.47939   0.00000  Uiso   1.00
C619   C     0.80633   0.03557   0.52018   0.00000  Uiso   1.00
C620   C     0.72091   0.43982   0.97916   0.00000  Uiso   1.00
C621   C     0.77704   0.06096   0.01972   0.00000  Uiso   1.00
C622   C     0.55503   0.28769   0.97932   0.00000  Uiso   1.00
C623   C     0.94636   0.21047   0.02018   0.00000  Uiso   1.00
C624   C     0.77909   0.06018   0.97916   0.00000  Uiso   1.00
C625   C     0.72297   0.43904   0.01972   0.00000  Uiso   1.00
C626   C     0.94498   0.21230   0.97933   0.00000  Uiso   1.00
C627   C     0.78119   0.01127   0.58183   0.00000  Uiso   1.00
C628   C     0.55364   0.28953   0.02017   0.00000  Uiso   1.00
C629   C     0.75000  -0.00000   0.35585   0.00000  Uiso   1.00
C630   C     0.75000   0.00000   0.64421   0.00000  Uiso   1.00
C631   C     0.50000   0.25000   0.35580   0.00000  Uiso   1.00
C632   C     0.50000   0.25000   0.64418   0.00000  Uiso   1.00
C633   C     0.50000   0.25000   0.85582   0.00000  Uiso   1.00
C634   C     0.50000   0.25000   0.14417   0.00000  Uiso   1.00
C635   C     0.75000  -0.00000   0.85563   0.00000  Uiso   1.00
C636   C     0.75000  -0.00000   0.14403   0.00000  Uiso   1.00
C637   C     0.67976   0.06962   0.25045   0.00000  Uiso   1.00
C638   C     0.51197   0.21906   0.41831   0.00000  Uiso   1.00
C639   C     0.82015   0.43010   0.74953   0.00000  Uiso   1.00
C640   C     0.93032   0.17980   0.25036   0.00000  Uiso   1.00
C641   C     0.56990   0.32015   0.74953   0.00000  Uiso   1.00
C642   C     0.82024   0.43038   0.25045   0.00000  Uiso   1.00
C643   C     0.67985   0.06990   0.74953   0.00000  Uiso   1.00
C644   C     0.56968   0.32020   0.25036   0.00000  Uiso   1.00
C645   C     0.93010   0.17984   0.74953   0.00000  Uiso   1.00
C646   C     0.68023   0.42987   0.75033   0.00000  Uiso   1.00
C647   C     0.81972   0.07029   0.24964   0.00000  Uiso   1.00
C648   C     0.92985   0.31974   0.75046   0.00000  Uiso   1.00
C649   C     0.98546   0.27982   0.58162   0.00000  Uiso   1.00
C650   C     0.57028   0.18015   0.24926   0.00000  Uiso   1.00
C651   C     0.81977   0.07013   0.75033   0.00000  Uiso   1.00
C652   C     0.68028   0.42971   0.24964   0.00000  Uiso   1.00
C653   C     0.57015   0.18026   0.75046   0.00000  Uiso   1.00
C654   C     0.92972   0.31985   0.24927   0.00000  Uiso   1.00
C655   C     0.64933   0.37726   0.21760   0.00000  Uiso   1.00
C656   C     0.85252   0.12034   0.78406   0.00000  Uiso   1.00
C657   C     0.61335   0.13924   0.21362   0.00000  Uiso   1.00
C658   C     0.87813   0.35091   0.78309   0.00000  Uiso   1.00
C659   C     0.85068   0.12274   0.21760   0.00000  Uiso   1.00
C660   C     0.78236   0.00703   0.41847   0.00000  Uiso   1.00
C661   C     0.64748   0.37966   0.78406   0.00000  Uiso   1.00
C662   C     0.88665   0.36076   0.21362   0.00000  Uiso   1.00
C663   C     0.62187   0.14909   0.78309   0.00000  Uiso   1.00
C664   C     0.64845   0.12108   0.78327   0.00000  Uiso   1.00
C665   C     0.85623   0.38425   0.21489   0.00000  Uiso   1.00
C666   C     0.61887   0.35381   0.78444   0.00000  Uiso   1.00
C667   C     0.87796   0.15009   0.21809   0.00000  Uiso   1.00
C668   C     0.85155   0.37891   0.78327   0.00000  Uiso   1.00
C669   C     0.64377   0.11575   0.21489   0.00000  Uiso   1.00
C670   C     0.88113   0.14619   0.78444   0.00000  Uiso   1.00
C671   C     0.71881   0.48873   0.58183   0.00000  Uiso   1.00
C672   C     0.62204   0.34991   0.21809   0.00000  Uiso   1.00
C673   C     0.89268   0.13351   0.71491   0.00000  Uiso   1.00
C674   C     0.60098   0.37189   0.28237   0.00000  Uiso   1.00
C675   C     0.86889   0.39512   0.71594   0.00000  Uiso   1.00
C676   C     0.63210   0.10487   0.28488   0.00000  Uiso   1.00
C677   C     0.60733   0.36649   0.71491   0.00000  Uiso   1.00
C678   C     0.89902   0.12811   0.28237   0.00000  Uiso   1.00
C679   C     0.63112   0.10488   0.71594   0.00000  Uiso   1.00
C680   C     0.86790   0.39513   0.28487   0.00000  Uiso   1.00
C681   C     0.89379   0.36664   0.28495   0.00000  Uiso   1.00
C682   C     0.75830   0.03219   0.91757   0.00000  Uiso   1.00
C683   C     0.60107   0.12871   0.71830   0.00000  Uiso   1.00
C684   C     0.87119   0.10146   0.28238   0.00000  Uiso   1.00
C685   C     0.63062   0.39694   0.71706   0.00000  Uiso   1.00
C686   C     0.60621   0.13337   0.28495   0.00000  Uiso   1.00
C687   C     0.89894   0.37129   0.71830   0.00000  Uiso   1.00
C688   C     0.62880   0.39853   0.28239   0.00000  Uiso   1.00
C689   C     0.86939   0.10306   0.71707   0.00000  Uiso   1.00
C690   C     0.51750   0.22134   0.45886   0.00000  Uiso   1.00
C691   C     0.98100   0.27768   0.54092   0.00000  Uiso   1.00
C692   C     0.78088   0.01309   0.45900   0.00000  Uiso   1.00
H693   H     0.72186   0.35177   0.15832   0.00000  Uiso   1.00
H694   H     0.83902   0.12242   0.84644   0.00000  Uiso   1.00
H695   H     0.63274   0.09451   0.34804   0.00000  Uiso   1.00
H696   H     0.54585   0.36252   0.63808   0.00000  Uiso   1.00
H697   H     0.53430   0.35511   0.68843   0.00000  Uiso   1.00
H698   H     0.55266   0.39853   0.67275   0.00000  Uiso   1.00
H699   H     0.61031   0.36241   0.65138   0.00000  Uiso   1.00
H700   H     0.59251   0.32428   0.67262   0.00000  Uiso   1.00
H701   H     0.95306   0.07852   0.30106   0.00000  Uiso   1.00
H702   H     0.97418   0.11814   0.27922   0.00000  Uiso   1.00
H703   H     0.98029   0.10897   0.33031   0.00000  Uiso   1.00
H704   H     0.93541   0.15858   0.32140   0.00000  Uiso   1.00
H705   H     0.60467   0.19295   0.13082   0.00000  Uiso   1.00
H706   H     0.91578   0.12108   0.34365   0.00000  Uiso   1.00
H707   H     0.62348   0.03888   0.64442   0.00000  Uiso   1.00
H708   H     0.63634   0.02937   0.69414   0.00000  Uiso   1.00
H709   H     0.59291   0.05024   0.68326   0.00000  Uiso   1.00
H710   H     0.63288   0.10322   0.65231   0.00000  Uiso   1.00
H711   H     0.66982   0.08277   0.67334   0.00000  Uiso   1.00
H712   H     0.91974   0.44064   0.31488   0.00000  Uiso   1.00
H713   H     0.88549   0.46913   0.29249   0.00000  Uiso   1.00
H714   H     0.89029   0.46817   0.34469   0.00000  Uiso   1.00
H715   H     0.83660   0.43231   0.32295   0.00000  Uiso   1.00
H716   H     0.60105   0.20972   0.17997   0.00000  Uiso   1.00
H717   H     0.86727   0.40549   0.34803   0.00000  Uiso   1.00
H718   H     0.86502   0.34265   0.35761   0.00000  Uiso   1.00
H719   H     0.88073   0.30574   0.32742   0.00000  Uiso   1.00
H720   H     0.90558   0.31779   0.37050   0.00000  Uiso   1.00
H721   H     0.94000   0.34330   0.31716   0.00000  Uiso   1.00
H722   H     0.92008   0.37957   0.34087   0.00000  Uiso   1.00
H723   H     0.54493   0.08144   0.71789   0.00000  Uiso   1.00
H724   H     0.52286   0.12465   0.72655   0.00000  Uiso   1.00
H725   H     0.51764   0.10200   0.68045   0.00000  Uiso   1.00
H726   H     0.56277   0.15553   0.67907   0.00000  Uiso   1.00
H727   H     0.64277   0.18855   0.16353   0.00000  Uiso   1.00
H728   H     0.57753   0.11347   0.66098   0.00000  Uiso   1.00
H729   H     0.85553   0.11976   0.36076   0.00000  Uiso   1.00
H730   H     0.81568   0.10600   0.33410   0.00000  Uiso   1.00
H731   H     0.83388   0.07681   0.37099   0.00000  Uiso   1.00
H732   H     0.85239   0.05060   0.30963   0.00000  Uiso   1.00
H733   H     0.89137   0.06828   0.33105   0.00000  Uiso   1.00
H734   H     0.57774   0.44701   0.71173   0.00000  Uiso   1.00
H735   H     0.61748   0.47292   0.72549   0.00000  Uiso   1.00
H736   H     0.59850   0.47717   0.67709   0.00000  Uiso   1.00
H737   H     0.65602   0.43817   0.67972   0.00000  Uiso   1.00
H738   H     0.60267   0.13021   0.15149   0.00000  Uiso   1.00
H739   H     0.61754   0.41850   0.65834   0.00000  Uiso   1.00
H740   H     0.63499   0.15736   0.35760   0.00000  Uiso   1.00
H741   H     0.61927   0.19426   0.32741   0.00000  Uiso   1.00
H742   H     0.59442   0.18222   0.37049   0.00000  Uiso   1.00
H743   H     0.56000   0.15670   0.31717   0.00000  Uiso   1.00
H744   H     0.57993   0.12044   0.34088   0.00000  Uiso   1.00
H745   H     0.95508   0.41856   0.71788   0.00000  Uiso   1.00
H746   H     0.97714   0.37535   0.72655   0.00000  Uiso   1.00
H747   H     0.98236   0.39799   0.68044   0.00000  Uiso   1.00
H748   H     0.93723   0.34447   0.67907   0.00000  Uiso   1.00
H749   H     0.56777   0.15122   0.17387   0.00000  Uiso   1.00
H750   H     0.92247   0.38653   0.66098   0.00000  Uiso   1.00
H751   H     0.64447   0.38023   0.36075   0.00000  Uiso   1.00
H752   H     0.68432   0.39401   0.33410   0.00000  Uiso   1.00
H753   H     0.66610   0.42318   0.37100   0.00000  Uiso   1.00
H754   H     0.64761   0.44940   0.30963   0.00000  Uiso   1.00
H755   H     0.60863   0.43172   0.33105   0.00000  Uiso   1.00
H756   H     0.92226   0.05299   0.71173   0.00000  Uiso   1.00
H757   H     0.88252   0.02707   0.72549   0.00000  Uiso   1.00
H758   H     0.90150   0.02283   0.67709   0.00000  Uiso   1.00
H759   H     0.84398   0.06183   0.67972   0.00000  Uiso   1.00
H760   H     0.83011   0.29534   0.80077   0.00000  Uiso   1.00
H761   H     0.88246   0.08150   0.65835   0.00000  Uiso   1.00
H762   H     0.87067   0.27517   0.78011   0.00000  Uiso   1.00
H763   H     0.86056   0.26914   0.83098   0.00000  Uiso   1.00
H764   H     0.90915   0.31568   0.82260   0.00000  Uiso   1.00
H765   H     0.72172   0.35272   0.21109   0.00000  Uiso   1.00
H766   H     0.87057   0.33395   0.84424   0.00000  Uiso   1.00
H767   H     0.77814   0.14820   0.15832   0.00000  Uiso   1.00
H768   H     0.77829   0.14727   0.21109   0.00000  Uiso   1.00
H769   H     0.80765   0.17763   0.18469   0.00000  Uiso   1.00
H770   H     0.83870   0.11975   0.15543   0.00000  Uiso   1.00
H771   H     0.80881   0.09389   0.18318   0.00000  Uiso   1.00
H772   H     0.69494   0.32703   0.80963   0.00000  Uiso   1.00
H773   H     0.72134   0.36232   0.78603   0.00000  Uiso   1.00
H774   H     0.72400   0.35635   0.83802   0.00000  Uiso   1.00
H775   H     0.68598   0.40991   0.82117   0.00000  Uiso   1.00
H776   H     0.69235   0.32236   0.18472   0.00000  Uiso   1.00
H777   H     0.66097   0.37757   0.84644   0.00000  Uiso   1.00
H778   H     0.89532   0.30704   0.13083   0.00000  Uiso   1.00
H779   H     0.89894   0.29028   0.17998   0.00000  Uiso   1.00
H780   H     0.85722   0.31145   0.16354   0.00000  Uiso   1.00
H781   H     0.89733   0.36978   0.15148   0.00000  Uiso   1.00
H782   H     0.93222   0.34876   0.17387   0.00000  Uiso   1.00
H783   H     0.62933   0.22483   0.78010   0.00000  Uiso   1.00
H784   H     0.63944   0.23086   0.83097   0.00000  Uiso   1.00
H785   H     0.66989   0.20466   0.80077   0.00000  Uiso   1.00
H786   H     0.59086   0.18432   0.82260   0.00000  Uiso   1.00
H787   H     0.66131   0.38025   0.15544   0.00000  Uiso   1.00
H788   H     0.62943   0.16605   0.84424   0.00000  Uiso   1.00
H789   H     0.62870   0.10492   0.85851   0.00000  Uiso   1.00
H790   H     0.65056   0.06482   0.83941   0.00000  Uiso   1.00
H791   H     0.67304   0.09188   0.87595   0.00000  Uiso   1.00
H792   H     0.69961   0.10248   0.81008   0.00000  Uiso   1.00
H793   H     0.68263   0.14250   0.83018   0.00000  Uiso   1.00
H794   H     0.79435   0.34635   0.19411   0.00000  Uiso   1.00
H795   H     0.77807   0.39147   0.20657   0.00000  Uiso   1.00
H796   H     0.77866   0.37728   0.15683   0.00000  Uiso   1.00
H797   H     0.83108   0.41914   0.17056   0.00000  Uiso   1.00
H798   H     0.69121   0.40610   0.18319   0.00000  Uiso   1.00
H799   H     0.84153   0.37572   0.15265   0.00000  Uiso   1.00
H800   H     0.59872   0.37916   0.85976   0.00000  Uiso   1.00
H801   H     0.56047   0.36538   0.83041   0.00000  Uiso   1.00
H802   H     0.57380   0.33822   0.87135   0.00000  Uiso   1.00
H803   H     0.59652   0.30624   0.81512   0.00000  Uiso   1.00
H804   H     0.63426   0.32482   0.83799   0.00000  Uiso   1.00
H805   H     0.84777   0.21542   0.21901   0.00000  Uiso   1.00
H806   H     0.89366   0.23112   0.21079   0.00000  Uiso   1.00
H807   H     0.86120   0.23214   0.17191   0.00000  Uiso   1.00
H808   H     0.91032   0.17829   0.17433   0.00000  Uiso   1.00
H809   H     0.80506   0.17297   0.80963   0.00000  Uiso   1.00
H810   H     0.86596   0.17083   0.15880   0.00000  Uiso   1.00
H811   H     0.87130   0.39508   0.85851   0.00000  Uiso   1.00
H812   H     0.84944   0.43518   0.83941   0.00000  Uiso   1.00
H813   H     0.82696   0.40812   0.87595   0.00000  Uiso   1.00
H814   H     0.80039   0.39752   0.81008   0.00000  Uiso   1.00
H815   H     0.81737   0.35750   0.83018   0.00000  Uiso   1.00
H816   H     0.70567   0.15363   0.19410   0.00000  Uiso   1.00
H817   H     0.72193   0.10850   0.20656   0.00000  Uiso   1.00
H818   H     0.72134   0.12269   0.15682   0.00000  Uiso   1.00
H819   H     0.66891   0.08085   0.17055   0.00000  Uiso   1.00
H820   H     0.77865   0.13768   0.78603   0.00000  Uiso   1.00
H821   H     0.65847   0.12429   0.15266   0.00000  Uiso   1.00
H822   H     0.90127   0.12083   0.85975   0.00000  Uiso   1.00
H823   H     0.93953   0.13462   0.83041   0.00000  Uiso   1.00
H824   H     0.92618   0.16177   0.87135   0.00000  Uiso   1.00
H825   H     0.90348   0.19376   0.81512   0.00000  Uiso   1.00
H826   H     0.86574   0.17518   0.83799   0.00000  Uiso   1.00
H827   H     0.65220   0.28457   0.21901   0.00000  Uiso   1.00
H828   H     0.60632   0.26889   0.21077   0.00000  Uiso   1.00
H829   H     0.63879   0.26786   0.17191   0.00000  Uiso   1.00
H830   H     0.58968   0.32172   0.17432   0.00000  Uiso   1.00
H831   H     0.77600   0.14365   0.83802   0.00000  Uiso   1.00
H832   H     0.63405   0.32917   0.15880   0.00000  Uiso   1.00
H833   H     0.95416   0.13748   0.63808   0.00000  Uiso   1.00
H834   H     0.96571   0.14489   0.68843   0.00000  Uiso   1.00
H835   H     0.94735   0.10147   0.67276   0.00000  Uiso   1.00
H836   H     0.88970   0.13759   0.65138   0.00000  Uiso   1.00
H837   H     0.90750   0.17572   0.67262   0.00000  Uiso   1.00
H838   H     0.54693   0.42147   0.30105   0.00000  Uiso   1.00
H839   H     0.52582   0.38186   0.27922   0.00000  Uiso   1.00
H840   H     0.51971   0.39102   0.33030   0.00000  Uiso   1.00
H841   H     0.56459   0.34142   0.32140   0.00000  Uiso   1.00
H842   H     0.81401   0.09009   0.82117   0.00000  Uiso   1.00
H843   H     0.58421   0.37892   0.34365   0.00000  Uiso   1.00
H844   H     0.87652   0.46112   0.64442   0.00000  Uiso   1.00
H845   H     0.86367   0.47063   0.69414   0.00000  Uiso   1.00
H846   H     0.90710   0.44976   0.68326   0.00000  Uiso   1.00
H847   H     0.86713   0.39678   0.65231   0.00000  Uiso   1.00
H848   H     0.83018   0.41724   0.67334   0.00000  Uiso   1.00
H849   H     0.58025   0.05937   0.31490   0.00000  Uiso   1.00
H850   H     0.61450   0.03087   0.29250   0.00000  Uiso   1.00
H851   H     0.60970   0.03184   0.34470   0.00000  Uiso   1.00
H852   H     0.66339   0.06769   0.32295   0.00000  Uiso   1.00
O853   O     0.75000  -0.00000   0.25000   0.00000  Uiso   1.00
O854   O     0.75000   0.46963   0.66245   0.00000  Uiso   1.00
O855   O     0.96964   0.25000   0.33755   0.00000  Uiso   1.00
O856   O     0.53037   0.25000   0.66245   0.00000  Uiso   1.00
O857   O     0.50000   0.21963   0.83755   0.00000  Uiso   1.00
O858   O     0.50000   0.28036   0.16245   0.00000  Uiso   1.00
O859   O     0.78037  -0.00000   0.83755   0.00000  Uiso   1.00
O860   O     0.71964  -0.00000   0.16245   0.00000  Uiso   1.00
O861   O     0.50000   0.28036   0.83755   0.00000  Uiso   1.00
O862   O     0.50000   0.21963   0.16245   0.00000  Uiso   1.00
O863   O     0.71964  -0.00000   0.83755   0.00000  Uiso   1.00
O864   O     0.75000  -0.00000   0.75000   0.00000  Uiso   1.00
O865   O     0.78037  -0.00000   0.16245   0.00000  Uiso   1.00
O866   O     0.70725   0.07307   0.27302   0.00000  Uiso   1.00
O867   O     0.79276   0.42692   0.72698   0.00000  Uiso   1.00
O868   O     0.92693   0.20724   0.27302   0.00000  Uiso   1.00
O869   O     0.57308   0.29275   0.72698   0.00000  Uiso   1.00
O870   O     0.79276   0.42692   0.27302   0.00000  Uiso   1.00
O871   O     0.70725   0.07307   0.72698   0.00000  Uiso   1.00
O872   O     0.57308   0.29275   0.27302   0.00000  Uiso   1.00
O873   O     0.92693   0.20724   0.72698   0.00000  Uiso   1.00
O874   O     0.70725   0.42692   0.72698   0.00000  Uiso   1.00
O875   O     0.50000   0.25000   0.25000   0.00000  Uiso   1.00
O876   O     0.79276   0.07307   0.27302   0.00000  Uiso   1.00
O877   O     0.92693   0.29275   0.72698   0.00000  Uiso   1.00
O878   O     0.57308   0.20724   0.27302   0.00000  Uiso   1.00
O879   O     0.79276   0.07307   0.72698   0.00000  Uiso   1.00
O880   O     0.70725   0.42692   0.27302   0.00000  Uiso   1.00
O881   O     0.57308   0.20724   0.72698   0.00000  Uiso   1.00
O882   O     0.92693   0.29275   0.27302   0.00000  Uiso   1.00
O883   O     0.95725   0.32307   0.77302   0.00000  Uiso   1.00
O884   O     0.54276   0.17692   0.22698   0.00000  Uiso   1.00
O885   O     0.67693   0.45724   0.77302   0.00000  Uiso   1.00
O886   O     0.50000   0.25000   0.75000   0.00000  Uiso   1.00
O887   O     0.82308   0.04275   0.22698   0.00000  Uiso   1.00
O888   O     0.54276   0.17692   0.77302   0.00000  Uiso   1.00
O889   O     0.95725   0.32307   0.22698   0.00000  Uiso   1.00
O890   O     0.82308   0.04275   0.77302   0.00000  Uiso   1.00
O891   O     0.67693   0.45724   0.22698   0.00000  Uiso   1.00
O892   O     0.95725   0.17692   0.22698   0.00000  Uiso   1.00
O893   O     0.54276   0.32307   0.77302   0.00000  Uiso   1.00
O894   O     0.67693   0.04275   0.22698   0.00000  Uiso   1.00
O895   O     0.82308   0.45724   0.77302   0.00000  Uiso   1.00
O896   O     0.54276   0.32307   0.22698   0.00000  Uiso   1.00
O897   O     0.75000   0.46963   0.33755   0.00000  Uiso   1.00
O898   O     0.95725   0.17692   0.77302   0.00000  Uiso   1.00
O899   O     0.82308   0.45724   0.22698   0.00000  Uiso   1.00
O900   O     0.67693   0.04275   0.77302   0.00000  Uiso   1.00
O901   O     0.75000   0.03036   0.66245   0.00000  Uiso   1.00
O902   O     0.53037   0.25000   0.33755   0.00000  Uiso   1.00
O903   O     0.96964   0.25000   0.66245   0.00000  Uiso   1.00
O904   O     0.75000   0.03036   0.33755   0.00000  Uiso   1.00
Zn905  Zn    0.70660  -0.00000   0.21735   0.00000  Uiso   1.00
Zn906  Zn    0.54341   0.25000   0.28265   0.00000  Uiso   1.00
Zn907  Zn    0.75000   0.45659   0.71735   0.00000  Uiso   1.00
Zn908  Zn    0.75000   0.04340   0.28265   0.00000  Uiso   1.00
Zn909  Zn    0.54341   0.25000   0.71735   0.00000  Uiso   1.00
Zn910  Zn    0.95660   0.25000   0.28265   0.00000  Uiso   1.00
Zn911  Zn    0.75000   0.04340   0.71735   0.00000  Uiso   1.00
Zn912  Zn    0.75000   0.45659   0.28265   0.00000  Uiso   1.00
Zn913  Zn    0.79341  -0.00000   0.78265   0.00000  Uiso   1.00
Zn914  Zn    0.50000   0.20659   0.21735   0.00000  Uiso   1.00
Zn915  Zn    0.50000   0.29340   0.78265   0.00000  Uiso   1.00
Zn916  Zn    0.79341  -0.00000   0.21735   0.00000  Uiso   1.00
Zn917  Zn    0.70660  -0.00000   0.78265   0.00000  Uiso   1.00
Zn918  Zn    0.50000   0.29340   0.21735   0.00000  Uiso   1.00
Zn919  Zn    0.50000   0.20659   0.78265   0.00000  Uiso   1.00
Zn920  Zn    0.95660   0.25000   0.71735   0.00000  Uiso   1.00
Br921  Br    0.07722   0.66845   0.45253   0.00000  Uiso   1.00
Br922  Br    0.28070   0.60852   0.04396   0.00000  Uiso   1.00
Br923  Br    0.08653   0.82190   0.95265   0.00000  Uiso   1.00
Br924  Br    0.42049   0.67096   0.04570   0.00000  Uiso   1.00
Br925  Br    0.31216   0.59483   0.95546   0.00000  Uiso   1.00
Br926  Br    0.21931   0.89147   0.04396   0.00000  Uiso   1.00
Br927  Br    0.41348   0.67809   0.95266   0.00000  Uiso   1.00
Br928  Br    0.07951   0.82904   0.04569   0.00000  Uiso   1.00
Br929  Br    0.48816   0.82700   0.39075   0.00000  Uiso   1.00
Br930  Br    0.01989   0.67482   0.60973   0.00000  Uiso   1.00
Br931  Br    0.17227   0.50042   0.39112   0.00000  Uiso   1.00
Br932  Br    0.41705   0.82527   0.54585   0.00000  Uiso   1.00
Br933  Br    0.32640   0.51284   0.61062   0.00000  Uiso   1.00
Br934  Br    0.01184   0.67300   0.39076   0.00000  Uiso   1.00
Br935  Br    0.48012   0.82518   0.60973   0.00000  Uiso   1.00
Br936  Br    0.32773   0.99957   0.39112   0.00000  Uiso   1.00
Br937  Br    0.17360   0.98716   0.61062   0.00000  Uiso   1.00
Br938  Br    0.25490   0.57736   0.88853   0.00000  Uiso   1.00
Br939  Br    0.19058   0.94801   0.10728   0.00000  Uiso   1.00
Br940  Br    0.42258   0.74290   0.89069   0.00000  Uiso   1.00
Br941  Br    0.07584   0.76638   0.10989   0.00000  Uiso   1.00
Br942  Br    0.24510   0.92264   0.88854   0.00000  Uiso   1.00
Br943  Br    0.34248   0.56395   0.45258   0.00000  Uiso   1.00
Br944  Br    0.30943   0.55198   0.10727   0.00000  Uiso   1.00
Br945  Br    0.07743   0.75709   0.89068   0.00000  Uiso   1.00
Br946  Br    0.42416   0.73362   0.10990   0.00000  Uiso   1.00
Br947  Br    0.16553   0.92624   0.54523   0.00000  Uiso   1.00
Br948  Br    0.42277   0.83155   0.45253   0.00000  Uiso   1.00
Br949  Br    0.08295   0.67473   0.54584   0.00000  Uiso   1.00
Br950  Br    0.15752   0.93605   0.45259   0.00000  Uiso   1.00
Br951  Br    0.33447   0.57376   0.54522   0.00000  Uiso   1.00
Br952  Br    0.18784   0.90517   0.95547   0.00000  Uiso   1.00
C953   C     0.48803   0.78094   0.41831   0.00000  Uiso   1.00
C954   C     0.22952   0.97379   0.08093   0.00000  Uiso   1.00
C955   C     0.22024   0.98441   0.54106   0.00000  Uiso   1.00
C956   C     0.48250   0.77866   0.45886   0.00000  Uiso   1.00
C957   C     0.01901   0.72232   0.54092   0.00000  Uiso   1.00
C958   C     0.21912   0.98691   0.45900   0.00000  Uiso   1.00
C959   C     0.27976   0.51559   0.54106   0.00000  Uiso   1.00
C960   C     0.23689   0.96895   0.95824   0.00000  Uiso   1.00
C961   C     0.26557   0.52969   0.04042   0.00000  Uiso   1.00
C962   C     0.02967   0.76573   0.95887   0.00000  Uiso   1.00
C963   C     0.47137   0.73247   0.04094   0.00000  Uiso   1.00
C964   C     0.26311   0.53105   0.95824   0.00000  Uiso   1.00
C965   C     0.46840   0.73998   0.91832   0.00000  Uiso   1.00
C966   C     0.23444   0.97031   0.04043   0.00000  Uiso   1.00
C967   C     0.47033   0.73427   0.95888   0.00000  Uiso   1.00
C968   C     0.02863   0.76753   0.04093   0.00000  Uiso   1.00
C969   C     0.09798   0.84802   0.25019   0.00000  Uiso   1.00
C970   C     0.40097   0.65264   0.74969   0.00000  Uiso   1.00
C971   C     0.15179   0.59768   0.25028   0.00000  Uiso   1.00
C972   C     0.34740   0.90099   0.74966   0.00000  Uiso   1.00
C973   C     0.40202   0.65198   0.25019   0.00000  Uiso   1.00
C974   C     0.09903   0.84736   0.74969   0.00000  Uiso   1.00
C975   C     0.34821   0.90232   0.25027   0.00000  Uiso   1.00
C976   C     0.03047   0.76305   0.08165   0.00000  Uiso   1.00
C977   C     0.15260   0.59901   0.74966   0.00000  Uiso   1.00
C978   C     0.09811   0.65206   0.75079   0.00000  Uiso   1.00
C979   C     0.40264   0.84922   0.24931   0.00000  Uiso   1.00
C980   C     0.15220   0.90175   0.75065   0.00000  Uiso   1.00
C981   C     0.34784   0.59854   0.24970   0.00000  Uiso   1.00
C982   C     0.40189   0.84794   0.75079   0.00000  Uiso   1.00
C983   C     0.09736   0.65078   0.24931   0.00000  Uiso   1.00
C984   C     0.34780   0.59825   0.75065   0.00000  Uiso   1.00
C985   C     0.15216   0.90146   0.24970   0.00000  Uiso   1.00
C986   C     0.00000   0.75000   0.47941   0.00000  Uiso   1.00
C987   C     0.24170   0.96781   0.91757   0.00000  Uiso   1.00
C988   C     0.00000   0.75000   0.52040   0.00000  Uiso   1.00
C989   C     0.25000   0.50000   0.47956   0.00000  Uiso   1.00
C990   C     0.25000   0.50000   0.52056   0.00000  Uiso   1.00
C991   C     0.25000   0.50000   0.97879   0.00000  Uiso   1.00
C992   C     0.25000   0.50000   0.01984   0.00000  Uiso   1.00
C993   C     0.00000   0.75000   0.97942   0.00000  Uiso   1.00
C994   C     0.00000   0.75000   0.02042   0.00000  Uiso   1.00
C995   C     0.17604   0.88007   0.18358   0.00000  Uiso   1.00
C996   C     0.20459   0.84984   0.18466   0.00000  Uiso   1.00
C997   C     0.32572   0.61773   0.81800   0.00000  Uiso   1.00
C998   C     0.27048   0.52620   0.08093   0.00000  Uiso   1.00
C999   C     0.29450   0.64472   0.81252   0.00000  Uiso   1.00
C1000  C     0.09778   0.65096   0.17428   0.00000  Uiso   1.00
C1001  C     0.11261   0.68786   0.16147   0.00000  Uiso   1.00
C1002  C     0.38053   0.82310   0.81620   0.00000  Uiso   1.00
C1003  C     0.35913   0.78861   0.80628   0.00000  Uiso   1.00
C1004  C     0.32397   0.61992   0.18358   0.00000  Uiso   1.00
C1005  C     0.29541   0.65015   0.18465   0.00000  Uiso   1.00
C1006  C     0.17428   0.88227   0.81800   0.00000  Uiso   1.00
C1007  C     0.20550   0.85528   0.81252   0.00000  Uiso   1.00
C1008  C     0.40222   0.84903   0.17428   0.00000  Uiso   1.00
C1009  C     0.03160   0.76001   0.91832   0.00000  Uiso   1.00
C1010  C     0.38738   0.81213   0.16148   0.00000  Uiso   1.00
C1011  C     0.11947   0.67690   0.81620   0.00000  Uiso   1.00
C1012  C     0.14087   0.71139   0.80628   0.00000  Uiso   1.00
C1013  C     0.17364   0.61589   0.81822   0.00000  Uiso   1.00
C1014  C     0.15527   0.59306   0.84988   0.00000  Uiso   1.00
C1015  C     0.33194   0.88997   0.17893   0.00000  Uiso   1.00
C1016  C     0.29347   0.87538   0.18489   0.00000  Uiso   1.00
C1017  C     0.10961   0.83283   0.82152   0.00000  Uiso   1.00
C1018  C     0.08420   0.85534   0.84728   0.00000  Uiso   1.00
C1019  C     0.38183   0.67787   0.18498   0.00000  Uiso   1.00
C1020  C     0.46953   0.73695   0.08165   0.00000  Uiso   1.00
C1021  C     0.37041   0.71632   0.19763   0.00000  Uiso   1.00
C1022  C     0.32636   0.88411   0.81823   0.00000  Uiso   1.00
C1023  C     0.34473   0.90694   0.84988   0.00000  Uiso   1.00
C1024  C     0.16806   0.61003   0.17893   0.00000  Uiso   1.00
C1025  C     0.20653   0.62460   0.18488   0.00000  Uiso   1.00
C1026  C     0.39039   0.66717   0.82152   0.00000  Uiso   1.00
C1027  C     0.41579   0.64466   0.84728   0.00000  Uiso   1.00
C1028  C     0.11817   0.82213   0.18498   0.00000  Uiso   1.00
C1029  C     0.12957   0.78367   0.19762   0.00000  Uiso   1.00
C1030  C     0.40782   0.64572   0.67563   0.00000  Uiso   1.00
C1031  C    -0.00000   0.75000   0.39818   0.00000  Uiso   1.00
C1032  C     0.44615   0.63141   0.66849   0.00000  Uiso   1.00
C1033  C     0.07305   0.86987   0.31540   0.00000  Uiso   1.00
C1034  C     0.03934   0.89249   0.30579   0.00000  Uiso   1.00
C1035  C     0.35980   0.91400   0.67761   0.00000  Uiso   1.00
C1036  C     0.37800   0.95116   0.67480   0.00000  Uiso   1.00
C1037  C     0.13595   0.57971   0.32021   0.00000  Uiso   1.00
C1038  C     0.10836   0.54859   0.31788   0.00000  Uiso   1.00
C1039  C     0.09219   0.85428   0.67563   0.00000  Uiso   1.00
C1040  C     0.05386   0.86859   0.66849   0.00000  Uiso   1.00
C1041  C     0.42695   0.63013   0.31540   0.00000  Uiso   1.00
C1042  C     0.00000   0.75000   0.60174   0.00000  Uiso   1.00
C1043  C     0.46065   0.60751   0.30580   0.00000  Uiso   1.00
C1044  C     0.14020   0.58600   0.67761   0.00000  Uiso   1.00
C1045  C     0.12200   0.54884   0.67481   0.00000  Uiso   1.00
C1046  C     0.36405   0.92029   0.32021   0.00000  Uiso   1.00
C1047  C     0.39164   0.95141   0.31787   0.00000  Uiso   1.00
C1048  C     0.41299   0.85569   0.32267   0.00000  Uiso   1.00
C1049  C     0.38959   0.82892   0.34590   0.00000  Uiso   1.00
C1050  C     0.07032   0.62758   0.68823   0.00000  Uiso   1.00
C1051  C     0.03697   0.60780   0.70446   0.00000  Uiso   1.00
C1052  C     0.36530   0.57689   0.31769   0.00000  Uiso   1.00
C1053  C     0.25000   0.50000   0.39829   0.00000  Uiso   1.00
C1054  C     0.34124   0.59611   0.34764   0.00000  Uiso   1.00
C1055  C     0.12864   0.92728   0.68665   0.00000  Uiso   1.00
C1056  C     0.10417   0.95799   0.70127   0.00000  Uiso   1.00
C1057  C     0.08702   0.64432   0.32267   0.00000  Uiso   1.00
C1058  C     0.11041   0.67109   0.34590   0.00000  Uiso   1.00
C1059  C     0.42968   0.87242   0.68823   0.00000  Uiso   1.00
C1060  C     0.46303   0.89220   0.70445   0.00000  Uiso   1.00
C1061  C     0.13470   0.92310   0.31769   0.00000  Uiso   1.00
C1062  C     0.15875   0.90388   0.34764   0.00000  Uiso   1.00
C1063  C     0.37137   0.57272   0.68665   0.00000  Uiso   1.00
C1064  C     0.01454   0.72018   0.58162   0.00000  Uiso   1.00
C1065  C     0.25000   0.50000   0.60185   0.00000  Uiso   1.00
C1066  C     0.39583   0.54201   0.70127   0.00000  Uiso   1.00
C1067  C     0.25000   0.50000   0.89773   0.00000  Uiso   1.00
C1068  C     0.25000   0.50000   0.10138   0.00000  Uiso   1.00
C1069  C     0.00000   0.75000   0.89820   0.00000  Uiso   1.00
C1070  C     0.00000   0.75000   0.10175   0.00000  Uiso   1.00
C1071  C     0.04089   0.69734   0.47930   0.00000  Uiso   1.00
C1072  C     0.45761   0.80139   0.52018   0.00000  Uiso   1.00
C1073  C     0.30789   0.53304   0.47938   0.00000  Uiso   1.00
C1074  C     0.19367   0.96444   0.52019   0.00000  Uiso   1.00
C1075  C     0.45911   0.80266   0.47930   0.00000  Uiso   1.00
C1076  C     0.21764   0.99296   0.41847   0.00000  Uiso   1.00
C1077  C     0.04240   0.69861   0.52018   0.00000  Uiso   1.00
C1078  C     0.19211   0.96696   0.47939   0.00000  Uiso   1.00
C1079  C     0.30633   0.53557   0.52018   0.00000  Uiso   1.00
C1080  C     0.22091   0.93982   0.97916   0.00000  Uiso   1.00
C1081  C     0.27704   0.56096   0.01972   0.00000  Uiso   1.00
C1082  C     0.05503   0.78769   0.97932   0.00000  Uiso   1.00
C1083  C     0.44636   0.71047   0.02018   0.00000  Uiso   1.00
C1084  C     0.27909   0.56018   0.97916   0.00000  Uiso   1.00
C1085  C     0.22297   0.93904   0.01972   0.00000  Uiso   1.00
C1086  C     0.44498   0.71230   0.97933   0.00000  Uiso   1.00
C1087  C     0.28119   0.51127   0.58183   0.00000  Uiso   1.00
C1088  C     0.05364   0.78953   0.02017   0.00000  Uiso   1.00
C1089  C     0.25000   0.50000   0.35585   0.00000  Uiso   1.00
C1090  C     0.25000   0.50000   0.64421   0.00000  Uiso   1.00
C1091  C    -0.00000   0.75000   0.35580   0.00000  Uiso   1.00
C1092  C     0.00000   0.75000   0.64418   0.00000  Uiso   1.00
C1093  C     0.00000   0.75000   0.85582   0.00000  Uiso   1.00
C1094  C     0.00000   0.75000   0.14417   0.00000  Uiso   1.00
C1095  C     0.25000   0.50000   0.85563   0.00000  Uiso   1.00
C1096  C     0.25000   0.50000   0.14403   0.00000  Uiso   1.00
C1097  C     0.17976   0.56962   0.25045   0.00000  Uiso   1.00
C1098  C     0.01197   0.71906   0.41831   0.00000  Uiso   1.00
C1099  C     0.32015   0.93010   0.74953   0.00000  Uiso   1.00
C1100  C     0.43032   0.67980   0.25036   0.00000  Uiso   1.00
C1101  C     0.06990   0.82015   0.74953   0.00000  Uiso   1.00
C1102  C     0.32024   0.93038   0.25045   0.00000  Uiso   1.00
C1103  C     0.17985   0.56990   0.74953   0.00000  Uiso   1.00
C1104  C     0.06968   0.82020   0.25036   0.00000  Uiso   1.00
C1105  C     0.43010   0.67984   0.74953   0.00000  Uiso   1.00
C1106  C     0.18023   0.92987   0.75033   0.00000  Uiso   1.00
C1107  C     0.31972   0.57029   0.24964   0.00000  Uiso   1.00
C1108  C     0.42985   0.81974   0.75046   0.00000  Uiso   1.00
C1109  C     0.48546   0.77982   0.58162   0.00000  Uiso   1.00
C1110  C     0.07028   0.68015   0.24926   0.00000  Uiso   1.00
C1111  C     0.31977   0.57013   0.75033   0.00000  Uiso   1.00
C1112  C     0.18028   0.92971   0.24964   0.00000  Uiso   1.00
C1113  C     0.07015   0.68026   0.75046   0.00000  Uiso   1.00
C1114  C     0.42972   0.81985   0.24927   0.00000  Uiso   1.00
C1115  C     0.14933   0.87726   0.21760   0.00000  Uiso   1.00
C1116  C     0.35252   0.62034   0.78406   0.00000  Uiso   1.00
C1117  C     0.11335   0.63924   0.21362   0.00000  Uiso   1.00
C1118  C     0.37813   0.85091   0.78309   0.00000  Uiso   1.00
C1119  C     0.35068   0.62274   0.21760   0.00000  Uiso   1.00
C1120  C     0.28236   0.50703   0.41847   0.00000  Uiso   1.00
C1121  C     0.14748   0.87966   0.78406   0.00000  Uiso   1.00
C1122  C     0.38665   0.86076   0.21362   0.00000  Uiso   1.00
C1123  C     0.12187   0.64909   0.78309   0.00000  Uiso   1.00
C1124  C     0.14845   0.62108   0.78327   0.00000  Uiso   1.00
C1125  C     0.35623   0.88425   0.21489   0.00000  Uiso   1.00
C1126  C     0.11887   0.85381   0.78444   0.00000  Uiso   1.00
C1127  C     0.37796   0.65009   0.21809   0.00000  Uiso   1.00
C1128  C     0.35155   0.87891   0.78327   0.00000  Uiso   1.00
C1129  C     0.14377   0.61575   0.21489   0.00000  Uiso   1.00
C1130  C     0.38113   0.64619   0.78444   0.00000  Uiso   1.00
C1131  C     0.21881   0.98873   0.58183   0.00000  Uiso   1.00
C1132  C     0.12204   0.84991   0.21809   0.00000  Uiso   1.00
C1133  C     0.39268   0.63351   0.71491   0.00000  Uiso   1.00
C1134  C     0.10098   0.87189   0.28237   0.00000  Uiso   1.00
C1135  C     0.36889   0.89512   0.71594   0.00000  Uiso   1.00
C1136  C     0.13210   0.60487   0.28488   0.00000  Uiso   1.00
C1137  C     0.10733   0.86649   0.71491   0.00000  Uiso   1.00
C1138  C     0.39902   0.62811   0.28237   0.00000  Uiso   1.00
C1139  C     0.13112   0.60488   0.71594   0.00000  Uiso   1.00
C1140  C     0.36790   0.89513   0.28487   0.00000  Uiso   1.00
C1141  C     0.39379   0.86664   0.28495   0.00000  Uiso   1.00
C1142  C     0.25830   0.53219   0.91757   0.00000  Uiso   1.00
C1143  C     0.10107   0.62871   0.71830   0.00000  Uiso   1.00
C1144  C     0.37119   0.60146   0.28238   0.00000  Uiso   1.00
C1145  C     0.13062   0.89694   0.71706   0.00000  Uiso   1.00
C1146  C     0.10621   0.63337   0.28495   0.00000  Uiso   1.00
C1147  C     0.39894   0.87129   0.71830   0.00000  Uiso   1.00
C1148  C     0.12880   0.89853   0.28239   0.00000  Uiso   1.00
C1149  C     0.36939   0.60306   0.71707   0.00000  Uiso   1.00
C1150  C     0.01750   0.72134   0.45886   0.00000  Uiso   1.00
C1151  C     0.48100   0.77768   0.54092   0.00000  Uiso   1.00
C1152  C     0.28088   0.51309   0.45900   0.00000  Uiso   1.00
H1153  H     0.22186   0.85177   0.15832   0.00000  Uiso   1.00
H1154  H     0.33902   0.62242   0.84644   0.00000  Uiso   1.00
H1155  H     0.13274   0.59451   0.34804   0.00000  Uiso   1.00
H1156  H     0.04585   0.86252   0.63808   0.00000  Uiso   1.00
H1157  H     0.03430   0.85511   0.68843   0.00000  Uiso   1.00
H1158  H     0.05266   0.89853   0.67275   0.00000  Uiso   1.00
H1159  H     0.11031   0.86241   0.65138   0.00000  Uiso   1.00
H1160  H     0.09251   0.82428   0.67262   0.00000  Uiso   1.00
H1161  H     0.45306   0.57852   0.30106   0.00000  Uiso   1.00
H1162  H     0.47418   0.61814   0.27922   0.00000  Uiso   1.00
H1163  H     0.48029   0.60897   0.33031   0.00000  Uiso   1.00
H1164  H     0.43541   0.65858   0.32140   0.00000  Uiso   1.00
H1165  H     0.10467   0.69295   0.13082   0.00000  Uiso   1.00
H1166  H     0.41578   0.62108   0.34365   0.00000  Uiso   1.00
H1167  H     0.12348   0.53888   0.64442   0.00000  Uiso   1.00
H1168  H     0.13634   0.52937   0.69414   0.00000  Uiso   1.00
H1169  H     0.09291   0.55024   0.68326   0.00000  Uiso   1.00
H1170  H     0.13288   0.60322   0.65231   0.00000  Uiso   1.00
H1171  H     0.16982   0.58277   0.67334   0.00000  Uiso   1.00
H1172  H     0.41974   0.94064   0.31488   0.00000  Uiso   1.00
H1173  H     0.38549   0.96913   0.29249   0.00000  Uiso   1.00
H1174  H     0.39029   0.96817   0.34469   0.00000  Uiso   1.00
H1175  H     0.33660   0.93231   0.32295   0.00000  Uiso   1.00
H1176  H     0.10105   0.70972   0.17997   0.00000  Uiso   1.00
H1177  H     0.36727   0.90549   0.34803   0.00000  Uiso   1.00
H1178  H     0.36502   0.84265   0.35761   0.00000  Uiso   1.00
H1179  H     0.38073   0.80574   0.32742   0.00000  Uiso   1.00
H1180  H     0.40558   0.81779   0.37050   0.00000  Uiso   1.00
H1181  H     0.44000   0.84330   0.31716   0.00000  Uiso   1.00
H1182  H     0.42008   0.87957   0.34087   0.00000  Uiso   1.00
H1183  H     0.04493   0.58144   0.71789   0.00000  Uiso   1.00
H1184  H     0.02286   0.62465   0.72655   0.00000  Uiso   1.00
H1185  H     0.01764   0.60200   0.68045   0.00000  Uiso   1.00
H1186  H     0.06277   0.65553   0.67907   0.00000  Uiso   1.00
H1187  H     0.14277   0.68855   0.16353   0.00000  Uiso   1.00
H1188  H     0.07753   0.61347   0.66098   0.00000  Uiso   1.00
H1189  H     0.35553   0.61976   0.36076   0.00000  Uiso   1.00
H1190  H     0.31568   0.60600   0.33410   0.00000  Uiso   1.00
H1191  H     0.33388   0.57681   0.37099   0.00000  Uiso   1.00
H1192  H     0.35239   0.55060   0.30963   0.00000  Uiso   1.00
H1193  H     0.39137   0.56828   0.33105   0.00000  Uiso   1.00
H1194  H     0.07774   0.94701   0.71173   0.00000  Uiso   1.00
H1195  H     0.11748   0.97292   0.72549   0.00000  Uiso   1.00
H1196  H     0.09850   0.97717   0.67709   0.00000  Uiso   1.00
H1197  H     0.15602   0.93817   0.67972   0.00000  Uiso   1.00
H1198  H     0.10267   0.63021   0.15149   0.00000  Uiso   1.00
H1199  H     0.11754   0.91850   0.65834   0.00000  Uiso   1.00
H1200  H     0.13499   0.65736   0.35760   0.00000  Uiso   1.00
H1201  H     0.11927   0.69426   0.32741   0.00000  Uiso   1.00
H1202  H     0.09442   0.68222   0.37049   0.00000  Uiso   1.00
H1203  H     0.06000   0.65670   0.31717   0.00000  Uiso   1.00
H1204  H     0.07993   0.62044   0.34088   0.00000  Uiso   1.00
H1205  H     0.45508   0.91856   0.71788   0.00000  Uiso   1.00
H1206  H     0.47714   0.87535   0.72655   0.00000  Uiso   1.00
H1207  H     0.48236   0.89799   0.68044   0.00000  Uiso   1.00
H1208  H     0.43723   0.84447   0.67907   0.00000  Uiso   1.00
H1209  H     0.06777   0.65122   0.17387   0.00000  Uiso   1.00
H1210  H     0.42247   0.88653   0.66098   0.00000  Uiso   1.00
H1211  H     0.14447   0.88023   0.36075   0.00000  Uiso   1.00
H1212  H     0.18432   0.89401   0.33410   0.00000  Uiso   1.00
H1213  H     0.16610   0.92318   0.37100   0.00000  Uiso   1.00
H1214  H     0.14761   0.94940   0.30963   0.00000  Uiso   1.00
H1215  H     0.10863   0.93172   0.33105   0.00000  Uiso   1.00
H1216  H     0.42226   0.55299   0.71173   0.00000  Uiso   1.00
H1217  H     0.38252   0.52707   0.72549   0.00000  Uiso   1.00
H1218  H     0.40150   0.52283   0.67709   0.00000  Uiso   1.00
H1219  H     0.34398   0.56183   0.67972   0.00000  Uiso   1.00
H1220  H     0.33011   0.79534   0.80077   0.00000  Uiso   1.00
H1221  H     0.38246   0.58150   0.65835   0.00000  Uiso   1.00
H1222  H     0.37067   0.77517   0.78011   0.00000  Uiso   1.00
H1223  H     0.36056   0.76914   0.83098   0.00000  Uiso   1.00
H1224  H     0.40915   0.81568   0.82260   0.00000  Uiso   1.00
H1225  H     0.22172   0.85272   0.21109   0.00000  Uiso   1.00
H1226  H     0.37057   0.83395   0.84424   0.00000  Uiso   1.00
H1227  H     0.27814   0.64820   0.15832   0.00000  Uiso   1.00
H1228  H     0.27829   0.64727   0.21109   0.00000  Uiso   1.00
H1229  H     0.30765   0.67763   0.18469   0.00000  Uiso   1.00
H1230  H     0.33870   0.61975   0.15543   0.00000  Uiso   1.00
H1231  H     0.30881   0.59389   0.18318   0.00000  Uiso   1.00
H1232  H     0.19494   0.82703   0.80963   0.00000  Uiso   1.00
H1233  H     0.22134   0.86232   0.78603   0.00000  Uiso   1.00
H1234  H     0.22400   0.85635   0.83802   0.00000  Uiso   1.00
H1235  H     0.18598   0.90991   0.82117   0.00000  Uiso   1.00
H1236  H     0.19235   0.82236   0.18472   0.00000  Uiso   1.00
H1237  H     0.16097   0.87757   0.84644   0.00000  Uiso   1.00
H1238  H     0.39532   0.80704   0.13083   0.00000  Uiso   1.00
H1239  H     0.39894   0.79028   0.17998   0.00000  Uiso   1.00
H1240  H     0.35722   0.81145   0.16354   0.00000  Uiso   1.00
H1241  H     0.39733   0.86978   0.15148   0.00000  Uiso   1.00
H1242  H     0.43222   0.84876   0.17387   0.00000  Uiso   1.00
H1243  H     0.12933   0.72483   0.78010   0.00000  Uiso   1.00
H1244  H     0.13944   0.73086   0.83097   0.00000  Uiso   1.00
H1245  H     0.16989   0.70466   0.80077   0.00000  Uiso   1.00
H1246  H     0.09086   0.68432   0.82260   0.00000  Uiso   1.00
H1247  H     0.16131   0.88025   0.15544   0.00000  Uiso   1.00
H1248  H     0.12943   0.66605   0.84424   0.00000  Uiso   1.00
H1249  H     0.12870   0.60492   0.85851   0.00000  Uiso   1.00
H1250  H     0.15056   0.56482   0.83941   0.00000  Uiso   1.00
H1251  H     0.17304   0.59188   0.87595   0.00000  Uiso   1.00
H1252  H     0.19961   0.60248   0.81008   0.00000  Uiso   1.00
H1253  H     0.18263   0.64250   0.83018   0.00000  Uiso   1.00
H1254  H     0.29435   0.84635   0.19411   0.00000  Uiso   1.00
H1255  H     0.27807   0.89147   0.20657   0.00000  Uiso   1.00
H1256  H     0.27866   0.87728   0.15683   0.00000  Uiso   1.00
H1257  H     0.33108   0.91914   0.17056   0.00000  Uiso   1.00
H1258  H     0.19121   0.90610   0.18319   0.00000  Uiso   1.00
H1259  H     0.34153   0.87572   0.15265   0.00000  Uiso   1.00
H1260  H     0.09872   0.87916   0.85976   0.00000  Uiso   1.00
H1261  H     0.06047   0.86538   0.83041   0.00000  Uiso   1.00
H1262  H     0.07380   0.83822   0.87135   0.00000  Uiso   1.00
H1263  H     0.09652   0.80624   0.81512   0.00000  Uiso   1.00
H1264  H     0.13426   0.82482   0.83799   0.00000  Uiso   1.00
H1265  H     0.34777   0.71542   0.21901   0.00000  Uiso   1.00
H1266  H     0.39366   0.73112   0.21079   0.00000  Uiso   1.00
H1267  H     0.36120   0.73214   0.17191   0.00000  Uiso   1.00
H1268  H     0.41032   0.67829   0.17433   0.00000  Uiso   1.00
H1269  H     0.30506   0.67297   0.80963   0.00000  Uiso   1.00
H1270  H     0.36596   0.67083   0.15880   0.00000  Uiso   1.00
H1271  H     0.37130   0.89508   0.85851   0.00000  Uiso   1.00
H1272  H     0.34944   0.93518   0.83941   0.00000  Uiso   1.00
H1273  H     0.32696   0.90812   0.87595   0.00000  Uiso   1.00
H1274  H     0.30039   0.89752   0.81008   0.00000  Uiso   1.00
H1275  H     0.31737   0.85750   0.83018   0.00000  Uiso   1.00
H1276  H     0.20567   0.65363   0.19410   0.00000  Uiso   1.00
H1277  H     0.22193   0.60850   0.20656   0.00000  Uiso   1.00
H1278  H     0.22134   0.62269   0.15682   0.00000  Uiso   1.00
H1279  H     0.16891   0.58085   0.17055   0.00000  Uiso   1.00
H1280  H     0.27865   0.63768   0.78603   0.00000  Uiso   1.00
H1281  H     0.15847   0.62429   0.15266   0.00000  Uiso   1.00
H1282  H     0.40127   0.62083   0.85975   0.00000  Uiso   1.00
H1283  H     0.43953   0.63462   0.83041   0.00000  Uiso   1.00
H1284  H     0.42618   0.66177   0.87135   0.00000  Uiso   1.00
H1285  H     0.40348   0.69376   0.81512   0.00000  Uiso   1.00
H1286  H     0.36574   0.67518   0.83799   0.00000  Uiso   1.00
H1287  H     0.15220   0.78457   0.21901   0.00000  Uiso   1.00
H1288  H     0.10632   0.76889   0.21077   0.00000  Uiso   1.00
H1289  H     0.13879   0.76786   0.17191   0.00000  Uiso   1.00
H1290  H     0.08968   0.82172   0.17432   0.00000  Uiso   1.00
H1291  H     0.27600   0.64365   0.83802   0.00000  Uiso   1.00
H1292  H     0.13405   0.82917   0.15880   0.00000  Uiso   1.00
H1293  H     0.45416   0.63748   0.63808   0.00000  Uiso   1.00
H1294  H     0.46571   0.64489   0.68843   0.00000  Uiso   1.00
H1295  H     0.44735   0.60147   0.67276   0.00000  Uiso   1.00
H1296  H     0.38970   0.63759   0.65138   0.00000  Uiso   1.00
H1297  H     0.40750   0.67572   0.67262   0.00000  Uiso   1.00
H1298  H     0.04693   0.92147   0.30105   0.00000  Uiso   1.00
H1299  H     0.02582   0.88186   0.27922   0.00000  Uiso   1.00
H1300  H     0.01971   0.89102   0.33030   0.00000  Uiso   1.00
H1301  H     0.06459   0.84142   0.32140   0.00000  Uiso   1.00
H1302  H     0.31401   0.59009   0.82117   0.00000  Uiso   1.00
H1303  H     0.08421   0.87892   0.34365   0.00000  Uiso   1.00
H1304  H     0.37652   0.96112   0.64442   0.00000  Uiso   1.00
H1305  H     0.36367   0.97063   0.69414   0.00000  Uiso   1.00
H1306  H     0.40710   0.94976   0.68326   0.00000  Uiso   1.00
H1307  H     0.36713   0.89678   0.65231   0.00000  Uiso   1.00
H1308  H     0.33018   0.91724   0.67334   0.00000  Uiso   1.00
H1309  H     0.08025   0.55937   0.31490   0.00000  Uiso   1.00
H1310  H     0.11450   0.53087   0.29250   0.00000  Uiso   1.00
H1311  H     0.10970   0.53184   0.34470   0.00000  Uiso   1.00
H1312  H     0.16339   0.56769   0.32295   0.00000  Uiso   1.00
O1313  O     0.25000   0.50000   0.25000   0.00000  Uiso   1.00
O1314  O     0.25000   0.96963   0.66245   0.00000  Uiso   1.00
O1315  O     0.46964   0.75000   0.33755   0.00000  Uiso   1.00
O1316  O     0.03037   0.75000   0.66245   0.00000  Uiso   1.00
O1317  O     0.00000   0.71963   0.83755   0.00000  Uiso   1.00
O1318  O     0.00000   0.78036   0.16245   0.00000  Uiso   1.00
O1319  O     0.28037   0.50000   0.83755   0.00000  Uiso   1.00
O1320  O     0.21964   0.50000   0.16245   0.00000  Uiso   1.00
O1321  O     0.00000   0.78036   0.83755   0.00000  Uiso   1.00
O1322  O     0.00000   0.71963   0.16245   0.00000  Uiso   1.00
O1323  O     0.21964   0.50000   0.83755   0.00000  Uiso   1.00
O1324  O     0.25000   0.50000   0.75000   0.00000  Uiso   1.00
O1325  O     0.28037   0.50000   0.16245   0.00000  Uiso   1.00
O1326  O     0.20725   0.57307   0.27302   0.00000  Uiso   1.00
O1327  O     0.29276   0.92692   0.72698   0.00000  Uiso   1.00
O1328  O     0.42693   0.70724   0.27302   0.00000  Uiso   1.00
O1329  O     0.07308   0.79275   0.72698   0.00000  Uiso   1.00
O1330  O     0.29276   0.92692   0.27302   0.00000  Uiso   1.00
O1331  O     0.20725   0.57307   0.72698   0.00000  Uiso   1.00
O1332  O     0.07308   0.79275   0.27302   0.00000  Uiso   1.00
O1333  O     0.42693   0.70724   0.72698   0.00000  Uiso   1.00
O1334  O     0.20725   0.92692   0.72698   0.00000  Uiso   1.00
O1335  O     0.00000   0.75000   0.25000   0.00000  Uiso   1.00
O1336  O     0.29276   0.57307   0.27302   0.00000  Uiso   1.00
O1337  O     0.42693   0.79275   0.72698   0.00000  Uiso   1.00
O1338  O     0.07308   0.70724   0.27302   0.00000  Uiso   1.00
O1339  O     0.29276   0.57307   0.72698   0.00000  Uiso   1.00
O1340  O     0.20725   0.92692   0.27302   0.00000  Uiso   1.00
O1341  O     0.07308   0.70724   0.72698   0.00000  Uiso   1.00
O1342  O     0.42693   0.79275   0.27302   0.00000  Uiso   1.00
O1343  O     0.45725   0.82307   0.77302   0.00000  Uiso   1.00
O1344  O     0.04276   0.67692   0.22698   0.00000  Uiso   1.00
O1345  O     0.17693   0.95724   0.77302   0.00000  Uiso   1.00
O1346  O     0.00000   0.75000   0.75000   0.00000  Uiso   1.00
O1347  O     0.32308   0.54275   0.22698   0.00000  Uiso   1.00
O1348  O     0.04276   0.67692   0.77302   0.00000  Uiso   1.00
O1349  O     0.45725   0.82307   0.22698   0.00000  Uiso   1.00
O1350  O     0.32308   0.54275   0.77302   0.00000  Uiso   1.00
O1351  O     0.17693   0.95724   0.22698   0.00000  Uiso   1.00
O1352  O     0.45725   0.67692   0.22698   0.00000  Uiso   1.00
O1353  O     0.04276   0.82307   0.77302   0.00000  Uiso   1.00
O1354  O     0.17693   0.54275   0.22698   0.00000  Uiso   1.00
O1355  O     0.32308   0.95724   0.77302   0.00000  Uiso   1.00
O1356  O     0.04276   0.82307   0.22698   0.00000  Uiso   1.00
O1357  O     0.25000   0.96963   0.33755   0.00000  Uiso   1.00
O1358  O     0.45725   0.67692   0.77302   0.00000  Uiso   1.00
O1359  O     0.32308   0.95724   0.22698   0.00000  Uiso   1.00
O1360  O     0.17693   0.54275   0.77302   0.00000  Uiso   1.00
O1361  O     0.25000   0.53036   0.66245   0.00000  Uiso   1.00
O1362  O     0.03037   0.75000   0.33755   0.00000  Uiso   1.00
O1363  O     0.46964   0.75000   0.66245   0.00000  Uiso   1.00
O1364  O     0.25000   0.53036   0.33755   0.00000  Uiso   1.00
Zn1365 Zn    0.20660   0.50000   0.21735   0.00000  Uiso   1.00
Zn1366 Zn    0.04341   0.75000   0.28265   0.00000  Uiso   1.00
Zn1367 Zn    0.25000   0.95659   0.71735   0.00000  Uiso   1.00
Zn1368 Zn    0.25000   0.54340   0.28265   0.00000  Uiso   1.00
Zn1369 Zn    0.04341   0.75000   0.71735   0.00000  Uiso   1.00
Zn1370 Zn    0.45660   0.75000   0.28265   0.00000  Uiso   1.00
Zn1371 Zn    0.25000   0.54340   0.71735   0.00000  Uiso   1.00
Zn1372 Zn    0.25000   0.95659   0.28265   0.00000  Uiso   1.00
Zn1373 Zn    0.29341   0.50000   0.78265   0.00000  Uiso   1.00
Zn1374 Zn    0.00000   0.70659   0.21735   0.00000  Uiso   1.00
Zn1375 Zn    0.00000   0.79340   0.78265   0.00000  Uiso   1.00
Zn1376 Zn    0.29341   0.50000   0.21735   0.00000  Uiso   1.00
Zn1377 Zn    0.20660   0.50000   0.78265   0.00000  Uiso   1.00
Zn1378 Zn    0.00000   0.79340   0.21735   0.00000  Uiso   1.00
Zn1379 Zn    0.00000   0.70659   0.78265   0.00000  Uiso   1.00
Zn1380 Zn    0.45660   0.75000   0.71735   0.00000  Uiso   1.00
Br1381 Br    0.57722   0.66845   0.45253   0.00000  Uiso   1.00
Br1382 Br    0.78070   0.60852   0.04396   0.00000  Uiso   1.00
Br1383 Br    0.58653   0.82190   0.95265   0.00000  Uiso   1.00
Br1384 Br    0.92049   0.67096   0.04570   0.00000  Uiso   1.00
Br1385 Br    0.81216   0.59483   0.95546   0.00000  Uiso   1.00
Br1386 Br    0.71931   0.89147   0.04396   0.00000  Uiso   1.00
Br1387 Br    0.91348   0.67809   0.95266   0.00000  Uiso   1.00
Br1388 Br    0.57951   0.82904   0.04569   0.00000  Uiso   1.00
Br1389 Br    0.98816   0.82700   0.39075   0.00000  Uiso   1.00
Br1390 Br    0.51989   0.67482   0.60973   0.00000  Uiso   1.00
Br1391 Br    0.67227   0.50042   0.39112   0.00000  Uiso   1.00
Br1392 Br    0.91705   0.82527   0.54585   0.00000  Uiso   1.00
Br1393 Br    0.82640   0.51284   0.61062   0.00000  Uiso   1.00
Br1394 Br    0.51184   0.67300   0.39076   0.00000  Uiso   1.00
Br1395 Br    0.98012   0.82518   0.60973   0.00000  Uiso   1.00
Br1396 Br    0.82773   0.99957   0.39112   0.00000  Uiso   1.00
Br1397 Br    0.67360   0.98716   0.61062   0.00000  Uiso   1.00
Br1398 Br    0.75490   0.57736   0.88853   0.00000  Uiso   1.00
Br1399 Br    0.69058   0.94801   0.10728   0.00000  Uiso   1.00
Br1400 Br    0.92258   0.74290   0.89069   0.00000  Uiso   1.00
Br1401 Br    0.57584   0.76638   0.10989   0.00000  Uiso   1.00
Br1402 Br    0.74510   0.92264   0.88854   0.00000  Uiso   1.00
Br1403 Br    0.84248   0.56395   0.45258   0.00000  Uiso   1.00
Br1404 Br    0.80943   0.55198   0.10727   0.00000  Uiso   1.00
Br1405 Br    0.57743   0.75709   0.89068   0.00000  Uiso   1.00
Br1406 Br    0.92416   0.73362   0.10990   0.00000  Uiso   1.00
Br1407 Br    0.66553   0.92624   0.54523   0.00000  Uiso   1.00
Br1408 Br    0.92277   0.83155   0.45253   0.00000  Uiso   1.00
Br1409 Br    0.58295   0.67473   0.54584   0.00000  Uiso   1.00
Br1410 Br    0.65752   0.93605   0.45259   0.00000  Uiso   1.00
Br1411 Br    0.83447   0.57376   0.54522   0.00000  Uiso   1.00
Br1412 Br    0.68784   0.90517   0.95547   0.00000  Uiso   1.00
C1413  C     0.98803   0.78094   0.41831   0.00000  Uiso   1.00
C1414  C     0.72952   0.97379   0.08093   0.00000  Uiso   1.00
C1415  C     0.72024   0.98441   0.54106   0.00000  Uiso   1.00
C1416  C     0.98250   0.77866   0.45886   0.00000  Uiso   1.00
C1417  C     0.51901   0.72232   0.54092   0.00000  Uiso   1.00
C1418  C     0.71912   0.98691   0.45900   0.00000  Uiso   1.00
C1419  C     0.77976   0.51559   0.54106   0.00000  Uiso   1.00
C1420  C     0.73689   0.96895   0.95824   0.00000  Uiso   1.00
C1421  C     0.76557   0.52969   0.04042   0.00000  Uiso   1.00
C1422  C     0.52967   0.76573   0.95887   0.00000  Uiso   1.00
C1423  C     0.97137   0.73247   0.04094   0.00000  Uiso   1.00
C1424  C     0.76311   0.53105   0.95824   0.00000  Uiso   1.00
C1425  C     0.96840   0.73998   0.91832   0.00000  Uiso   1.00
C1426  C     0.73444   0.97031   0.04043   0.00000  Uiso   1.00
C1427  C     0.97033   0.73427   0.95888   0.00000  Uiso   1.00
C1428  C     0.52863   0.76753   0.04093   0.00000  Uiso   1.00
C1429  C     0.59798   0.84802   0.25019   0.00000  Uiso   1.00
C1430  C     0.90097   0.65264   0.74969   0.00000  Uiso   1.00
C1431  C     0.65179   0.59768   0.25028   0.00000  Uiso   1.00
C1432  C     0.84740   0.90099   0.74966   0.00000  Uiso   1.00
C1433  C     0.90202   0.65198   0.25019   0.00000  Uiso   1.00
C1434  C     0.59903   0.84736   0.74969   0.00000  Uiso   1.00
C1435  C     0.84821   0.90232   0.25027   0.00000  Uiso   1.00
C1436  C     0.53047   0.76305   0.08165   0.00000  Uiso   1.00
C1437  C     0.65260   0.59901   0.74966   0.00000  Uiso   1.00
C1438  C     0.59811   0.65206   0.75079   0.00000  Uiso   1.00
C1439  C     0.90264   0.84922   0.24931   0.00000  Uiso   1.00
C1440  C     0.65220   0.90175   0.75065   0.00000  Uiso   1.00
C1441  C     0.84784   0.59854   0.24970   0.00000  Uiso   1.00
C1442  C     0.90189   0.84794   0.75079   0.00000  Uiso   1.00
C1443  C     0.59736   0.65078   0.24931   0.00000  Uiso   1.00
C1444  C     0.84780   0.59825   0.75065   0.00000  Uiso   1.00
C1445  C     0.65216   0.90146   0.24970   0.00000  Uiso   1.00
C1446  C     0.50000   0.75000   0.47941   0.00000  Uiso   1.00
C1447  C     0.74170   0.96781   0.91757   0.00000  Uiso   1.00
C1448  C     0.50000   0.75000   0.52040   0.00000  Uiso   1.00
C1449  C     0.75000   0.50000   0.47956   0.00000  Uiso   1.00
C1450  C     0.75000   0.50000   0.52056   0.00000  Uiso   1.00
C1451  C     0.75000   0.50000   0.97879   0.00000  Uiso   1.00
C1452  C     0.75000   0.50000   0.01984   0.00000  Uiso   1.00
C1453  C     0.50000   0.75000   0.97942   0.00000  Uiso   1.00
C1454  C     0.50000   0.75000   0.02042   0.00000  Uiso   1.00
C1455  C     0.67604   0.88007   0.18358   0.00000  Uiso   1.00
C1456  C     0.70459   0.84984   0.18466   0.00000  Uiso   1.00
C1457  C     0.82572   0.61773   0.81800   0.00000  Uiso   1.00
C1458  C     0.77048   0.52620   0.08093   0.00000  Uiso   1.00
C1459  C     0.79450   0.64472   0.81252   0.00000  Uiso   1.00
C1460  C     0.59778   0.65096   0.17428   0.00000  Uiso   1.00
C1461  C     0.61261   0.68786   0.16147   0.00000  Uiso   1.00
C1462  C     0.88053   0.82310   0.81620   0.00000  Uiso   1.00
C1463  C     0.85913   0.78861   0.80628   0.00000  Uiso   1.00
C1464  C     0.82397   0.61992   0.18358   0.00000  Uiso   1.00
C1465  C     0.79541   0.65015   0.18465   0.00000  Uiso   1.00
C1466  C     0.67428   0.88227   0.81800   0.00000  Uiso   1.00
C1467  C     0.70550   0.85528   0.81252   0.00000  Uiso   1.00
C1468  C     0.90222   0.84903   0.17428   0.00000  Uiso   1.00
C1469  C     0.53160   0.76001   0.91832   0.00000  Uiso   1.00
C1470  C     0.88738   0.81213   0.16148   0.00000  Uiso   1.00
C1471  C     0.61947   0.67690   0.81620   0.00000  Uiso   1.00
C1472  C     0.64087   0.71139   0.80628   0.00000  Uiso   1.00
C1473  C     0.67364   0.61589   0.81822   0.00000  Uiso   1.00
C1474  C     0.65527   0.59306   0.84988   0.00000  Uiso   1.00
C1475  C     0.83194   0.88997   0.17893   0.00000  Uiso   1.00
C1476  C     0.79347   0.87538   0.18489   0.00000  Uiso   1.00
C1477  C     0.60961   0.83283   0.82152   0.00000  Uiso   1.00
C1478  C     0.58420   0.85534   0.84728   0.00000  Uiso   1.00
C1479  C     0.88183   0.67787   0.18498   0.00000  Uiso   1.00
C1480  C     0.96953   0.73695   0.08165   0.00000  Uiso   1.00
C1481  C     0.87041   0.71632   0.19763   0.00000  Uiso   1.00
C1482  C     0.82636   0.88411   0.81823   0.00000  Uiso   1.00
C1483  C     0.84473   0.90694   0.84988   0.00000  Uiso   1.00
C1484  C     0.66806   0.61003   0.17893   0.00000  Uiso   1.00
C1485  C     0.70653   0.62460   0.18488   0.00000  Uiso   1.00
C1486  C     0.89039   0.66717   0.82152   0.00000  Uiso   1.00
C1487  C     0.91579   0.64466   0.84728   0.00000  Uiso   1.00
C1488  C     0.61817   0.82213   0.18498   0.00000  Uiso   1.00
C1489  C     0.62957   0.78367   0.19762   0.00000  Uiso   1.00
C1490  C     0.90782   0.64572   0.67563   0.00000  Uiso   1.00
C1491  C     0.50000   0.75000   0.39818   0.00000  Uiso   1.00
C1492  C     0.94615   0.63141   0.66849   0.00000  Uiso   1.00
C1493  C     0.57305   0.86987   0.31540   0.00000  Uiso   1.00
C1494  C     0.53934   0.89249   0.30579   0.00000  Uiso   1.00
C1495  C     0.85980   0.91400   0.67761   0.00000  Uiso   1.00
C1496  C     0.87800   0.95116   0.67480   0.00000  Uiso   1.00
C1497  C     0.63595   0.57971   0.32021   0.00000  Uiso   1.00
C1498  C     0.60836   0.54859   0.31788   0.00000  Uiso   1.00
C1499  C     0.59219   0.85428   0.67563   0.00000  Uiso   1.00
C1500  C     0.55386   0.86859   0.66849   0.00000  Uiso   1.00
C1501  C     0.92695   0.63013   0.31540   0.00000  Uiso   1.00
C1502  C     0.50000   0.75000   0.60174   0.00000  Uiso   1.00
C1503  C     0.96065   0.60751   0.30580   0.00000  Uiso   1.00
C1504  C     0.64020   0.58600   0.67761   0.00000  Uiso   1.00
C1505  C     0.62200   0.54884   0.67481   0.00000  Uiso   1.00
C1506  C     0.86405   0.92029   0.32021   0.00000  Uiso   1.00
C1507  C     0.89164   0.95141   0.31787   0.00000  Uiso   1.00
C1508  C     0.91299   0.85569   0.32267   0.00000  Uiso   1.00
C1509  C     0.88959   0.82892   0.34590   0.00000  Uiso   1.00
C1510  C     0.57032   0.62758   0.68823   0.00000  Uiso   1.00
C1511  C     0.53697   0.60780   0.70446   0.00000  Uiso   1.00
C1512  C     0.86530   0.57689   0.31769   0.00000  Uiso   1.00
C1513  C     0.75000   0.50000   0.39829   0.00000  Uiso   1.00
C1514  C     0.84124   0.59611   0.34764   0.00000  Uiso   1.00
C1515  C     0.62864   0.92728   0.68665   0.00000  Uiso   1.00
C1516  C     0.60417   0.95799   0.70127   0.00000  Uiso   1.00
C1517  C     0.58702   0.64432   0.32267   0.00000  Uiso   1.00
C1518  C     0.61041   0.67109   0.34590   0.00000  Uiso   1.00
C1519  C     0.92968   0.87242   0.68823   0.00000  Uiso   1.00
C1520  C     0.96303   0.89220   0.70445   0.00000  Uiso   1.00
C1521  C     0.63470   0.92310   0.31769   0.00000  Uiso   1.00
C1522  C     0.65875   0.90388   0.34764   0.00000  Uiso   1.00
C1523  C     0.87137   0.57272   0.68665   0.00000  Uiso   1.00
C1524  C     0.51454   0.72018   0.58162   0.00000  Uiso   1.00
C1525  C     0.75000   0.50000   0.60185   0.00000  Uiso   1.00
C1526  C     0.89583   0.54201   0.70127   0.00000  Uiso   1.00
C1527  C     0.75000   0.50000   0.89773   0.00000  Uiso   1.00
C1528  C     0.75000   0.50000   0.10138   0.00000  Uiso   1.00
C1529  C     0.50000   0.75000   0.89820   0.00000  Uiso   1.00
C1530  C     0.50000   0.75000   0.10175   0.00000  Uiso   1.00
C1531  C     0.54089   0.69734   0.47930   0.00000  Uiso   1.00
C1532  C     0.95761   0.80139   0.52018   0.00000  Uiso   1.00
C1533  C     0.80789   0.53304   0.47938   0.00000  Uiso   1.00
C1534  C     0.69367   0.96444   0.52019   0.00000  Uiso   1.00
C1535  C     0.95911   0.80266   0.47930   0.00000  Uiso   1.00
C1536  C     0.71764   0.99296   0.41847   0.00000  Uiso   1.00
C1537  C     0.54240   0.69861   0.52018   0.00000  Uiso   1.00
C1538  C     0.69211   0.96696   0.47939   0.00000  Uiso   1.00
C1539  C     0.80633   0.53557   0.52018   0.00000  Uiso   1.00
C1540  C     0.72091   0.93982   0.97916   0.00000  Uiso   1.00
C1541  C     0.77704   0.56096   0.01972   0.00000  Uiso   1.00
C1542  C     0.55503   0.78769   0.97932   0.00000  Uiso   1.00
C1543  C     0.94636   0.71047   0.02018   0.00000  Uiso   1.00
C1544  C     0.77909   0.56018   0.97916   0.00000  Uiso   1.00
C1545  C     0.72297   0.93904   0.01972   0.00000  Uiso   1.00
C1546  C     0.94498   0.71230   0.97933   0.00000  Uiso   1.00
C1547  C     0.78119   0.51127   0.58183   0.00000  Uiso   1.00
C1548  C     0.55364   0.78953   0.02017   0.00000  Uiso   1.00
C1549  C     0.75000   0.50000   0.35585   0.00000  Uiso   1.00
C1550  C     0.75000   0.50000   0.64421   0.00000  Uiso   1.00
C1551  C     0.50000   0.75000   0.35580   0.00000  Uiso   1.00
C1552  C     0.50000   0.75000   0.64418   0.00000  Uiso   1.00
C1553  C     0.50000   0.75000   0.85582   0.00000  Uiso   1.00
C1554  C     0.50000   0.75000   0.14417   0.00000  Uiso   1.00
C1555  C     0.75000   0.50000   0.85563   0.00000  Uiso   1.00
C1556  C     0.75000   0.50000   0.14403   0.00000  Uiso   1.00
C1557  C     0.67976   0.56962   0.25045   0.00000  Uiso   1.00
C1558  C     0.51197   0.71906   0.41831   0.00000  Uiso   1.00
C1559  C     0.82015   0.93010   0.74953   0.00000  Uiso   1.00
C1560  C     0.93032   0.67980   0.25036   0.00000  Uiso   1.00
C1561  C     0.56990   0.82015   0.74953   0.00000  Uiso   1.00
C1562  C     0.82024   0.93038   0.25045   0.00000  Uiso   1.00
C1563  C     0.67985   0.56990   0.74953   0.00000  Uiso   1.00
C1564  C     0.56968   0.82020   0.25036   0.00000  Uiso   1.00
C1565  C     0.93010   0.67984   0.74953   0.00000  Uiso   1.00
C1566  C     0.68023   0.92987   0.75033   0.00000  Uiso   1.00
C1567  C     0.81972   0.57029   0.24964   0.00000  Uiso   1.00
C1568  C     0.92985   0.81974   0.75046   0.00000  Uiso   1.00
C1569  C     0.98546   0.77982   0.58162   0.00000  Uiso   1.00
C1570  C     0.57028   0.68015   0.24926   0.00000  Uiso   1.00
C1571  C     0.81977   0.57013   0.75033   0.00000  Uiso   1.00
C1572  C     0.68028   0.92971   0.24964   0.00000  Uiso   1.00
C1573  C     0.57015   0.68026   0.75046   0.00000  Uiso   1.00
C1574  C     0.92972   0.81985   0.24927   0.00000  Uiso   1.00
C1575  C     0.64933   0.87726   0.21760   0.00000  Uiso   1.00
C1576  C     0.85252   0.62034   0.78406   0.00000  Uiso   1.00
C1577  C     0.61335   0.63924   0.21362   0.00000  Uiso   1.00
C1578  C     0.87813   0.85091   0.78309   0.00000  Uiso   1.00
C1579  C     0.85068   0.62274   0.21760   0.00000  Uiso   1.00
C1580  C     0.78236   0.50703   0.41847   0.00000  Uiso   1.00
C1581  C     0.64748   0.87966   0.78406   0.00000  Uiso   1.00
C1582  C     0.88665   0.86076   0.21362   0.00000  Uiso   1.00
C1583  C     0.62187   0.64909   0.78309   0.00000  Uiso   1.00
C1584  C     0.64845   0.62108   0.78327   0.00000  Uiso   1.00
C1585  C     0.85623   0.88425   0.21489   0.00000  Uiso   1.00
C1586  C     0.61887   0.85381   0.78444   0.00000  Uiso   1.00
C1587  C     0.87796   0.65009   0.21809   0.00000  Uiso   1.00
C1588  C     0.85155   0.87891   0.78327   0.00000  Uiso   1.00
C1589  C     0.64377   0.61575   0.21489   0.00000  Uiso   1.00
C1590  C     0.88113   0.64619   0.78444   0.00000  Uiso   1.00
C1591  C     0.71881   0.98873   0.58183   0.00000  Uiso   1.00
C1592  C     0.62204   0.84991   0.21809   0.00000  Uiso   1.00
C1593  C     0.89268   0.63351   0.71491   0.00000  Uiso   1.00
C1594  C     0.60098   0.87189   0.28237   0.00000  Uiso   1.00
C1595  C     0.86889   0.89512   0.71594   0.00000  Uiso   1.00
C1596  C     0.63210   0.60487   0.28488   0.00000  Uiso   1.00
C1597  C     0.60733   0.86649   0.71491   0.00000  Uiso   1.00
C1598  C     0.89902   0.62811   0.28237   0.00000  Uiso   1.00
C1599  C     0.63112   0.60488   0.71594   0.00000  Uiso   1.00
C1600  C     0.86790   0.89513   0.28487   0.00000  Uiso   1.00
C1601  C     0.89379   0.86664   0.28495   0.00000  Uiso   1.00
C1602  C     0.75830   0.53219   0.91757   0.00000  Uiso   1.00
C1603  C     0.60107   0.62871   0.71830   0.00000  Uiso   1.00
C1604  C     0.87119   0.60146   0.28238   0.00000  Uiso   1.00
C1605  C     0.63062   0.89694   0.71706   0.00000  Uiso   1.00
C1606  C     0.60621   0.63337   0.28495   0.00000  Uiso   1.00
C1607  C     0.89894   0.87129   0.71830   0.00000  Uiso   1.00
C1608  C     0.62880   0.89853   0.28239   0.00000  Uiso   1.00
C1609  C     0.86939   0.60306   0.71707   0.00000  Uiso   1.00
C1610  C     0.51750   0.72134   0.45886   0.00000  Uiso   1.00
C1611  C     0.98100   0.77768   0.54092   0.00000  Uiso   1.00
C1612  C     0.78088   0.51309   0.45900   0.00000  Uiso   1.00
H1613  H     0.72186   0.85177   0.15832   0.00000  Uiso   1.00
H1614  H     0.83902   0.62242   0.84644   0.00000  Uiso   1.00
H1615  H     0.63274   0.59451   0.34804   0.00000  Uiso   1.00
H1616  H     0.54585   0.86252   0.63808   0.00000  Uiso   1.00
H1617  H     0.53430   0.85511   0.68843   0.00000  Uiso   1.00
H1618  H     0.55266   0.89853   0.67275   0.00000  Uiso   1.00
H1619  H     0.61031   0.86241   0.65138   0.00000  Uiso   1.00
H1620  H     0.59251   0.82428   0.67262   0.00000  Uiso   1.00
H1621  H     0.95306   0.57852   0.30106   0.00000  Uiso   1.00
H1622  H     0.97418   0.61814   0.27922   0.00000  Uiso   1.00
H1623  H     0.98029   0.60897   0.33031   0.00000  Uiso   1.00
H1624  H     0.93541   0.65858   0.32140   0.00000  Uiso   1.00
H1625  H     0.60467   0.69295   0.13082   0.00000  Uiso   1.00
H1626  H     0.91578   0.62108   0.34365   0.00000  Uiso   1.00
H1627  H     0.62348   0.53888   0.64442   0.00000  Uiso   1.00
H1628  H     0.63634   0.52937   0.69414   0.00000  Uiso   1.00
H1629  H     0.59291   0.55024   0.68326   0.00000  Uiso   1.00
H1630  H     0.63288   0.60322   0.65231   0.00000  Uiso   1.00
H1631  H     0.66982   0.58277   0.67334   0.00000  Uiso   1.00
H1632  H     0.91974   0.94064   0.31488   0.00000  Uiso   1.00
H1633  H     0.88549   0.96913   0.29249   0.00000  Uiso   1.00
H1634  H     0.89029   0.96817   0.34469   0.00000  Uiso   1.00
H1635  H     0.83660   0.93231   0.32295   0.00000  Uiso   1.00
H1636  H     0.60105   0.70972   0.17997   0.00000  Uiso   1.00
H1637  H     0.86727   0.90549   0.34803   0.00000  Uiso   1.00
H1638  H     0.86502   0.84265   0.35761   0.00000  Uiso   1.00
H1639  H     0.88073   0.80574   0.32742   0.00000  Uiso   1.00
H1640  H     0.90558   0.81779   0.37050   0.00000  Uiso   1.00
H1641  H     0.94000   0.84330   0.31716   0.00000  Uiso   1.00
H1642  H     0.92008   0.87957   0.34087   0.00000  Uiso   1.00
H1643  H     0.54493   0.58144   0.71789   0.00000  Uiso   1.00
H1644  H     0.52286   0.62465   0.72655   0.00000  Uiso   1.00
H1645  H     0.51764   0.60200   0.68045   0.00000  Uiso   1.00
H1646  H     0.56277   0.65553   0.67907   0.00000  Uiso   1.00
H1647  H     0.64277   0.68855   0.16353   0.00000  Uiso   1.00
H1648  H     0.57753   0.61347   0.66098   0.00000  Uiso   1.00
H1649  H     0.85553   0.61976   0.36076   0.00000  Uiso   1.00
H1650  H     0.81568   0.60600   0.33410   0.00000  Uiso   1.00
H1651  H     0.83388   0.57681   0.37099   0.00000  Uiso   1.00
H1652  H     0.85239   0.55060   0.30963   0.00000  Uiso   1.00
H1653  H     0.89137   0.56828   0.33105   0.00000  Uiso   1.00
H1654  H     0.57774   0.94701   0.71173   0.00000  Uiso   1.00
H1655  H     0.61748   0.97292   0.72549   0.00000  Uiso   1.00
H1656  H     0.59850   0.97717   0.67709   0.00000  Uiso   1.00
H1657  H     0.65602   0.93817   0.67972   0.00000  Uiso   1.00
H1658  H     0.60267   0.63021   0.15149   0.00000  Uiso   1.00
H1659  H     0.61754   0.91850   0.65834   0.00000  Uiso   1.00
H1660  H     0.63499   0.65736   0.35760   0.00000  Uiso   1.00
H1661  H     0.61927   0.69426   0.32741   0.00000  Uiso   1.00
H1662  H     0.59442   0.68222   0.37049   0.00000  Uiso   1.00
H1663  H     0.56000   0.65670   0.31717   0.00000  Uiso   1.00
H1664  H     0.57993   0.62044   0.34088   0.00000  Uiso   1.00
H1665  H     0.95508   0.91856   0.71788   0.00000  Uiso   1.00
H1666  H     0.97714   0.87535   0.72655   0.00000  Uiso   1.00
H1667  H     0.98236   0.89799   0.68044   0.00000  Uiso   1.00
H1668  H     0.93723   0.84447   0.67907   0.00000  Uiso   1.00
H1669  H     0.56777   0.65122   0.17387   0.00000  Uiso   1.00
H1670  H     0.92247   0.88653   0.66098   0.00000  Uiso   1.00
H1671  H     0.64447   0.88023   0.36075   0.00000  Uiso   1.00
H1672  H     0.68432   0.89401   0.33410   0.00000  Uiso   1.00
H1673  H     0.66610   0.92318   0.37100   0.00000  Uiso   1.00
H1674  H     0.64761   0.94940   0.30963   0.00000  Uiso   1.00
H1675  H     0.60863   0.93172   0.33105   0.00000  Uiso   1.00
H1676  H     0.92226   0.55299   0.71173   0.00000  Uiso   1.00
H1677  H     0.88252   0.52707   0.72549   0.00000  Uiso   1.00
H1678  H     0.90150   0.52283   0.67709   0.00000  Uiso   1.00
H1679  H     0.84398   0.56183   0.67972   0.00000  Uiso   1.00
H1680  H     0.83011   0.79534   0.80077   0.00000  Uiso   1.00
H1681  H     0.88246   0.58150   0.65835   0.00000  Uiso   1.00
H1682  H     0.87067   0.77517   0.78011   0.00000  Uiso   1.00
H1683  H     0.86056   0.76914   0.83098   0.00000  Uiso   1.00
H1684  H     0.90915   0.81568   0.82260   0.00000  Uiso   1.00
H1685  H     0.72172   0.85272   0.21109   0.00000  Uiso   1.00
H1686  H     0.87057   0.83395   0.84424   0.00000  Uiso   1.00
H1687  H     0.77814   0.64820   0.15832   0.00000  Uiso   1.00
H1688  H     0.77829   0.64727   0.21109   0.00000  Uiso   1.00
H1689  H     0.80765   0.67763   0.18469   0.00000  Uiso   1.00
H1690  H     0.83870   0.61975   0.15543   0.00000  Uiso   1.00
H1691  H     0.80881   0.59389   0.18318   0.00000  Uiso   1.00
H1692  H     0.69494   0.82703   0.80963   0.00000  Uiso   1.00
H1693  H     0.72134   0.86232   0.78603   0.00000  Uiso   1.00
H1694  H     0.72400   0.85635   0.83802   0.00000  Uiso   1.00
H1695  H     0.68598   0.90991   0.82117   0.00000  Uiso   1.00
H1696  H     0.69235   0.82236   0.18472   0.00000  Uiso   1.00
H1697  H     0.66097   0.87757   0.84644   0.00000  Uiso   1.00
H1698  H     0.89532   0.80704   0.13083   0.00000  Uiso   1.00
H1699  H     0.89894   0.79028   0.17998   0.00000  Uiso   1.00
H1700  H     0.85722   0.81145   0.16354   0.00000  Uiso   1.00
H1701  H     0.89733   0.86978   0.15148   0.00000  Uiso   1.00
H1702  H     0.93222   0.84876   0.17387   0.00000  Uiso   1.00
H1703  H     0.62933   0.72483   0.78010   0.00000  Uiso   1.00
H1704  H     0.63944   0.73086   0.83097   0.00000  Uiso   1.00
H1705  H     0.66989   0.70466   0.80077   0.00000  Uiso   1.00
H1706  H     0.59086   0.68432   0.82260   0.00000  Uiso   1.00
H1707  H     0.66131   0.88025   0.15544   0.00000  Uiso   1.00
H1708  H     0.62943   0.66605   0.84424   0.00000  Uiso   1.00
H1709  H     0.62870   0.60492   0.85851   0.00000  Uiso   1.00
H1710  H     0.65056   0.56482   0.83941   0.00000  Uiso   1.00
H1711  H     0.67304   0.59188   0.87595   0.00000  Uiso   1.00
H1712  H     0.69961   0.60248   0.81008   0.00000  Uiso   1.00
H1713  H     0.68263   0.64250   0.83018   0.00000  Uiso   1.00
H1714  H     0.79435   0.84635   0.19411   0.00000  Uiso   1.00
H1715  H     0.77807   0.89147   0.20657   0.00000  Uiso   1.00
H1716  H     0.77866   0.87728   0.15683   0.00000  Uiso   1.00
H1717  H     0.83108   0.91914   0.17056   0.00000  Uiso   1.00
H1718  H     0.69121   0.90610   0.18319   0.00000  Uiso   1.00
H1719  H     0.84153   0.87572   0.15265   0.00000  Uiso   1.00
H1720  H     0.59872   0.87916   0.85976   0.00000  Uiso   1.00
H1721  H     0.56047   0.86538   0.83041   0.00000  Uiso   1.00
H1722  H     0.57380   0.83822   0.87135   0.00000  Uiso   1.00
H1723  H     0.59652   0.80624   0.81512   0.00000  Uiso   1.00
H1724  H     0.63426   0.82482   0.83799   0.00000  Uiso   1.00
H1725  H     0.84777   0.71542   0.21901   0.00000  Uiso   1.00
H1726  H     0.89366   0.73112   0.21079   0.00000  Uiso   1.00
H1727  H     0.86120   0.73214   0.17191   0.00000  Uiso   1.00
H1728  H     0.91032   0.67829   0.17433   0.00000  Uiso   1.00
H1729  H     0.80506   0.67297   0.80963   0.00000  Uiso   1.00
H1730  H     0.86596   0.67083   0.15880   0.00000  Uiso   1.00
H1731  H     0.87130   0.89508   0.85851   0.00000  Uiso   1.00
H1732  H     0.84944   0.93518   0.83941   0.00000  Uiso   1.00
H1733  H     0.82696   0.90812   0.87595   0.00000  Uiso   1.00
H1734  H     0.80039   0.89752   0.81008   0.00000  Uiso   1.00
H1735  H     0.81737   0.85750   0.83018   0.00000  Uiso   1.00
H1736  H     0.70567   0.65363   0.19410   0.00000  Uiso   1.00
H1737  H     0.72193   0.60850   0.20656   0.00000  Uiso   1.00
H1738  H     0.72134   0.62269   0.15682   0.00000  Uiso   1.00
H1739  H     0.66891   0.58085   0.17055   0.00000  Uiso   1.00
H1740  H     0.77865   0.63768   0.78603   0.00000  Uiso   1.00
H1741  H     0.65847   0.62429   0.15266   0.00000  Uiso   1.00
H1742  H     0.90127   0.62083   0.85975   0.00000  Uiso   1.00
H1743  H     0.93953   0.63462   0.83041   0.00000  Uiso   1.00
H1744  H     0.92618   0.66177   0.87135   0.00000  Uiso   1.00
H1745  H     0.90348   0.69376   0.81512   0.00000  Uiso   1.00
H1746  H     0.86574   0.67518   0.83799   0.00000  Uiso   1.00
H1747  H     0.65220   0.78457   0.21901   0.00000  Uiso   1.00
H1748  H     0.60632   0.76889   0.21077   0.00000  Uiso   1.00
H1749  H     0.63879   0.76786   0.17191   0.00000  Uiso   1.00
H1750  H     0.58968   0.82172   0.17432   0.00000  Uiso   1.00
H1751  H     0.77600   0.64365   0.83802   0.00000  Uiso   1.00
H1752  H     0.63405   0.82917   0.15880   0.00000  Uiso   1.00
H1753  H     0.95416   0.63748   0.63808   0.00000  Uiso   1.00
H1754  H     0.96571   0.64489   0.68843   0.00000  Uiso   1.00
H1755  H     0.94735   0.60147   0.67276   0.00000  Uiso   1.00
H1756  H     0.88970   0.63759   0.65138   0.00000  Uiso   1.00
H1757  H     0.90750   0.67572   0.67262   0.00000  Uiso   1.00
H1758  H     0.54693   0.92147   0.30105   0.00000  Uiso   1.00
H1759  H     0.52582   0.88186   0.27922   0.00000  Uiso   1.00
H1760  H     0.51971   0.89102   0.33030   0.00000  Uiso   1.00
H1761  H     0.56459   0.84142   0.32140   0.00000  Uiso   1.00
H1762  H     0.81401   0.59009   0.82117   0.00000  Uiso   1.00
H1763  H     0.58421   0.87892   0.34365   0.00000  Uiso   1.00
H1764  H     0.87652   0.96112   0.64442   0.00000  Uiso   1.00
H1765  H     0.86367   0.97063   0.69414   0.00000  Uiso   1.00
H1766  H     0.90710   0.94976   0.68326   0.00000  Uiso   1.00
H1767  H     0.86713   0.89678   0.65231   0.00000  Uiso   1.00
H1768  H     0.83018   0.91724   0.67334   0.00000  Uiso   1.00
H1769  H     0.58025   0.55937   0.31490   0.00000  Uiso   1.00
H1770  H     0.61450   0.53087   0.29250   0.00000  Uiso   1.00
H1771  H     0.60970   0.53184   0.34470   0.00000  Uiso   1.00
H1772  H     0.66339   0.56769   0.32295   0.00000  Uiso   1.00
O1773  O     0.75000   0.50000   0.25000   0.00000  Uiso   1.00
O1774  O     0.75000   0.96963   0.66245   0.00000  Uiso   1.00
O1775  O     0.96964   0.75000   0.33755   0.00000  Uiso   1.00
O1776  O     0.53037   0.75000   0.66245   0.00000  Uiso   1.00
O1777  O     0.50000   0.71963   0.83755   0.00000  Uiso   1.00
O1778  O     0.50000   0.78036   0.16245   0.00000  Uiso   1.00
O1779  O     0.78037   0.50000   0.83755   0.00000  Uiso   1.00
O1780  O     0.71964   0.50000   0.16245   0.00000  Uiso   1.00
O1781  O     0.50000   0.78036   0.83755   0.00000  Uiso   1.00
O1782  O     0.50000   0.71963   0.16245   0.00000  Uiso   1.00
O1783  O     0.71964   0.50000   0.83755   0.00000  Uiso   1.00
O1784  O     0.75000   0.50000   0.75000   0.00000  Uiso   1.00
O1785  O     0.78037   0.50000   0.16245   0.00000  Uiso   1.00
O1786  O     0.70725   0.57307   0.27302   0.00000  Uiso   1.00
O1787  O     0.79276   0.92692   0.72698   0.00000  Uiso   1.00
O1788  O     0.92693   0.70724   0.27302   0.00000  Uiso   1.00
O1789  O     0.57308   0.79275   0.72698   0.00000  Uiso   1.00
O1790  O     0.79276   0.92692   0.27302   0.00000  Uiso   1.00
O1791  O     0.70725   0.57307   0.72698   0.00000  Uiso   1.00
O1792  O     0.57308   0.79275   0.27302   0.00000  Uiso   1.00
O1793  O     0.92693   0.70724   0.72698   0.00000  Uiso   1.00
O1794  O     0.70725   0.92692   0.72698   0.00000  Uiso   1.00
O1795  O     0.50000   0.75000   0.25000   0.00000  Uiso   1.00
O1796  O     0.79276   0.57307   0.27302   0.00000  Uiso   1.00
O1797  O     0.92693   0.79275   0.72698   0.00000  Uiso   1.00
O1798  O     0.57308   0.70724   0.27302   0.00000  Uiso   1.00
O1799  O     0.79276   0.57307   0.72698   0.00000  Uiso   1.00
O1800  O     0.70725   0.92692   0.27302   0.00000  Uiso   1.00
O1801  O     0.57308   0.70724   0.72698   0.00000  Uiso   1.00
O1802  O     0.92693   0.79275   0.27302   0.00000  Uiso   1.00
O1803  O     0.95725   0.82307   0.77302   0.00000  Uiso   1.00
O1804  O     0.54276   0.67692   0.22698   0.00000  Uiso   1.00
O1805  O     0.67693   0.95724   0.77302   0.00000  Uiso   1.00
O1806  O     0.50000   0.75000   0.75000   0.00000  Uiso   1.00
O1807  O     0.82308   0.54275   0.22698   0.00000  Uiso   1.00
O1808  O     0.54276   0.67692   0.77302   0.00000  Uiso   1.00
O1809  O     0.95725   0.82307   0.22698   0.00000  Uiso   1.00
O1810  O     0.82308   0.54275   0.77302   0.00000  Uiso   1.00
O1811  O     0.67693   0.95724   0.22698   0.00000  Uiso   1.00
O1812  O     0.95725   0.67692   0.22698   0.00000  Uiso   1.00
O1813  O     0.54276   0.82307   0.77302   0.00000  Uiso   1.00
O1814  O     0.67693   0.54275   0.22698   0.00000  Uiso   1.00
O1815  O     0.82308   0.95724   0.77302   0.00000  Uiso   1.00
O1816  O     0.54276   0.82307   0.22698   0.00000  Uiso   1.00
O1817  O     0.75000   0.96963   0.33755   0.00000  Uiso   1.00
O1818  O     0.95725   0.67692   0.77302   0.00000  Uiso   1.00
O1819  O     0.82308   0.95724   0.22698   0.00000  Uiso   1.00
O1820  O     0.67693   0.54275   0.77302   0.00000  Uiso   1.00
O1821  O     0.75000   0.53036   0.66245   0.00000  Uiso   1.00
O1822  O     0.53037   0.75000   0.33755   0.00000  Uiso   1.00
O1823  O     0.96964   0.75000   0.66245   0.00000  Uiso   1.00
O1824  O     0.75000   0.53036   0.33755   0.00000  Uiso   1.00
Zn1825 Zn    0.70660   0.50000   0.21735   0.00000  Uiso   1.00
Zn1826 Zn    0.54341   0.75000   0.28265   0.00000  Uiso   1.00
Zn1827 Zn    0.75000   0.95659   0.71735   0.00000  Uiso   1.00
Zn1828 Zn    0.75000   0.54340   0.28265   0.00000  Uiso   1.00
Zn1829 Zn    0.54341   0.75000   0.71735   0.00000  Uiso   1.00
Zn1830 Zn    0.95660   0.75000   0.28265   0.00000  Uiso   1.00
Zn1831 Zn    0.75000   0.54340   0.71735   0.00000  Uiso   1.00
Zn1832 Zn    0.75000   0.95659   0.28265   0.00000  Uiso   1.00
Zn1833 Zn    0.79341   0.50000   0.78265   0.00000  Uiso   1.00
Zn1834 Zn    0.50000   0.70659   0.21735   0.00000  Uiso   1.00
Zn1835 Zn    0.50000   0.79340   0.78265   0.00000  Uiso   1.00
Zn1836 Zn    0.79341   0.50000   0.21735   0.00000  Uiso   1.00
Zn1837 Zn    0.70660   0.50000   0.78265   0.00000  Uiso   1.00
Zn1838 Zn    0.50000   0.79340   0.21735   0.00000  Uiso   1.00
Zn1839 Zn    0.50000   0.70659   0.78265   0.00000  Uiso   1.00
Zn1840 Zn    0.95660   0.75000   0.71735   0.00000  Uiso   1.00
loop_
_geom_bond_atom_site_label_1
_geom_bond_atom_site_label_2
_geom_bond_distance
_geom_bond_site_symmetry_2
_ccdc_geom_bond_type
Br1    C151    1.937   .     S
Br2    C161    1.937   .     S
Br3    C162    1.937   .     S
Br4    C163    1.941   .     S
Br5    C164    1.937   .     S
Br6    C165    1.937   .     S
Br7    C166    1.937   .     S
Br8    C168    1.941   .     S
Br9    C33     1.936   .     S
Br10   C144    1.934   .     S
Br11   C1076   1.933   1_545 S
Br12   C152    1.940   .     S
Br13   C167    1.934   .     S
Br14   C178    1.936   .     S
Br15   C189    1.934   .     S
Br16   C1120   1.933   .     S
Br17   C211    1.934   .     S
Br18   C222    1.938   .     S
Br19   C34     1.938   .     S
Br20   C45     1.936   .     S
Br21   C56     1.933   .     S
Br22   C67     1.938   .     S
Br23   C153    1.935   .     S
Br24   C78     1.938   .     S
Br25   C89     1.936   .     S
Br26   C100    1.932   .     S
Br27   C154    1.941   .     S
Br28   C155    1.937   .     S
Br29   C157    1.940   .     S
Br30   C158    1.935   .     S
Br31   C159    1.941   .     S
Br32   C160    1.937   .     S
C33    C36     1.411   .     A
C33    C571    1.400   .     A
C34    C1068   1.408   .     A
C34    C46     1.410   .     A
C35    C154    1.415   .     A
C35    C211    1.411   .     A
C35    C990    1.420   .     S
C36    C155    1.417   .     A
C36    C526    1.420   .     S
C37    C68     1.420   .     A
C37    C144    1.411   .     A
C37    C157    1.415   .     A
C38    C158    1.417   .     A
C38    C156    1.412   .     A
C38    C989    1.420   .     S
C39    C159    1.415   .     A
C39    C70     1.420   .     A
C39    C167    1.411   .     A
C40    C991    1.423   .     A
C40    C67     1.410   .     A
C40    C160    1.415   .     A
C41    C78     1.410   .     A
C41    C161    1.413   .     A
C41    C72     1.418   .     S
C42    C73     1.421   .     A
C42    C162    1.418   .     A
C42    C89     1.412   .     A
C43    C163    1.415   .     A
C43    C100    1.411   .     A
C43    C534    1.420   .     S
C44    C222    1.410   .     A
C44    C164    1.415   .     A
C44    C71     1.423   .     S
C45    C47     1.412   .     A
C45    C609    1.400   .     S
C46    C992    1.418   .     A
C46    C165    1.413   .     A
C47    C166    1.417   .     A
C47    C533    1.421   .     S
C48    C74     1.420   .     A
C48    C56     1.411   .     A
C48    C168    1.415   .     A
C49    C184    1.456   .     S
C49    C212    1.415   .     A
C49    C214    1.415   .     A
C50    C213    1.419   .     A
C50    C210    1.419   .     A
C50    C185    1.462   .     S
C51    C209    1.416   .     A
C51    C216    1.417   .     A
C51    C177    1.454   .     S
C52    C215    1.419   .     A
C52    C179    1.463   .     S
C52    C208    1.419   .     A
C53    C218    1.415   .     A
C53    C180    1.456   .     S
C53    C207    1.415   .     A
C54    C181    1.462   .     S
C54    C206    1.419   .     A
C54    C217    1.419   .     A
C55    C182    1.454   .     S
C55    C205    1.416   .     A
C55    C220    1.417   .     A
C56    C150    1.399   .     A
C57    C204    1.419   .     A
C57    C219    1.419   .     A
C57    C183    1.463   .     S
C58    C223    1.411   .     A
C58    C193    1.458   .     S
C58    C203    1.417   .     A
C59    C202    1.425   .     A
C59    C221    1.419   .     A
C59    C194    1.466   .     S
C60    C201    1.416   .     A
C60    C225    1.411   .     A
C60    C186    1.456   .     S
C61    C199    1.420   .     A
C61    C187    1.462   .     S
C61    C224    1.418   .     A
C62    C227    1.411   .     A
C62    C198    1.417   .     A
C62    C188    1.458   .     S
C63    C197    1.425   .     A
C63    C190    1.466   .     S
C63    C226    1.419   .     A
C64    C191    1.456   .     S
C64    C229    1.411   .     A
C64    C196    1.416   .     A
C65    C195    1.420   .     A
C65    C228    1.418   .     A
C65    C192    1.462   .     S
C66    C68     1.409   .     A
C66    C230    1.420   .     A
C66    C496    1.420   1_455 S
C67    C1067   1.396   .     S
C68    C691    1.420   1_455 S
C69    C232    1.420   .     A
C69    C70     1.409   .     A
C69    C958    1.420   1_545 S
C70    C955    1.420   1_545 S
C71    C960    1.423   1_545 A
C71    C72     1.411   1_556 S
C72    C966    1.418   1_545 A
C72    C71     1.411   1_554 S
C73    C507    1.421   1_455 S
C73    C74     1.409   1_556 S
C74    C503    1.420   1_455 S
C74    C73     1.409   1_554 S
C75    H327    1.109   .     S
C75    C76     1.527   .     S
C75    C195    1.530   .     S
C75    H338    1.105   .     S
C76    H316    1.103   .     S
C76    H305    1.110   .     S
C76    H233    1.108   .     S
C77    H382    1.106   .     S
C77    H234    1.106   .     S
C77    C79     1.527   .     S
C77    C196    1.529   .     S
C78    C148    1.408   .     S
C79    H349    1.110   .     S
C79    H360    1.111   .     S
C79    H371    1.110   .     S
C80    C197    1.530   .     S
C80    H278    1.107   .     S
C80    H289    1.102   .     S
C80    C81     1.523   .     S
C81    H267    1.110   .     S
C81    H245    1.109   .     S
C81    H256    1.108   .     S
C82    C198    1.531   .     S
C82    H304    1.108   .     S
C82    H306    1.105   .     S
C82    C83     1.527   .     S
C83    H300    1.111   .     S
C83    H303    1.110   .     S
C83    H302    1.110   .     S
C84    C199    1.530   .     S
C84    H311    1.105   .     S
C84    C85     1.527   .     S
C84    H310    1.109   .     S
C85    H307    1.108   .     S
C85    H308    1.110   .     S
C85    H309    1.103   .     S
C86    H317    1.106   .     S
C86    H315    1.106   .     S
C86    C87     1.527   .     S
C86    C201    1.529   .     S
C87    H313    1.111   .     S
C87    H312    1.110   .     S
C87    H314    1.110   .     S
C88    C202    1.530   .     S
C88    H321    1.107   .     S
C88    C90     1.523   .     S
C88    H322    1.102   .     S
C89    C149    1.400   .     A
C90    H319    1.108   .     S
C90    H320    1.110   .     S
C90    H318    1.109   .     S
C91    C92     1.527   .     S
C91    C203    1.531   .     S
C91    H328    1.105   .     S
C91    H326    1.108   .     S
C92    H323    1.110   .     S
C92    H325    1.111   .     S
C92    H324    1.110   .     S
C93    H332    1.109   .     S
C93    H333    1.109   .     S
C93    C94     1.529   .     S
C93    C204    1.529   .     S
C94    H331    1.109   .     S
C94    H329    1.109   .     S
C94    H330    1.109   .     S
C95    C96     1.524   .     S
C95    H339    1.102   .     S
C95    C205    1.539   .     S
C95    H337    1.108   .     S
C96    H335    1.106   .     S
C96    H334    1.111   .     S
C96    H336    1.110   .     S
C97    C98     1.529   .     S
C97    C206    1.527   .     S
C97    H343    1.109   .     S
C97    H344    1.108   .     S
C98    H341    1.110   .     S
C98    H340    1.109   .     S
C98    H342    1.106   .     S
C99    C207    1.534   .     S
C99    C101    1.534   .     S
C99    H350    1.103   .     S
C99    H348    1.109   .     S
C100   C610    1.399   .     S
C101   H346    1.108   .     S
C101   H345    1.110   .     S
C101   H347    1.110   .     S
C102   C208    1.529   .     S
C102   H354    1.109   .     S
C102   C103    1.529   .     S
C102   H355    1.109   .     S
C103   H353    1.109   .     S
C103   H352    1.109   .     S
C103   H351    1.109   .     S
C104   H359    1.108   .     S
C104   C105    1.524   .     S
C104   H361    1.102   .     S
C104   C209    1.539   .     S
C105   H358    1.110   .     S
C105   H357    1.106   .     S
C105   H356    1.111   .     S
C106   C107    1.529   .     S
C106   C210    1.527   .     S
C106   H365    1.109   .     S
C106   H366    1.108   .     S
C107   H363    1.110   .     S
C107   H362    1.109   .     S
C107   H364    1.106   .     S
C108   C109    1.534   .     S
C108   H370    1.109   .     S
C108   H372    1.103   .     S
C108   C212    1.534   .     S
C109   H369    1.110   .     S
C109   H368    1.108   .     S
C109   H367    1.110   .     S
C110   H376    1.107   .     S
C110   C112    1.523   .     S
C110   H377    1.105   .     S
C110   C213    1.527   .     S
C111   C493    1.400   1_455 A
C111   C171    1.457   .     S
C111   C178    1.400   .     S
C112   H373    1.108   .     S
C112   H375    1.108   .     S
C112   H374    1.109   .     S
C113   C214    1.532   .     S
C113   H381    1.107   .     S
C113   H383    1.105   .     S
C113   C114    1.527   .     S
C114   H379    1.110   .     S
C114   H380    1.110   .     S
C114   H378    1.110   .     S
C115   C215    1.525   .     S
C115   C116    1.520   .     S
C115   H387    1.108   .     S
C115   H388    1.104   .     S
C116   H385    1.109   .     S
C116   H384    1.108   .     S
C116   H386    1.109   .     S
C117   H392    1.104   .     S
C117   C118    1.528   .     S
C117   H235    1.106   .     S
C117   C216    1.532   .     S
C118   H389    1.110   .     S
C118   H390    1.111   .     S
C118   H391    1.109   .     S
C119   H240    1.105   .     S
C119   H239    1.107   .     S
C119   C120    1.522   .     S
C119   C217    1.527   .     S
C120   H237    1.109   .     S
C120   H238    1.108   .     S
C120   H236    1.108   .     S
C121   H244    1.107   .     S
C121   C218    1.532   .     S
C121   H246    1.105   .     S
C121   C123    1.527   .     S
C122   C144    1.400   .     A
C122   C172    1.459   .     S
C122   C649    1.400   1_455 S
C123   H243    1.110   .     S
C123   H241    1.110   .     S
C123   H242    1.110   .     S
C124   H251    1.104   .     S
C124   H250    1.108   .     S
C124   C219    1.525   .     S
C124   C125    1.520   .     S
C125   H249    1.109   .     S
C125   H248    1.109   .     S
C125   H247    1.108   .     S
C126   C127    1.528   .     S
C126   C220    1.532   .     S
C126   H255    1.104   .     S
C126   H257    1.106   .     S
C127   H254    1.109   .     S
C127   H253    1.111   .     S
C127   H252    1.110   .     S
C128   H261    1.108   .     S
C128   C129    1.529   .     S
C128   C221    1.530   .     S
C128   H262    1.107   .     S
C129   H260    1.107   .     S
C129   H259    1.110   .     S
C129   H258    1.109   .     S
C130   C223    1.531   .     S
C130   C131    1.529   .     S
C130   H268    1.102   .     S
C130   H266    1.108   .     S
C131   H265    1.109   .     S
C131   H263    1.110   .     S
C131   H264    1.108   .     S
C132   C224    1.527   .     S
C132   H272    1.109   .     S
C132   C134    1.529   .     S
C132   H273    1.108   .     S
C133   C1076   1.400   1_545 A
C133   C169    1.459   .     S
C133   C200    1.400   .     S
C134   H269    1.109   .     S
C134   H270    1.109   .     S
C134   H271    1.104   .     S
C135   C225    1.528   .     S
C135   C136    1.526   .     S
C135   H279    1.103   .     S
C135   H277    1.108   .     S
C136   H275    1.110   .     S
C136   H274    1.110   .     S
C136   H276    1.109   .     S
C137   H283    1.108   .     S
C137   H284    1.107   .     S
C137   C226    1.530   .     S
C137   C138    1.529   .     S
C138   H280    1.109   .     S
C138   H281    1.110   .     S
C138   H282    1.107   .     S
C139   C140    1.529   .     S
C139   H288    1.107   .     S
C139   C227    1.531   .     S
C139   H290    1.102   .     S
C140   H285    1.110   .     S
C140   H287    1.109   .     S
C140   H286    1.108   .     S
C141   H294    1.109   .     S
C141   C228    1.527   .     S
C141   H295    1.108   .     S
C141   C142    1.529   .     S
C142   H292    1.109   .     S
C142   H293    1.104   .     S
C142   H291    1.109   .     S
C143   C146    1.526   .     S
C143   H299    1.108   .     S
C143   C229    1.528   .     S
C143   H301    1.103   .     S
C145   C170    1.456   .     S
C145   C167    1.399   .     A
C145   C1131   1.399   1_545 S
C146   H296    1.110   .     S
C146   H298    1.108   .     S
C146   H297    1.110   .     S
C147   C222    1.396   .     A
C147   C175    1.447   .     S
C147   C987    1.396   1_545 S
C148   C954    1.408   1_545 A
C148   C176    1.466   .     S
C149   C173    1.457   .     S
C149   C505    1.400   1_455 S
C150   C174    1.458   .     S
C150   C560    1.399   1_455 S
C151   C230    1.417   .     A
C151   C157    1.407   .     A
C152   C231    1.415   .     A
C152   C155    1.407   .     A
C153   C232    1.417   .     A
C153   C159    1.407   .     A
C154   C158    1.407   .     A
C156   C1053   1.400   .     A
C156   Br931   1.933   .     S
C160   C165    1.397   1_556 S
C161   C164    1.397   1_554 S
C162   C168    1.407   1_556 S
C163   C166    1.407   1_554 S
C164   C161    1.397   1_556 S
C165   C160    1.397   1_554 S
C166   C163    1.407   1_556 S
C168   C162    1.407   1_554 S
C169   O1357   1.279   1_545 A
C169   O444    1.279   .     S
C170   O441    1.278   .     A
C170   O1314   1.278   1_545 S
C171   O855    1.280   1_455 A
C171   O442    1.280   .     S
C172   O396    1.280   .     A
C172   O903    1.280   1_455 S
C173   O397    1.278   .     A
C173   O401    1.278   .     A
C174   O402    1.278   .     A
C174   O398    1.278   .     A
C175   O399    1.277   .     S
C175   O403    1.277   .     S
C176   O400    1.283   .     S
C176   O405    1.283   .     S
C177   O406    1.279   .     A
C177   O434    1.277   .     A
C178   C230    1.411   .     A
C179   O407    1.275   .     A
C179   O435    1.286   .     A
C180   O432    1.279   .     A
C180   O408    1.279   .     A
C181   O409    1.274   .     A
C181   O433    1.287   .     A
C182   O410    1.279   .     A
C182   O439    1.277   .     A
C183   O411    1.275   .     A
C183   O440    1.286   .     A
C184   O436    1.279   .     A
C184   O412    1.279   .     A
C185   O438    1.287   .     A
C185   O413    1.274   .     A
C186   O414    1.281   .     A
C186   O425    1.277   .     A
C187   O427    1.281   .     A
C187   O416    1.280   .     A
C188   O417    1.281   .     A
C188   O423    1.276   .     A
C189   C231    1.411   .     A
C189   C582    1.400   .     S
C190   O424    1.274   .     A
C190   O418    1.290   .     A
C191   O419    1.281   .     A
C191   O430    1.277   .     A
C192   O431    1.281   .     A
C192   O420    1.280   .     A
C193   O428    1.276   .     A
C193   O421    1.281   .     A
C194   O422    1.290   .     A
C194   O429    1.274   .     A
C195   C212    1.417   .     A
C196   C210    1.415   .     A
C197   C209    1.412   .     A
C198   C208    1.417   .     A
C199   C207    1.417   .     A
C200   C232    1.412   .     A
C200   Br936   1.933   1_545 S
C201   C206    1.415   .     A
C202   C205    1.412   .     A
C203   C204    1.417   .     A
C211   C1065   1.399   .     S
C213   C229    1.408   .     A
C214   C228    1.413   .     A
C215   C227    1.410   .     A
C216   C226    1.413   .     A
C217   C225    1.408   .     A
C218   C224    1.413   .     A
C219   C223    1.410   .     A
C220   C221    1.413   .     A
C231   C528    1.420   .     S
O393   Zn456   1.950   .     S
O393   Zn445   1.950   .     S
O393   Zn1372  1.947   1_545 S
O393   Zn448   1.947   .     S
O394   Zn447   1.947   .     S
O394   C1090   1.278   .     S
O395   C631    1.280   .     A
O395   Zn450   1.947   .     S
O396   Zn449   1.947   .     S
O397   Zn459   1.947   .     S
O398   Zn458   1.947   .     S
O399   Zn453   1.947   .     S
O400   Zn445   1.947   .     S
O401   Zn455   1.947   .     S
O402   Zn454   1.947   .     S
O403   Zn457   1.947   .     S
O404   Zn453   1.950   .     S
O404   Zn457   1.950   .     S
O404   Zn1367  1.947   1_545 S
O404   Zn451   1.947   .     S
O405   Zn456   1.947   .     S
O406   Zn448   1.939   .     S
O407   Zn447   1.939   .     S
O408   Zn450   1.937   .     S
O409   Zn449   1.937   .     S
O410   Zn452   1.939   .     S
O411   Zn451   1.939   .     S
O412   Zn446   1.937   .     S
O413   Zn460   1.937   .     S
O414   Zn447   1.938   .     S
O415   Zn454   1.947   .     S
O415   Zn446   1.950   .     S
O415   Zn910   1.950   1_455 S
O415   Zn458   1.947   .     S
O416   Zn448   1.938   .     S
O417   Zn460   1.938   .     S
O418   Zn446   1.938   .     S
O419   Zn451   1.938   .     S
O420   Zn452   1.938   .     S
O421   Zn449   1.938   .     S
O422   Zn450   1.938   .     S
O423   Zn915   1.939   .     S
O424   Zn454   1.939   .     S
O425   Zn1377  1.937   .     S
O426   Zn449   1.950   .     S
O426   Zn455   1.947   .     S
O426   Zn459   1.947   .     S
O426   Zn920   1.950   1_455 S
O427   Zn456   1.937   .     S
O428   Zn459   1.939   .     S
O429   Zn918   1.939   .     S
O430   Zn453   1.937   .     S
O431   Zn1365  1.937   .     S
O432   Zn914   1.938   .     S
O433   Zn455   1.938   .     S
O434   Zn445   1.938   .     S
O435   Zn1373  1.938   .     S
O436   Zn458   1.938   .     S
O437   C1089   1.279   .     A
O437   Zn452   1.947   .     S
O438   Zn919   1.938   .     S
O439   Zn1376  1.938   .     S
O440   Zn457   1.938   .     S
O441   Zn451   1.947   .     S
O442   Zn446   1.947   .     S
O443   Zn460   1.947   .     S
O443   C632    1.280   .     S
O444   Zn448   1.947   .     S
Zn445  O1351   1.937   1_545 S
Zn447  O1324   1.947   .     S
Zn450  O875    1.950   .     S
Zn452  O1313   1.947   .     S
Zn453  O1355   1.938   1_545 S
Zn454  O892    1.938   1_455 S
Zn455  O883    1.939   1_455 S
Zn456  O1359   1.938   1_545 S
Zn457  O1345   1.937   1_545 S
Zn458  O889    1.939   1_455 S
Zn459  O898    1.938   1_455 S
Zn460  O886    1.950   .     S
Br461  C611    1.937   .     S
Br462  C621    1.937   .     S
Br463  C622    1.937   .     S
Br464  C623    1.941   .     S
Br465  C624    1.937   .     S
Br466  C625    1.937   .     S
Br467  C626    1.937   .     S
Br468  C628    1.941   .     S
Br469  C493    1.936   .     S
Br470  C604    1.934   .     S
Br471  C1536   1.933   1_545 S
Br472  C612    1.940   .     S
Br473  C627    1.934   .     S
Br474  C638    1.936   .     S
Br475  C649    1.934   .     S
Br476  C1580   1.933   .     S
Br477  C671    1.934   .     S
Br478  C682    1.938   .     S
Br479  C494    1.938   .     S
Br480  C505    1.936   .     S
Br481  C516    1.933   .     S
Br482  C527    1.938   .     S
Br483  C613    1.935   .     S
Br484  C538    1.938   .     S
Br485  C549    1.936   .     S
Br486  C560    1.932   .     S
Br487  C614    1.941   .     S
Br488  C615    1.937   .     S
Br489  C617    1.940   .     S
Br490  C618    1.935   .     S
Br491  C619    1.941   .     S
Br492  C620    1.937   .     S
C493   C496    1.411   .     A
C493   C111    1.400   1_655 A
C494   C1528   1.408   .     A
C494   C506    1.410   .     A
C495   C614    1.415   .     A
C495   C671    1.411   .     A
C495   C1450   1.420   .     S
C496   C615    1.417   .     A
C496   C66     1.420   1_655 S
C497   C528    1.420   .     A
C497   C604    1.411   .     A
C497   C617    1.415   .     A
C498   C618    1.417   .     A
C498   C616    1.412   .     A
C498   C1449   1.420   .     S
C499   C619    1.415   .     A
C499   C530    1.420   .     A
C499   C627    1.411   .     A
C500   C1451   1.423   .     A
C500   C527    1.410   .     A
C500   C620    1.415   .     A
C501   C538    1.410   .     A
C501   C621    1.413   .     A
C501   C532    1.418   .     S
C502   C533    1.421   .     A
C502   C622    1.418   .     A
C502   C549    1.412   .     A
C503   C623    1.415   .     A
C503   C560    1.411   .     A
C503   C74     1.420   1_655 S
C504   C682    1.410   .     A
C504   C624    1.415   .     A
C504   C531    1.423   .     S
C505   C507    1.412   .     A
C505   C149    1.400   1_655 S
C506   C1452   1.418   .     A
C506   C625    1.413   .     A
C507   C626    1.417   .     A
C507   C73     1.421   1_655 S
C508   C534    1.420   .     A
C508   C516    1.411   .     A
C508   C628    1.415   .     A
C509   C644    1.456   .     S
C509   C672    1.415   .     A
C509   C674    1.415   .     A
C510   C673    1.419   .     A
C510   C670    1.419   .     A
C510   C645    1.462   .     S
C511   C669    1.416   .     A
C511   C676    1.417   .     A
C511   C637    1.454   .     S
C512   C675    1.419   .     A
C512   C639    1.463   .     S
C512   C668    1.419   .     A
C513   C678    1.415   .     A
C513   C640    1.456   .     S
C513   C667    1.415   .     A
C514   C641    1.462   .     S
C514   C666    1.419   .     A
C514   C677    1.419   .     A
C515   C642    1.454   .     S
C515   C665    1.416   .     A
C515   C680    1.417   .     A
C516   C610    1.399   .     A
C517   C664    1.419   .     A
C517   C679    1.419   .     A
C517   C643    1.463   .     S
C518   C683    1.411   .     A
C518   C653    1.458   .     S
C518   C663    1.417   .     A
C519   C662    1.425   .     A
C519   C681    1.419   .     A
C519   C654    1.466   .     S
C520   C661    1.416   .     A
C520   C685    1.411   .     A
C520   C646    1.456   .     S
C521   C659    1.420   .     A
C521   C647    1.462   .     S
C521   C684    1.418   .     A
C522   C687    1.411   .     A
C522   C658    1.417   .     A
C522   C648    1.458   .     S
C523   C657    1.425   .     A
C523   C650    1.466   .     S
C523   C686    1.419   .     A
C524   C651    1.456   .     S
C524   C689    1.411   .     A
C524   C656    1.416   .     A
C525   C655    1.420   .     A
C525   C688    1.418   .     A
C525   C652    1.462   .     S
C526   C528    1.409   .     A
C526   C690    1.420   .     A
C527   C1527   1.396   .     S
C529   C692    1.420   .     A
C529   C530    1.409   .     A
C529   C1418   1.420   1_545 S
C530   C1415   1.420   1_545 S
C531   C1420   1.423   1_545 A
C531   C532    1.411   1_556 S
C532   C1426   1.418   1_545 A
C532   C531    1.411   1_554 S
C533   C534    1.409   1_556 S
C534   C533    1.409   1_554 S
C535   H787    1.109   .     S
C535   C536    1.527   .     S
C535   C655    1.530   .     S
C535   H798    1.105   .     S
C536   H776    1.103   .     S
C536   H765    1.110   .     S
C536   H693    1.108   .     S
C537   H842    1.106   .     S
C537   H694    1.106   .     S
C537   C539    1.527   .     S
C537   C656    1.529   .     S
C538   C608    1.408   .     S
C539   H809    1.110   .     S
C539   H820    1.111   .     S
C539   H831    1.110   .     S
C540   C657    1.530   .     S
C540   H738    1.107   .     S
C540   H749    1.102   .     S
C540   C541    1.523   .     S
C541   H727    1.110   .     S
C541   H705    1.109   .     S
C541   H716    1.108   .     S
C542   C658    1.531   .     S
C542   H764    1.108   .     S
C542   H766    1.105   .     S
C542   C543    1.527   .     S
C543   H760    1.111   .     S
C543   H763    1.110   .     S
C543   H762    1.110   .     S
C544   C659    1.530   .     S
C544   H771    1.105   .     S
C544   C545    1.527   .     S
C544   H770    1.109   .     S
C545   H767    1.108   .     S
C545   H768    1.110   .     S
C545   H769    1.103   .     S
C546   H777    1.106   .     S
C546   H775    1.106   .     S
C546   C547    1.527   .     S
C546   C661    1.529   .     S
C547   H773    1.111   .     S
C547   H772    1.110   .     S
C547   H774    1.110   .     S
C548   C662    1.530   .     S
C548   H781    1.107   .     S
C548   C550    1.523   .     S
C548   H782    1.102   .     S
C549   C609    1.400   .     A
C550   H779    1.108   .     S
C550   H780    1.110   .     S
C550   H778    1.109   .     S
C551   C552    1.527   .     S
C551   C663    1.531   .     S
C551   H788    1.105   .     S
C551   H786    1.108   .     S
C552   H783    1.110   .     S
C552   H785    1.111   .     S
C552   H784    1.110   .     S
C553   H792    1.109   .     S
C553   H793    1.109   .     S
C553   C554    1.529   .     S
C553   C664    1.529   .     S
C554   H791    1.109   .     S
C554   H789    1.109   .     S
C554   H790    1.109   .     S
C555   C556    1.524   .     S
C555   H799    1.102   .     S
C555   C665    1.539   .     S
C555   H797    1.108   .     S
C556   H795    1.106   .     S
C556   H794    1.111   .     S
C556   H796    1.110   .     S
C557   C558    1.529   .     S
C557   C666    1.527   .     S
C557   H803    1.109   .     S
C557   H804    1.108   .     S
C558   H801    1.110   .     S
C558   H800    1.109   .     S
C558   H802    1.106   .     S
C559   C667    1.534   .     S
C559   C561    1.534   .     S
C559   H810    1.103   .     S
C559   H808    1.109   .     S
C560   C150    1.399   1_655 S
C561   H806    1.108   .     S
C561   H805    1.110   .     S
C561   H807    1.110   .     S
C562   C668    1.529   .     S
C562   H814    1.109   .     S
C562   C563    1.529   .     S
C562   H815    1.109   .     S
C563   H813    1.109   .     S
C563   H812    1.109   .     S
C563   H811    1.109   .     S
C564   H819    1.108   .     S
C564   C565    1.524   .     S
C564   H821    1.102   .     S
C564   C669    1.539   .     S
C565   H818    1.110   .     S
C565   H817    1.106   .     S
C565   H816    1.111   .     S
C566   C567    1.529   .     S
C566   C670    1.527   .     S
C566   H825    1.109   .     S
C566   H826    1.108   .     S
C567   H823    1.110   .     S
C567   H822    1.109   .     S
C567   H824    1.106   .     S
C568   C569    1.534   .     S
C568   H830    1.109   .     S
C568   H832    1.103   .     S
C568   C672    1.534   .     S
C569   H829    1.110   .     S
C569   H828    1.108   .     S
C569   H827    1.110   .     S
C570   H836    1.107   .     S
C570   C572    1.523   .     S
C570   H837    1.105   .     S
C570   C673    1.527   .     S
C571   C631    1.457   .     S
C571   C638    1.400   .     S
C572   H833    1.108   .     S
C572   H835    1.108   .     S
C572   H834    1.109   .     S
C573   C674    1.532   .     S
C573   H841    1.107   .     S
C573   H843    1.105   .     S
C573   C574    1.527   .     S
C574   H839    1.110   .     S
C574   H840    1.110   .     S
C574   H838    1.110   .     S
C575   C675    1.525   .     S
C575   C576    1.520   .     S
C575   H847    1.108   .     S
C575   H848    1.104   .     S
C576   H845    1.109   .     S
C576   H844    1.108   .     S
C576   H846    1.109   .     S
C577   H852    1.104   .     S
C577   C578    1.528   .     S
C577   H695    1.106   .     S
C577   C676    1.532   .     S
C578   H849    1.110   .     S
C578   H850    1.111   .     S
C578   H851    1.109   .     S
C579   H700    1.105   .     S
C579   H699    1.107   .     S
C579   C580    1.522   .     S
C579   C677    1.527   .     S
C580   H697    1.109   .     S
C580   H698    1.108   .     S
C580   H696    1.108   .     S
C581   H704    1.107   .     S
C581   C678    1.532   .     S
C581   H706    1.105   .     S
C581   C583    1.527   .     S
C582   C604    1.400   .     A
C582   C632    1.459   .     S
C583   H703    1.110   .     S
C583   H701    1.110   .     S
C583   H702    1.110   .     S
C584   H711    1.104   .     S
C584   H710    1.108   .     S
C584   C679    1.525   .     S
C584   C585    1.520   .     S
C585   H709    1.109   .     S
C585   H708    1.109   .     S
C585   H707    1.108   .     S
C586   C587    1.528   .     S
C586   C680    1.532   .     S
C586   H715    1.104   .     S
C586   H717    1.106   .     S
C587   H714    1.109   .     S
C587   H713    1.111   .     S
C587   H712    1.110   .     S
C588   H721    1.108   .     S
C588   C589    1.529   .     S
C588   C681    1.530   .     S
C588   H722    1.107   .     S
C589   H720    1.107   .     S
C589   H719    1.110   .     S
C589   H718    1.109   .     S
C590   C683    1.531   .     S
C590   C591    1.529   .     S
C590   H728    1.102   .     S
C590   H726    1.108   .     S
C591   H725    1.109   .     S
C591   H723    1.110   .     S
C591   H724    1.108   .     S
C592   C684    1.527   .     S
C592   H732    1.109   .     S
C592   C594    1.529   .     S
C592   H733    1.108   .     S
C593   C1536   1.400   1_545 A
C593   C629    1.459   .     S
C593   C660    1.400   .     S
C594   H729    1.109   .     S
C594   H730    1.109   .     S
C594   H731    1.104   .     S
C595   C685    1.528   .     S
C595   C596    1.526   .     S
C595   H739    1.103   .     S
C595   H737    1.108   .     S
C596   H735    1.110   .     S
C596   H734    1.110   .     S
C596   H736    1.109   .     S
C597   H743    1.108   .     S
C597   H744    1.107   .     S
C597   C686    1.530   .     S
C597   C598    1.529   .     S
C598   H740    1.109   .     S
C598   H741    1.110   .     S
C598   H742    1.107   .     S
C599   C600    1.529   .     S
C599   H748    1.107   .     S
C599   C687    1.531   .     S
C599   H750    1.102   .     S
C600   H745    1.110   .     S
C600   H747    1.109   .     S
C600   H746    1.108   .     S
C601   H754    1.109   .     S
C601   C688    1.527   .     S
C601   H755    1.108   .     S
C601   C602    1.529   .     S
C602   H752    1.109   .     S
C602   H753    1.104   .     S
C602   H751    1.109   .     S
C603   C606    1.526   .     S
C603   H759    1.108   .     S
C603   C689    1.528   .     S
C603   H761    1.103   .     S
C605   C630    1.456   .     S
C605   C627    1.399   .     A
C605   C1591   1.399   1_545 S
C606   H756    1.110   .     S
C606   H758    1.108   .     S
C606   H757    1.110   .     S
C607   C682    1.396   .     A
C607   C635    1.447   .     S
C607   C1447   1.396   1_545 S
C608   C1414   1.408   1_545 A
C608   C636    1.466   .     S
C609   C633    1.457   .     S
C610   C634    1.458   .     S
C611   C690    1.417   .     A
C611   C617    1.407   .     A
C612   C691    1.415   .     A
C612   C615    1.407   .     A
C613   C692    1.417   .     A
C613   C619    1.407   .     A
C614   C618    1.407   .     A
C616   C1513   1.400   .     A
C616   Br1391  1.933   .     S
C620   C625    1.397   1_556 S
C621   C624    1.397   1_554 S
C622   C628    1.407   1_556 S
C623   C626    1.407   1_554 S
C624   C621    1.397   1_556 S
C625   C620    1.397   1_554 S
C626   C623    1.407   1_556 S
C628   C622    1.407   1_554 S
C629   O1817   1.279   1_545 A
C629   O904    1.279   .     S
C630   O901    1.278   .     A
C630   O1774   1.278   1_545 S
C631   O902    1.280   .     S
C632   O856    1.280   .     A
C633   O857    1.278   .     A
C633   O861    1.278   .     A
C634   O862    1.278   .     A
C634   O858    1.278   .     A
C635   O859    1.277   .     S
C635   O863    1.277   .     S
C636   O860    1.283   .     S
C636   O865    1.283   .     S
C637   O866    1.279   .     A
C637   O894    1.277   .     A
C638   C690    1.411   .     A
C639   O867    1.275   .     A
C639   O895    1.286   .     A
C640   O892    1.279   .     A
C640   O868    1.279   .     A
C641   O869    1.274   .     A
C641   O893    1.287   .     A
C642   O870    1.279   .     A
C642   O899    1.277   .     A
C643   O871    1.275   .     A
C643   O900    1.286   .     A
C644   O896    1.279   .     A
C644   O872    1.279   .     A
C645   O898    1.287   .     A
C645   O873    1.274   .     A
C646   O874    1.281   .     A
C646   O885    1.277   .     A
C647   O887    1.281   .     A
C647   O876    1.280   .     A
C648   O877    1.281   .     A
C648   O883    1.276   .     A
C649   C691    1.411   .     A
C649   C122    1.400   1_655 S
C650   O884    1.274   .     A
C650   O878    1.290   .     A
C651   O879    1.281   .     A
C651   O890    1.277   .     A
C652   O891    1.281   .     A
C652   O880    1.280   .     A
C653   O888    1.276   .     A
C653   O881    1.281   .     A
C654   O882    1.290   .     A
C654   O889    1.274   .     A
C655   C672    1.417   .     A
C656   C670    1.415   .     A
C657   C669    1.412   .     A
C658   C668    1.417   .     A
C659   C667    1.417   .     A
C660   C692    1.412   .     A
C660   Br1396  1.933   1_545 S
C661   C666    1.415   .     A
C662   C665    1.412   .     A
C663   C664    1.417   .     A
C671   C1525   1.399   .     S
C673   C689    1.408   .     A
C674   C688    1.413   .     A
C675   C687    1.410   .     A
C676   C686    1.413   .     A
C677   C685    1.408   .     A
C678   C684    1.413   .     A
C679   C683    1.410   .     A
C680   C681    1.413   .     A
C691   C68     1.420   1_655 S
O853   Zn916   1.950   .     S
O853   Zn905   1.950   .     S
O853   Zn1832  1.947   1_545 S
O853   Zn908   1.947   .     S
O854   Zn907   1.947   .     S
O854   C1550   1.278   .     S
O855   C171    1.280   1_655 A
O855   Zn910   1.947   .     S
O856   Zn909   1.947   .     S
O857   Zn919   1.947   .     S
O858   Zn918   1.947   .     S
O859   Zn913   1.947   .     S
O860   Zn905   1.947   .     S
O861   Zn915   1.947   .     S
O862   Zn914   1.947   .     S
O863   Zn917   1.947   .     S
O864   Zn913   1.950   .     S
O864   Zn917   1.950   .     S
O864   Zn1827  1.947   1_545 S
O864   Zn911   1.947   .     S
O865   Zn916   1.947   .     S
O866   Zn908   1.939   .     S
O867   Zn907   1.939   .     S
O868   Zn910   1.937   .     S
O869   Zn909   1.937   .     S
O870   Zn912   1.939   .     S
O871   Zn911   1.939   .     S
O872   Zn906   1.937   .     S
O873   Zn920   1.937   .     S
O874   Zn907   1.938   .     S
O875   Zn914   1.947   .     S
O875   Zn906   1.950   .     S
O875   Zn918   1.947   .     S
O876   Zn908   1.938   .     S
O877   Zn920   1.938   .     S
O878   Zn906   1.938   .     S
O879   Zn911   1.938   .     S
O880   Zn912   1.938   .     S
O881   Zn909   1.938   .     S
O882   Zn910   1.938   .     S
O883   Zn455   1.939   1_655 S
O884   Zn914   1.939   .     S
O885   Zn1837  1.937   .     S
O886   Zn909   1.950   .     S
O886   Zn915   1.947   .     S
O886   Zn919   1.947   .     S
O887   Zn916   1.937   .     S
O888   Zn919   1.939   .     S
O889   Zn458   1.939   1_655 S
O890   Zn913   1.937   .     S
O891   Zn1825  1.937   .     S
O892   Zn454   1.938   1_655 S
O893   Zn915   1.938   .     S
O894   Zn905   1.938   .     S
O895   Zn1833  1.938   .     S
O896   Zn918   1.938   .     S
O897   C1549   1.279   .     A
O897   Zn912   1.947   .     S
O898   Zn459   1.938   1_655 S
O899   Zn1836  1.938   .     S
O900   Zn917   1.938   .     S
O901   Zn911   1.947   .     S
O902   Zn906   1.947   .     S
O903   Zn920   1.947   .     S
O903   C172    1.280   1_655 S
O904   Zn908   1.947   .     S
Zn905  O1811   1.937   1_545 S
Zn907  O1784   1.947   .     S
Zn910  O415    1.950   1_655 S
Zn912  O1773   1.947   .     S
Zn913  O1815   1.938   1_545 S
Zn916  O1819   1.938   1_545 S
Zn917  O1805   1.937   1_545 S
Zn920  O426    1.950   1_655 S
Br921  C1071   1.937   .     S
Br922  C1081   1.937   .     S
Br923  C1082   1.937   .     S
Br924  C1083   1.941   .     S
Br925  C1084   1.937   .     S
Br926  C1085   1.937   .     S
Br927  C1086   1.937   .     S
Br928  C1088   1.941   .     S
Br929  C953    1.936   .     S
Br930  C1064   1.934   .     S
Br932  C1072   1.940   .     S
Br933  C1087   1.934   .     S
Br934  C1098   1.936   .     S
Br935  C1109   1.934   .     S
Br936  C200    1.933   1_565 S
Br937  C1131   1.934   .     S
Br938  C1142   1.938   .     S
Br939  C954    1.938   .     S
Br940  C965    1.936   .     S
Br941  C976    1.933   .     S
Br942  C987    1.938   .     S
Br943  C1073   1.935   .     S
Br944  C998    1.938   .     S
Br945  C1009   1.936   .     S
Br946  C1020   1.932   .     S
Br947  C1074   1.941   .     S
Br948  C1075   1.937   .     S
Br949  C1077   1.940   .     S
Br950  C1078   1.935   .     S
Br951  C1079   1.941   .     S
Br952  C1080   1.937   .     S
C953   C956    1.411   .     A
C953   C1491   1.400   .     A
C954   C148    1.408   1_565 A
C954   C966    1.410   .     A
C955   C1074   1.415   .     A
C955   C1131   1.411   .     A
C955   C70     1.420   1_565 S
C956   C1075   1.417   .     A
C956   C1446   1.420   .     S
C957   C988    1.420   .     A
C957   C1064   1.411   .     A
C957   C1077   1.415   .     A
C958   C1078   1.417   .     A
C958   C1076   1.412   .     A
C958   C69     1.420   1_565 S
C959   C1079   1.415   .     A
C959   C990    1.420   .     A
C959   C1087   1.411   .     A
C960   C71     1.423   1_565 A
C960   C987    1.410   .     A
C960   C1080   1.415   .     A
C961   C998    1.410   .     A
C961   C1081   1.413   .     A
C961   C992    1.418   .     S
C962   C993    1.421   .     A
C962   C1082   1.418   .     A
C962   C1009   1.412   .     A
C963   C1083   1.415   .     A
C963   C1020   1.411   .     A
C963   C1454   1.420   .     S
C964   C1142   1.410   .     A
C964   C1084   1.415   .     A
C964   C991    1.423   .     S
C965   C967    1.412   .     A
C965   C1529   1.400   .     S
C966   C72     1.418   1_565 A
C966   C1085   1.413   .     A
C967   C1086   1.417   .     A
C967   C1453   1.421   .     S
C968   C994    1.420   .     A
C968   C976    1.411   .     A
C968   C1088   1.415   .     A
C969   C1104   1.456   .     S
C969   C1132   1.415   .     A
C969   C1134   1.415   .     A
C970   C1133   1.419   .     A
C970   C1130   1.419   .     A
C970   C1105   1.462   .     S
C971   C1129   1.416   .     A
C971   C1136   1.417   .     A
C971   C1097   1.454   .     S
C972   C1135   1.419   .     A
C972   C1099   1.463   .     S
C972   C1128   1.419   .     A
C973   C1138   1.415   .     A
C973   C1100   1.456   .     S
C973   C1127   1.415   .     A
C974   C1101   1.462   .     S
C974   C1126   1.419   .     A
C974   C1137   1.419   .     A
C975   C1102   1.454   .     S
C975   C1125   1.416   .     A
C975   C1140   1.417   .     A
C976   C1070   1.399   .     A
C977   C1124   1.419   .     A
C977   C1139   1.419   .     A
C977   C1103   1.463   .     S
C978   C1143   1.411   .     A
C978   C1113   1.458   .     S
C978   C1123   1.417   .     A
C979   C1122   1.425   .     A
C979   C1141   1.419   .     A
C979   C1114   1.466   .     S
C980   C1121   1.416   .     A
C980   C1145   1.411   .     A
C980   C1106   1.456   .     S
C981   C1119   1.420   .     A
C981   C1107   1.462   .     S
C981   C1144   1.418   .     A
C982   C1147   1.411   .     A
C982   C1118   1.417   .     A
C982   C1108   1.458   .     S
C983   C1117   1.425   .     A
C983   C1110   1.466   .     S
C983   C1146   1.419   .     A
C984   C1111   1.456   .     S
C984   C1149   1.411   .     A
C984   C1116   1.416   .     A
C985   C1115   1.420   .     A
C985   C1148   1.418   .     A
C985   C1112   1.462   .     S
C986   C988    1.409   .     A
C986   C1150   1.420   .     A
C986   C1416   1.420   1_455 S
C987   C147    1.396   1_565 S
C988   C1611   1.420   1_455 S
C989   C1152   1.420   .     A
C989   C990    1.409   .     A
C991   C992    1.411   1_556 S
C992   C991    1.411   1_554 S
C993   C1427   1.421   1_455 S
C993   C994    1.409   1_556 S
C994   C1423   1.420   1_455 S
C994   C993    1.409   1_554 S
C995   H1247   1.109   .     S
C995   C996    1.527   .     S
C995   C1115   1.530   .     S
C995   H1258   1.105   .     S
C996   H1236   1.103   .     S
C996   H1225   1.110   .     S
C996   H1153   1.108   .     S
C997   H1302   1.106   .     S
C997   H1154   1.106   .     S
C997   C999    1.527   .     S
C997   C1116   1.529   .     S
C998   C1068   1.408   .     S
C999   H1269   1.110   .     S
C999   H1280   1.111   .     S
C999   H1291   1.110   .     S
C1000  C1117   1.530   .     S
C1000  H1198   1.107   .     S
C1000  H1209   1.102   .     S
C1000  C1001   1.523   .     S
C1001  H1187   1.110   .     S
C1001  H1165   1.109   .     S
C1001  H1176   1.108   .     S
C1002  C1118   1.531   .     S
C1002  H1224   1.108   .     S
C1002  H1226   1.105   .     S
C1002  C1003   1.527   .     S
C1003  H1220   1.111   .     S
C1003  H1223   1.110   .     S
C1003  H1222   1.110   .     S
C1004  C1119   1.530   .     S
C1004  H1231   1.105   .     S
C1004  C1005   1.527   .     S
C1004  H1230   1.109   .     S
C1005  H1227   1.108   .     S
C1005  H1228   1.110   .     S
C1005  H1229   1.103   .     S
C1006  H1237   1.106   .     S
C1006  H1235   1.106   .     S
C1006  C1007   1.527   .     S
C1006  C1121   1.529   .     S
C1007  H1233   1.111   .     S
C1007  H1232   1.110   .     S
C1007  H1234   1.110   .     S
C1008  C1122   1.530   .     S
C1008  H1241   1.107   .     S
C1008  C1010   1.523   .     S
C1008  H1242   1.102   .     S
C1009  C1069   1.400   .     A
C1010  H1239   1.108   .     S
C1010  H1240   1.110   .     S
C1010  H1238   1.109   .     S
C1011  C1012   1.527   .     S
C1011  C1123   1.531   .     S
C1011  H1248   1.105   .     S
C1011  H1246   1.108   .     S
C1012  H1243   1.110   .     S
C1012  H1245   1.111   .     S
C1012  H1244   1.110   .     S
C1013  H1252   1.109   .     S
C1013  H1253   1.109   .     S
C1013  C1014   1.529   .     S
C1013  C1124   1.529   .     S
C1014  H1251   1.109   .     S
C1014  H1249   1.109   .     S
C1014  H1250   1.109   .     S
C1015  C1016   1.524   .     S
C1015  H1259   1.102   .     S
C1015  C1125   1.539   .     S
C1015  H1257   1.108   .     S
C1016  H1255   1.106   .     S
C1016  H1254   1.111   .     S
C1016  H1256   1.110   .     S
C1017  C1018   1.529   .     S
C1017  C1126   1.527   .     S
C1017  H1263   1.109   .     S
C1017  H1264   1.108   .     S
C1018  H1261   1.110   .     S
C1018  H1260   1.109   .     S
C1018  H1262   1.106   .     S
C1019  C1127   1.534   .     S
C1019  C1021   1.534   .     S
C1019  H1270   1.103   .     S
C1019  H1268   1.109   .     S
C1020  C1530   1.399   .     S
C1021  H1266   1.108   .     S
C1021  H1265   1.110   .     S
C1021  H1267   1.110   .     S
C1022  C1128   1.529   .     S
C1022  H1274   1.109   .     S
C1022  C1023   1.529   .     S
C1022  H1275   1.109   .     S
C1023  H1273   1.109   .     S
C1023  H1272   1.109   .     S
C1023  H1271   1.109   .     S
C1024  H1279   1.108   .     S
C1024  C1025   1.524   .     S
C1024  H1281   1.102   .     S
C1024  C1129   1.539   .     S
C1025  H1278   1.110   .     S
C1025  H1277   1.106   .     S
C1025  H1276   1.111   .     S
C1026  C1027   1.529   .     S
C1026  C1130   1.527   .     S
C1026  H1285   1.109   .     S
C1026  H1286   1.108   .     S
C1027  H1283   1.110   .     S
C1027  H1282   1.109   .     S
C1027  H1284   1.106   .     S
C1028  C1029   1.534   .     S
C1028  H1290   1.109   .     S
C1028  H1292   1.103   .     S
C1028  C1132   1.534   .     S
C1029  H1289   1.110   .     S
C1029  H1288   1.108   .     S
C1029  H1287   1.110   .     S
C1030  H1296   1.107   .     S
C1030  C1032   1.523   .     S
C1030  H1297   1.105   .     S
C1030  C1133   1.527   .     S
C1031  C1413   1.400   1_455 A
C1031  C1091   1.457   .     S
C1031  C1098   1.400   .     S
C1032  H1293   1.108   .     S
C1032  H1295   1.108   .     S
C1032  H1294   1.109   .     S
C1033  C1134   1.532   .     S
C1033  H1301   1.107   .     S
C1033  H1303   1.105   .     S
C1033  C1034   1.527   .     S
C1034  H1299   1.110   .     S
C1034  H1300   1.110   .     S
C1034  H1298   1.110   .     S
C1035  C1135   1.525   .     S
C1035  C1036   1.520   .     S
C1035  H1307   1.108   .     S
C1035  H1308   1.104   .     S
C1036  H1305   1.109   .     S
C1036  H1304   1.108   .     S
C1036  H1306   1.109   .     S
C1037  H1312   1.104   .     S
C1037  C1038   1.528   .     S
C1037  H1155   1.106   .     S
C1037  C1136   1.532   .     S
C1038  H1309   1.110   .     S
C1038  H1310   1.111   .     S
C1038  H1311   1.109   .     S
C1039  H1160   1.105   .     S
C1039  H1159   1.107   .     S
C1039  C1040   1.522   .     S
C1039  C1137   1.527   .     S
C1040  H1157   1.109   .     S
C1040  H1158   1.108   .     S
C1040  H1156   1.108   .     S
C1041  H1164   1.107   .     S
C1041  C1138   1.532   .     S
C1041  H1166   1.105   .     S
C1041  C1043   1.527   .     S
C1042  C1064   1.400   .     A
C1042  C1092   1.459   .     S
C1042  C1569   1.400   1_455 S
C1043  H1163   1.110   .     S
C1043  H1161   1.110   .     S
C1043  H1162   1.110   .     S
C1044  H1171   1.104   .     S
C1044  H1170   1.108   .     S
C1044  C1139   1.525   .     S
C1044  C1045   1.520   .     S
C1045  H1169   1.109   .     S
C1045  H1168   1.109   .     S
C1045  H1167   1.108   .     S
C1046  C1047   1.528   .     S
C1046  C1140   1.532   .     S
C1046  H1175   1.104   .     S
C1046  H1177   1.106   .     S
C1047  H1174   1.109   .     S
C1047  H1173   1.111   .     S
C1047  H1172   1.110   .     S
C1048  H1181   1.108   .     S
C1048  C1049   1.529   .     S
C1048  C1141   1.530   .     S
C1048  H1182   1.107   .     S
C1049  H1180   1.107   .     S
C1049  H1179   1.110   .     S
C1049  H1178   1.109   .     S
C1050  C1143   1.531   .     S
C1050  C1051   1.529   .     S
C1050  H1188   1.102   .     S
C1050  H1186   1.108   .     S
C1051  H1185   1.109   .     S
C1051  H1183   1.110   .     S
C1051  H1184   1.108   .     S
C1052  C1144   1.527   .     S
C1052  H1192   1.109   .     S
C1052  C1054   1.529   .     S
C1052  H1193   1.108   .     S
C1053  C1089   1.459   .     S
C1053  C1120   1.400   .     S
C1054  H1189   1.109   .     S
C1054  H1190   1.109   .     S
C1054  H1191   1.104   .     S
C1055  C1145   1.528   .     S
C1055  C1056   1.526   .     S
C1055  H1199   1.103   .     S
C1055  H1197   1.108   .     S
C1056  H1195   1.110   .     S
C1056  H1194   1.110   .     S
C1056  H1196   1.109   .     S
C1057  H1203   1.108   .     S
C1057  H1204   1.107   .     S
C1057  C1146   1.530   .     S
C1057  C1058   1.529   .     S
C1058  H1200   1.109   .     S
C1058  H1201   1.110   .     S
C1058  H1202   1.107   .     S
C1059  C1060   1.529   .     S
C1059  H1208   1.107   .     S
C1059  C1147   1.531   .     S
C1059  H1210   1.102   .     S
C1060  H1205   1.110   .     S
C1060  H1207   1.109   .     S
C1060  H1206   1.108   .     S
C1061  H1214   1.109   .     S
C1061  C1148   1.527   .     S
C1061  H1215   1.108   .     S
C1061  C1062   1.529   .     S
C1062  H1212   1.109   .     S
C1062  H1213   1.104   .     S
C1062  H1211   1.109   .     S
C1063  C1066   1.526   .     S
C1063  H1219   1.108   .     S
C1063  C1149   1.528   .     S
C1063  H1221   1.103   .     S
C1065  C1090   1.456   .     S
C1065  C1087   1.399   .     A
C1066  H1216   1.110   .     S
C1066  H1218   1.108   .     S
C1066  H1217   1.110   .     S
C1067  C1142   1.396   .     A
C1067  C1095   1.447   .     S
C1068  C1096   1.466   .     S
C1069  C1093   1.457   .     S
C1069  C1425   1.400   1_455 S
C1070  C1094   1.458   .     S
C1070  C1480   1.399   1_455 S
C1071  C1150   1.417   .     A
C1071  C1077   1.407   .     A
C1072  C1151   1.415   .     A
C1072  C1075   1.407   .     A
C1073  C1152   1.417   .     A
C1073  C1079   1.407   .     A
C1074  C1078   1.407   .     A
C1076  C133    1.400   1_565 A
C1076  Br11    1.933   1_565 S
C1080  C1085   1.397   1_556 S
C1081  C1084   1.397   1_554 S
C1082  C1088   1.407   1_556 S
C1083  C1086   1.407   1_554 S
C1084  C1081   1.397   1_556 S
C1085  C1080   1.397   1_554 S
C1086  C1083   1.407   1_556 S
C1088  C1082   1.407   1_554 S
C1089  O1364   1.279   .     S
C1090  O1361   1.278   .     A
C1091  O1775   1.280   1_455 A
C1091  O1362   1.280   .     S
C1092  O1316   1.280   .     A
C1092  O1823   1.280   1_455 S
C1093  O1317   1.278   .     A
C1093  O1321   1.278   .     A
C1094  O1322   1.278   .     A
C1094  O1318   1.278   .     A
C1095  O1319   1.277   .     S
C1095  O1323   1.277   .     S
C1096  O1320   1.283   .     S
C1096  O1325   1.283   .     S
C1097  O1326   1.279   .     A
C1097  O1354   1.277   .     A
C1098  C1150   1.411   .     A
C1099  O1327   1.275   .     A
C1099  O1355   1.286   .     A
C1100  O1352   1.279   .     A
C1100  O1328   1.279   .     A
C1101  O1329   1.274   .     A
C1101  O1353   1.287   .     A
C1102  O1330   1.279   .     A
C1102  O1359   1.277   .     A
C1103  O1331   1.275   .     A
C1103  O1360   1.286   .     A
C1104  O1356   1.279   .     A
C1104  O1332   1.279   .     A
C1105  O1358   1.287   .     A
C1105  O1333   1.274   .     A
C1106  O1334   1.281   .     A
C1106  O1345   1.277   .     A
C1107  O1347   1.281   .     A
C1107  O1336   1.280   .     A
C1108  O1337   1.281   .     A
C1108  O1343   1.276   .     A
C1109  C1151   1.411   .     A
C1109  C1502   1.400   .     S
C1110  O1344   1.274   .     A
C1110  O1338   1.290   .     A
C1111  O1339   1.281   .     A
C1111  O1350   1.277   .     A
C1112  O1351   1.281   .     A
C1112  O1340   1.280   .     A
C1113  O1348   1.276   .     A
C1113  O1341   1.281   .     A
C1114  O1342   1.290   .     A
C1114  O1349   1.274   .     A
C1115  C1132   1.417   .     A
C1116  C1130   1.415   .     A
C1117  C1129   1.412   .     A
C1118  C1128   1.417   .     A
C1119  C1127   1.417   .     A
C1120  C1152   1.412   .     A
C1121  C1126   1.415   .     A
C1122  C1125   1.412   .     A
C1123  C1124   1.417   .     A
C1131  C145    1.399   1_565 S
C1133  C1149   1.408   .     A
C1134  C1148   1.413   .     A
C1135  C1147   1.410   .     A
C1136  C1146   1.413   .     A
C1137  C1145   1.408   .     A
C1138  C1144   1.413   .     A
C1139  C1143   1.410   .     A
C1140  C1141   1.413   .     A
C1151  C1448   1.420   .     S
O1313  Zn1376  1.950   .     S
O1313  Zn1365  1.950   .     S
O1313  Zn1368  1.947   .     S
O1314  Zn1367  1.947   .     S
O1314  C170    1.278   1_565 S
O1315  C1551   1.280   .     A
O1315  Zn1370  1.947   .     S
O1316  Zn1369  1.947   .     S
O1317  Zn1379  1.947   .     S
O1318  Zn1378  1.947   .     S
O1319  Zn1373  1.947   .     S
O1320  Zn1365  1.947   .     S
O1321  Zn1375  1.947   .     S
O1322  Zn1374  1.947   .     S
O1323  Zn1377  1.947   .     S
O1324  Zn1373  1.950   .     S
O1324  Zn1377  1.950   .     S
O1324  Zn1371  1.947   .     S
O1325  Zn1376  1.947   .     S
O1326  Zn1368  1.939   .     S
O1327  Zn1367  1.939   .     S
O1328  Zn1370  1.937   .     S
O1329  Zn1369  1.937   .     S
O1330  Zn1372  1.939   .     S
O1331  Zn1371  1.939   .     S
O1332  Zn1366  1.937   .     S
O1333  Zn1380  1.937   .     S
O1334  Zn1367  1.938   .     S
O1335  Zn1374  1.947   .     S
O1335  Zn1366  1.950   .     S
O1335  Zn1830  1.950   1_455 S
O1335  Zn1378  1.947   .     S
O1336  Zn1368  1.938   .     S
O1337  Zn1380  1.938   .     S
O1338  Zn1366  1.938   .     S
O1339  Zn1371  1.938   .     S
O1340  Zn1372  1.938   .     S
O1341  Zn1369  1.938   .     S
O1342  Zn1370  1.938   .     S
O1343  Zn1835  1.939   .     S
O1344  Zn1374  1.939   .     S
O1345  Zn457   1.937   1_565 S
O1346  Zn1369  1.950   .     S
O1346  Zn1375  1.947   .     S
O1346  Zn1379  1.947   .     S
O1346  Zn1840  1.950   1_455 S
O1347  Zn1376  1.937   .     S
O1348  Zn1379  1.939   .     S
O1349  Zn1838  1.939   .     S
O1350  Zn1373  1.937   .     S
O1351  Zn445   1.937   1_565 S
O1352  Zn1834  1.938   .     S
O1353  Zn1375  1.938   .     S
O1354  Zn1365  1.938   .     S
O1355  Zn453   1.938   1_565 S
O1356  Zn1378  1.938   .     S
O1357  C169    1.279   1_565 A
O1357  Zn1372  1.947   .     S
O1358  Zn1839  1.938   .     S
O1359  Zn456   1.938   1_565 S
O1360  Zn1377  1.938   .     S
O1361  Zn1371  1.947   .     S
O1362  Zn1366  1.947   .     S
O1363  Zn1380  1.947   .     S
O1363  C1552   1.280   .     S
O1364  Zn1368  1.947   .     S
Zn1367 O404    1.947   1_565 S
Zn1370 O1795   1.950   .     S
Zn1372 O393    1.947   1_565 S
Zn1374 O1812   1.938   1_455 S
Zn1375 O1803   1.939   1_455 S
Zn1378 O1809   1.939   1_455 S
Zn1379 O1818   1.938   1_455 S
Zn1380 O1806   1.950   .     S
Br1381 C1531   1.937   .     S
Br1382 C1541   1.937   .     S
Br1383 C1542   1.937   .     S
Br1384 C1543   1.941   .     S
Br1385 C1544   1.937   .     S
Br1386 C1545   1.937   .     S
Br1387 C1546   1.937   .     S
Br1388 C1548   1.941   .     S
Br1389 C1413   1.936   .     S
Br1390 C1524   1.934   .     S
Br1392 C1532   1.940   .     S
Br1393 C1547   1.934   .     S
Br1394 C1558   1.936   .     S
Br1395 C1569   1.934   .     S
Br1396 C660    1.933   1_565 S
Br1397 C1591   1.934   .     S
Br1398 C1602   1.938   .     S
Br1399 C1414   1.938   .     S
Br1400 C1425   1.936   .     S
Br1401 C1436   1.933   .     S
Br1402 C1447   1.938   .     S
Br1403 C1533   1.935   .     S
Br1404 C1458   1.938   .     S
Br1405 C1469   1.936   .     S
Br1406 C1480   1.932   .     S
Br1407 C1534   1.941   .     S
Br1408 C1535   1.937   .     S
Br1409 C1537   1.940   .     S
Br1410 C1538   1.935   .     S
Br1411 C1539   1.941   .     S
Br1412 C1540   1.937   .     S
C1413  C1416   1.411   .     A
C1413  C1031   1.400   1_655 A
C1414  C608    1.408   1_565 A
C1414  C1426   1.410   .     A
C1415  C1534   1.415   .     A
C1415  C1591   1.411   .     A
C1415  C530    1.420   1_565 S
C1416  C1535   1.417   .     A
C1416  C986    1.420   1_655 S
C1417  C1448   1.420   .     A
C1417  C1524   1.411   .     A
C1417  C1537   1.415   .     A
C1418  C1538   1.417   .     A
C1418  C1536   1.412   .     A
C1418  C529    1.420   1_565 S
C1419  C1539   1.415   .     A
C1419  C1450   1.420   .     A
C1419  C1547   1.411   .     A
C1420  C531    1.423   1_565 A
C1420  C1447   1.410   .     A
C1420  C1540   1.415   .     A
C1421  C1458   1.410   .     A
C1421  C1541   1.413   .     A
C1421  C1452   1.418   .     S
C1422  C1453   1.421   .     A
C1422  C1542   1.418   .     A
C1422  C1469   1.412   .     A
C1423  C1543   1.415   .     A
C1423  C1480   1.411   .     A
C1423  C994    1.420   1_655 S
C1424  C1602   1.410   .     A
C1424  C1544   1.415   .     A
C1424  C1451   1.423   .     S
C1425  C1427   1.412   .     A
C1425  C1069   1.400   1_655 S
C1426  C532    1.418   1_565 A
C1426  C1545   1.413   .     A
C1427  C1546   1.417   .     A
C1427  C993    1.421   1_655 S
C1428  C1454   1.420   .     A
C1428  C1436   1.411   .     A
C1428  C1548   1.415   .     A
C1429  C1564   1.456   .     S
C1429  C1592   1.415   .     A
C1429  C1594   1.415   .     A
C1430  C1593   1.419   .     A
C1430  C1590   1.419   .     A
C1430  C1565   1.462   .     S
C1431  C1589   1.416   .     A
C1431  C1596   1.417   .     A
C1431  C1557   1.454   .     S
C1432  C1595   1.419   .     A
C1432  C1559   1.463   .     S
C1432  C1588   1.419   .     A
C1433  C1598   1.415   .     A
C1433  C1560   1.456   .     S
C1433  C1587   1.415   .     A
C1434  C1561   1.462   .     S
C1434  C1586   1.419   .     A
C1434  C1597   1.419   .     A
C1435  C1562   1.454   .     S
C1435  C1585   1.416   .     A
C1435  C1600   1.417   .     A
C1436  C1530   1.399   .     A
C1437  C1584   1.419   .     A
C1437  C1599   1.419   .     A
C1437  C1563   1.463   .     S
C1438  C1603   1.411   .     A
C1438  C1573   1.458   .     S
C1438  C1583   1.417   .     A
C1439  C1582   1.425   .     A
C1439  C1601   1.419   .     A
C1439  C1574   1.466   .     S
C1440  C1581   1.416   .     A
C1440  C1605   1.411   .     A
C1440  C1566   1.456   .     S
C1441  C1579   1.420   .     A
C1441  C1567   1.462   .     S
C1441  C1604   1.418   .     A
C1442  C1607   1.411   .     A
C1442  C1578   1.417   .     A
C1442  C1568   1.458   .     S
C1443  C1577   1.425   .     A
C1443  C1570   1.466   .     S
C1443  C1606   1.419   .     A
C1444  C1571   1.456   .     S
C1444  C1609   1.411   .     A
C1444  C1576   1.416   .     A
C1445  C1575   1.420   .     A
C1445  C1608   1.418   .     A
C1445  C1572   1.462   .     S
C1446  C1448   1.409   .     A
C1446  C1610   1.420   .     A
C1447  C607    1.396   1_565 S
C1449  C1612   1.420   .     A
C1449  C1450   1.409   .     A
C1451  C1452   1.411   1_556 S
C1452  C1451   1.411   1_554 S
C1453  C1454   1.409   1_556 S
C1454  C1453   1.409   1_554 S
C1455  H1707   1.109   .     S
C1455  C1456   1.527   .     S
C1455  C1575   1.530   .     S
C1455  H1718   1.105   .     S
C1456  H1696   1.103   .     S
C1456  H1685   1.110   .     S
C1456  H1613   1.108   .     S
C1457  H1762   1.106   .     S
C1457  H1614   1.106   .     S
C1457  C1459   1.527   .     S
C1457  C1576   1.529   .     S
C1458  C1528   1.408   .     S
C1459  H1729   1.110   .     S
C1459  H1740   1.111   .     S
C1459  H1751   1.110   .     S
C1460  C1577   1.530   .     S
C1460  H1658   1.107   .     S
C1460  H1669   1.102   .     S
C1460  C1461   1.523   .     S
C1461  H1647   1.110   .     S
C1461  H1625   1.109   .     S
C1461  H1636   1.108   .     S
C1462  C1578   1.531   .     S
C1462  H1684   1.108   .     S
C1462  H1686   1.105   .     S
C1462  C1463   1.527   .     S
C1463  H1680   1.111   .     S
C1463  H1683   1.110   .     S
C1463  H1682   1.110   .     S
C1464  C1579   1.530   .     S
C1464  H1691   1.105   .     S
C1464  C1465   1.527   .     S
C1464  H1690   1.109   .     S
C1465  H1687   1.108   .     S
C1465  H1688   1.110   .     S
C1465  H1689   1.103   .     S
C1466  H1697   1.106   .     S
C1466  H1695   1.106   .     S
C1466  C1467   1.527   .     S
C1466  C1581   1.529   .     S
C1467  H1693   1.111   .     S
C1467  H1692   1.110   .     S
C1467  H1694   1.110   .     S
C1468  C1582   1.530   .     S
C1468  H1701   1.107   .     S
C1468  C1470   1.523   .     S
C1468  H1702   1.102   .     S
C1469  C1529   1.400   .     A
C1470  H1699   1.108   .     S
C1470  H1700   1.110   .     S
C1470  H1698   1.109   .     S
C1471  C1472   1.527   .     S
C1471  C1583   1.531   .     S
C1471  H1708   1.105   .     S
C1471  H1706   1.108   .     S
C1472  H1703   1.110   .     S
C1472  H1705   1.111   .     S
C1472  H1704   1.110   .     S
C1473  H1712   1.109   .     S
C1473  H1713   1.109   .     S
C1473  C1474   1.529   .     S
C1473  C1584   1.529   .     S
C1474  H1711   1.109   .     S
C1474  H1709   1.109   .     S
C1474  H1710   1.109   .     S
C1475  C1476   1.524   .     S
C1475  H1719   1.102   .     S
C1475  C1585   1.539   .     S
C1475  H1717   1.108   .     S
C1476  H1715   1.106   .     S
C1476  H1714   1.111   .     S
C1476  H1716   1.110   .     S
C1477  C1478   1.529   .     S
C1477  C1586   1.527   .     S
C1477  H1723   1.109   .     S
C1477  H1724   1.108   .     S
C1478  H1721   1.110   .     S
C1478  H1720   1.109   .     S
C1478  H1722   1.106   .     S
C1479  C1587   1.534   .     S
C1479  C1481   1.534   .     S
C1479  H1730   1.103   .     S
C1479  H1728   1.109   .     S
C1480  C1070   1.399   1_655 S
C1481  H1726   1.108   .     S
C1481  H1725   1.110   .     S
C1481  H1727   1.110   .     S
C1482  C1588   1.529   .     S
C1482  H1734   1.109   .     S
C1482  C1483   1.529   .     S
C1482  H1735   1.109   .     S
C1483  H1733   1.109   .     S
C1483  H1732   1.109   .     S
C1483  H1731   1.109   .     S
C1484  H1739   1.108   .     S
C1484  C1485   1.524   .     S
C1484  H1741   1.102   .     S
C1484  C1589   1.539   .     S
C1485  H1738   1.110   .     S
C1485  H1737   1.106   .     S
C1485  H1736   1.111   .     S
C1486  C1487   1.529   .     S
C1486  C1590   1.527   .     S
C1486  H1745   1.109   .     S
C1486  H1746   1.108   .     S
C1487  H1743   1.110   .     S
C1487  H1742   1.109   .     S
C1487  H1744   1.106   .     S
C1488  C1489   1.534   .     S
C1488  H1750   1.109   .     S
C1488  H1752   1.103   .     S
C1488  C1592   1.534   .     S
C1489  H1749   1.110   .     S
C1489  H1748   1.108   .     S
C1489  H1747   1.110   .     S
C1490  H1756   1.107   .     S
C1490  C1492   1.523   .     S
C1490  H1757   1.105   .     S
C1490  C1593   1.527   .     S
C1491  C1551   1.457   .     S
C1491  C1558   1.400   .     S
C1492  H1753   1.108   .     S
C1492  H1755   1.108   .     S
C1492  H1754   1.109   .     S
C1493  C1594   1.532   .     S
C1493  H1761   1.107   .     S
C1493  H1763   1.105   .     S
C1493  C1494   1.527   .     S
C1494  H1759   1.110   .     S
C1494  H1760   1.110   .     S
C1494  H1758   1.110   .     S
C1495  C1595   1.525   .     S
C1495  C1496   1.520   .     S
C1495  H1767   1.108   .     S
C1495  H1768   1.104   .     S
C1496  H1765   1.109   .     S
C1496  H1764   1.108   .     S
C1496  H1766   1.109   .     S
C1497  H1772   1.104   .     S
C1497  C1498   1.528   .     S
C1497  H1615   1.106   .     S
C1497  C1596   1.532   .     S
C1498  H1769   1.110   .     S
C1498  H1770   1.111   .     S
C1498  H1771   1.109   .     S
C1499  H1620   1.105   .     S
C1499  H1619   1.107   .     S
C1499  C1500   1.522   .     S
C1499  C1597   1.527   .     S
C1500  H1617   1.109   .     S
C1500  H1618   1.108   .     S
C1500  H1616   1.108   .     S
C1501  H1624   1.107   .     S
C1501  C1598   1.532   .     S
C1501  H1626   1.105   .     S
C1501  C1503   1.527   .     S
C1502  C1524   1.400   .     A
C1502  C1552   1.459   .     S
C1503  H1623   1.110   .     S
C1503  H1621   1.110   .     S
C1503  H1622   1.110   .     S
C1504  H1631   1.104   .     S
C1504  H1630   1.108   .     S
C1504  C1599   1.525   .     S
C1504  C1505   1.520   .     S
C1505  H1629   1.109   .     S
C1505  H1628   1.109   .     S
C1505  H1627   1.108   .     S
C1506  C1507   1.528   .     S
C1506  C1600   1.532   .     S
C1506  H1635   1.104   .     S
C1506  H1637   1.106   .     S
C1507  H1634   1.109   .     S
C1507  H1633   1.111   .     S
C1507  H1632   1.110   .     S
C1508  H1641   1.108   .     S
C1508  C1509   1.529   .     S
C1508  C1601   1.530   .     S
C1508  H1642   1.107   .     S
C1509  H1640   1.107   .     S
C1509  H1639   1.110   .     S
C1509  H1638   1.109   .     S
C1510  C1603   1.531   .     S
C1510  C1511   1.529   .     S
C1510  H1648   1.102   .     S
C1510  H1646   1.108   .     S
C1511  H1645   1.109   .     S
C1511  H1643   1.110   .     S
C1511  H1644   1.108   .     S
C1512  C1604   1.527   .     S
C1512  H1652   1.109   .     S
C1512  C1514   1.529   .     S
C1512  H1653   1.108   .     S
C1513  C1549   1.459   .     S
C1513  C1580   1.400   .     S
C1514  H1649   1.109   .     S
C1514  H1650   1.109   .     S
C1514  H1651   1.104   .     S
C1515  C1605   1.528   .     S
C1515  C1516   1.526   .     S
C1515  H1659   1.103   .     S
C1515  H1657   1.108   .     S
C1516  H1655   1.110   .     S
C1516  H1654   1.110   .     S
C1516  H1656   1.109   .     S
C1517  H1663   1.108   .     S
C1517  H1664   1.107   .     S
C1517  C1606   1.530   .     S
C1517  C1518   1.529   .     S
C1518  H1660   1.109   .     S
C1518  H1661   1.110   .     S
C1518  H1662   1.107   .     S
C1519  C1520   1.529   .     S
C1519  H1668   1.107   .     S
C1519  C1607   1.531   .     S
C1519  H1670   1.102   .     S
C1520  H1665   1.110   .     S
C1520  H1667   1.109   .     S
C1520  H1666   1.108   .     S
C1521  H1674   1.109   .     S
C1521  C1608   1.527   .     S
C1521  H1675   1.108   .     S
C1521  C1522   1.529   .     S
C1522  H1672   1.109   .     S
C1522  H1673   1.104   .     S
C1522  H1671   1.109   .     S
C1523  C1526   1.526   .     S
C1523  H1679   1.108   .     S
C1523  C1609   1.528   .     S
C1523  H1681   1.103   .     S
C1525  C1550   1.456   .     S
C1525  C1547   1.399   .     A
C1526  H1676   1.110   .     S
C1526  H1678   1.108   .     S
C1526  H1677   1.110   .     S
C1527  C1602   1.396   .     A
C1527  C1555   1.447   .     S
C1528  C1556   1.466   .     S
C1529  C1553   1.457   .     S
C1530  C1554   1.458   .     S
C1531  C1610   1.417   .     A
C1531  C1537   1.407   .     A
C1532  C1611   1.415   .     A
C1532  C1535   1.407   .     A
C1533  C1612   1.417   .     A
C1533  C1539   1.407   .     A
C1534  C1538   1.407   .     A
C1536  C593    1.400   1_565 A
C1536  Br471   1.933   1_565 S
C1540  C1545   1.397   1_556 S
C1541  C1544   1.397   1_554 S
C1542  C1548   1.407   1_556 S
C1543  C1546   1.407   1_554 S
C1544  C1541   1.397   1_556 S
C1545  C1540   1.397   1_554 S
C1546  C1543   1.407   1_556 S
C1548  C1542   1.407   1_554 S
C1549  O1824   1.279   .     S
C1550  O1821   1.278   .     A
C1551  O1822   1.280   .     S
C1552  O1776   1.280   .     A
C1553  O1777   1.278   .     A
C1553  O1781   1.278   .     A
C1554  O1782   1.278   .     A
C1554  O1778   1.278   .     A
C1555  O1779   1.277   .     S
C1555  O1783   1.277   .     S
C1556  O1780   1.283   .     S
C1556  O1785   1.283   .     S
C1557  O1786   1.279   .     A
C1557  O1814   1.277   .     A
C1558  C1610   1.411   .     A
C1559  O1787   1.275   .     A
C1559  O1815   1.286   .     A
C1560  O1812   1.279   .     A
C1560  O1788   1.279   .     A
C1561  O1789   1.274   .     A
C1561  O1813   1.287   .     A
C1562  O1790   1.279   .     A
C1562  O1819   1.277   .     A
C1563  O1791   1.275   .     A
C1563  O1820   1.286   .     A
C1564  O1816   1.279   .     A
C1564  O1792   1.279   .     A
C1565  O1818   1.287   .     A
C1565  O1793   1.274   .     A
C1566  O1794   1.281   .     A
C1566  O1805   1.277   .     A
C1567  O1807   1.281   .     A
C1567  O1796   1.280   .     A
C1568  O1797   1.281   .     A
C1568  O1803   1.276   .     A
C1569  C1611   1.411   .     A
C1569  C1042   1.400   1_655 S
C1570  O1804   1.274   .     A
C1570  O1798   1.290   .     A
C1571  O1799   1.281   .     A
C1571  O1810   1.277   .     A
C1572  O1811   1.281   .     A
C1572  O1800   1.280   .     A
C1573  O1808   1.276   .     A
C1573  O1801   1.281   .     A
C1574  O1802   1.290   .     A
C1574  O1809   1.274   .     A
C1575  C1592   1.417   .     A
C1576  C1590   1.415   .     A
C1577  C1589   1.412   .     A
C1578  C1588   1.417   .     A
C1579  C1587   1.417   .     A
C1580  C1612   1.412   .     A
C1581  C1586   1.415   .     A
C1582  C1585   1.412   .     A
C1583  C1584   1.417   .     A
C1591  C605    1.399   1_565 S
C1593  C1609   1.408   .     A
C1594  C1608   1.413   .     A
C1595  C1607   1.410   .     A
C1596  C1606   1.413   .     A
C1597  C1605   1.408   .     A
C1598  C1604   1.413   .     A
C1599  C1603   1.410   .     A
C1600  C1601   1.413   .     A
C1611  C988    1.420   1_655 S
O1773  Zn1836  1.950   .     S
O1773  Zn1825  1.950   .     S
O1773  Zn1828  1.947   .     S
O1774  Zn1827  1.947   .     S
O1774  C630    1.278   1_565 S
O1775  C1091   1.280   1_655 A
O1775  Zn1830  1.947   .     S
O1776  Zn1829  1.947   .     S
O1777  Zn1839  1.947   .     S
O1778  Zn1838  1.947   .     S
O1779  Zn1833  1.947   .     S
O1780  Zn1825  1.947   .     S
O1781  Zn1835  1.947   .     S
O1782  Zn1834  1.947   .     S
O1783  Zn1837  1.947   .     S
O1784  Zn1833  1.950   .     S
O1784  Zn1837  1.950   .     S
O1784  Zn1831  1.947   .     S
O1785  Zn1836  1.947   .     S
O1786  Zn1828  1.939   .     S
O1787  Zn1827  1.939   .     S
O1788  Zn1830  1.937   .     S
O1789  Zn1829  1.937   .     S
O1790  Zn1832  1.939   .     S
O1791  Zn1831  1.939   .     S
O1792  Zn1826  1.937   .     S
O1793  Zn1840  1.937   .     S
O1794  Zn1827  1.938   .     S
O1795  Zn1834  1.947   .     S
O1795  Zn1826  1.950   .     S
O1795  Zn1838  1.947   .     S
O1796  Zn1828  1.938   .     S
O1797  Zn1840  1.938   .     S
O1798  Zn1826  1.938   .     S
O1799  Zn1831  1.938   .     S
O1800  Zn1832  1.938   .     S
O1801  Zn1829  1.938   .     S
O1802  Zn1830  1.938   .     S
O1803  Zn1375  1.939   1_655 S
O1804  Zn1834  1.939   .     S
O1805  Zn917   1.937   1_565 S
O1806  Zn1829  1.950   .     S
O1806  Zn1835  1.947   .     S
O1806  Zn1839  1.947   .     S
O1807  Zn1836  1.937   .     S
O1808  Zn1839  1.939   .     S
O1809  Zn1378  1.939   1_655 S
O1810  Zn1833  1.937   .     S
O1811  Zn905   1.937   1_565 S
O1812  Zn1374  1.938   1_655 S
O1813  Zn1835  1.938   .     S
O1814  Zn1825  1.938   .     S
O1815  Zn913   1.938   1_565 S
O1816  Zn1838  1.938   .     S
O1817  C629    1.279   1_565 A
O1817  Zn1832  1.947   .     S
O1818  Zn1379  1.938   1_655 S
O1819  Zn916   1.938   1_565 S
O1820  Zn1837  1.938   .     S
O1821  Zn1831  1.947   .     S
O1822  Zn1826  1.947   .     S
O1823  Zn1840  1.947   .     S
O1823  C1092   1.280   1_655 S
O1824  Zn1828  1.947   .     S
Zn1827 O864    1.947   1_565 S
Zn1830 O1335   1.950   1_655 S
Zn1832 O853    1.947   1_565 S
Zn1840 O1346   1.950   1_655 S
