data_str_m2_o1_o16_pcu_sym.105
_audit_creation_date              2020-01-03
_audit_creation_method            'Materials Studio'
_symmetry_space_group_name_H-M    'P1'
_symmetry_Int_Tables_number       1
_symmetry_cell_setting            triclinic
loop_
_symmetry_equiv_pos_as_xyz
  x,y,z
_cell_length_a                    28.5265
_cell_length_b                    32.4627
_cell_length_c                    26.9079
_cell_angle_alpha                 90.2201
_cell_angle_beta                  72.4954
_cell_angle_gamma                 90.2343
loop_
_atom_site_label
_atom_site_type_symbol
_atom_site_fract_x
_atom_site_fract_y
_atom_site_fract_z
_atom_site_U_iso_or_equiv
_atom_site_adp_type
_atom_site_occupancy
Br1    Br    0.05826   0.04550   0.30793   0.00000  Uiso   1.00
C2     C     0.16668   0.24592   0.25029   0.00000  Uiso   1.00
C3     C     0.12446   0.16257   0.40744   0.00000  Uiso   1.00
C4     C     0.21039   0.31233   0.23265   0.00000  Uiso   1.00
C5     C     0.14044   0.16444   0.35007   0.00000  Uiso   1.00
C6     C     0.20973   0.02160   0.23325   0.00000  Uiso   1.00
C7     C     0.16515   0.04267   0.25326   0.00000  Uiso   1.00
C8     C     0.12086   0.02047   0.27398   0.00000  Uiso   1.00
C9     C     0.12189   0.31114   0.27231   0.00000  Uiso   1.00
C10    C     0.16638   0.29043   0.25156   0.00000  Uiso   1.00
C11    C     0.29903   0.19103   0.28394   0.00000  Uiso   1.00
C12    C     0.01532   0.19098   0.28398   0.00000  Uiso   1.00
C13    C     0.14449   0.16025   0.48977   0.00000  Uiso   1.00
C14    C     0.03428   0.14226   0.21611   0.00000  Uiso   1.00
C15    C     0.31798   0.14227   0.21611   0.00000  Uiso   1.00
C16    C     0.16601   0.08735   0.25160   0.00000  Uiso   1.00
C17    C     0.19291   0.16605   0.14997   0.00000  Uiso   1.00
C18    C     0.26308   0.13254   0.01425   0.00000  Uiso   1.00
C19    C     0.20774   0.16063   0.09340   0.00000  Uiso   1.00
C20    C     0.07699   0.17629   0.43438   0.00000  Uiso   1.00
C21    C     0.06264   0.18079   0.48810   0.00000  Uiso   1.00
C22    C     0.09603   0.17376   0.01558   0.00000  Uiso   1.00
C23    C     0.15703   0.15094   0.43581   0.00000  Uiso   1.00
C24    C     0.18077   0.15524   0.01581   0.00000  Uiso   1.00
C25    C     0.22690   0.13743   0.48910   0.00000  Uiso   1.00
C26    C     0.23601   0.12378   0.43800   0.00000  Uiso   1.00
C27    C     0.20136   0.12979   0.41200   0.00000  Uiso   1.00
C28    C     0.17283   0.16783   0.06756   0.00000  Uiso   1.00
C29    C     0.25344   0.14386   0.06633   0.00000  Uiso   1.00
Cu30   Cu    0.11978   0.16666   0.25000   0.00000  Uiso   1.00
Cu31   Cu    0.21355   0.16667   0.25000   0.00000  Uiso   1.00
H32    H     0.28089   0.13809   0.08585   0.00000  Uiso   1.00
H33    H     0.13943   0.18309   0.08910   0.00000  Uiso   1.00
H34    H     0.05109   0.18449   0.41376   0.00000  Uiso   1.00
H35    H     0.08226   0.17826   0.05712   0.00000  Uiso   1.00
H36    H     0.02577   0.19105   0.00849   0.00000  Uiso   1.00
H37    H     0.20951   0.11651   0.37351   0.00000  Uiso   1.00
H38    H     0.24508   0.29654   0.21656   0.00000  Uiso   1.00
H39    H     0.24408   0.03807   0.21732   0.00000  Uiso   1.00
H40    H     0.08794   0.29412   0.28824   0.00000  Uiso   1.00
H41    H     0.27273   0.21058   0.31109   0.00000  Uiso   1.00
H42    H     0.02646   0.21046   0.31115   0.00000  Uiso   1.00
H43    H     0.06057   0.12265   0.18902   0.00000  Uiso   1.00
H44    H     0.30682   0.12273   0.18900   0.00000  Uiso   1.00
H45    H     0.27015   0.10838   0.41793   0.00000  Uiso   1.00
H46    H     0.29836   0.11899   0.49401   0.00000  Uiso   1.00
N47    N     0.04931   0.16666   0.24998   0.00000  Uiso   1.00
N48    N     0.28402   0.16669   0.24999   0.00000  Uiso   1.00
O49    O     0.12708   0.22678   0.25000   0.00000  Uiso   1.00
O50    O     0.20627   0.22679   0.25000   0.00000  Uiso   1.00
O51    O     0.10775   0.16665   0.32549   0.00000  Uiso   1.00
O52    O     0.18694   0.16666   0.32549   0.00000  Uiso   1.00
O53    O     0.12706   0.10654   0.25000   0.00000  Uiso   1.00
O54    O     0.20625   0.10655   0.25000   0.00000  Uiso   1.00
O55    O     0.14640   0.16667   0.17451   0.00000  Uiso   1.00
O56    O     0.22559   0.16668   0.17451   0.00000  Uiso   1.00
Br57   Br    0.39159   0.04550   0.30793   0.00000  Uiso   1.00
C58    C     0.50001   0.24592   0.25029   0.00000  Uiso   1.00
C59    C     0.45779   0.16257   0.40744   0.00000  Uiso   1.00
C60    C     0.54372   0.31233   0.23265   0.00000  Uiso   1.00
C61    C     0.47377   0.16444   0.35007   0.00000  Uiso   1.00
C62    C     0.54306   0.02160   0.23325   0.00000  Uiso   1.00
C63    C     0.49849   0.04267   0.25326   0.00000  Uiso   1.00
C64    C     0.45420   0.02047   0.27398   0.00000  Uiso   1.00
C65    C     0.45522   0.31114   0.27231   0.00000  Uiso   1.00
C66    C     0.49972   0.29043   0.25156   0.00000  Uiso   1.00
C67    C     0.63236   0.19103   0.28394   0.00000  Uiso   1.00
C68    C     0.34865   0.19098   0.28398   0.00000  Uiso   1.00
C69    C     0.47783   0.16025   0.48977   0.00000  Uiso   1.00
C70    C     0.36762   0.14226   0.21611   0.00000  Uiso   1.00
C71    C     0.65132   0.14227   0.21611   0.00000  Uiso   1.00
C72    C     0.49934   0.08735   0.25160   0.00000  Uiso   1.00
C73    C     0.52624   0.16605   0.14997   0.00000  Uiso   1.00
C74    C     0.59641   0.13254   0.01425   0.00000  Uiso   1.00
C75    C     0.54108   0.16063   0.09340   0.00000  Uiso   1.00
C76    C     0.41032   0.17629   0.43438   0.00000  Uiso   1.00
C77    C     0.39597   0.18079   0.48810   0.00000  Uiso   1.00
C78    C     0.42936   0.17376   0.01558   0.00000  Uiso   1.00
C79    C     0.49036   0.15094   0.43581   0.00000  Uiso   1.00
C80    C     0.51410   0.15524   0.01581   0.00000  Uiso   1.00
C81    C     0.56023   0.13743   0.48910   0.00000  Uiso   1.00
C82    C     0.56935   0.12378   0.43800   0.00000  Uiso   1.00
C83    C     0.53470   0.12979   0.41200   0.00000  Uiso   1.00
C84    C     0.50616   0.16783   0.06756   0.00000  Uiso   1.00
C85    C     0.58677   0.14386   0.06633   0.00000  Uiso   1.00
Cu86   Cu    0.45311   0.16666   0.25000   0.00000  Uiso   1.00
Cu87   Cu    0.54689   0.16667   0.25000   0.00000  Uiso   1.00
H88    H     0.61422   0.13809   0.08585   0.00000  Uiso   1.00
H89    H     0.47276   0.18309   0.08910   0.00000  Uiso   1.00
H90    H     0.38442   0.18449   0.41376   0.00000  Uiso   1.00
H91    H     0.41559   0.17826   0.05712   0.00000  Uiso   1.00
H92    H     0.35910   0.19105   0.00849   0.00000  Uiso   1.00
H93    H     0.54284   0.11651   0.37351   0.00000  Uiso   1.00
H94    H     0.57841   0.29654   0.21656   0.00000  Uiso   1.00
H95    H     0.57741   0.03807   0.21732   0.00000  Uiso   1.00
H96    H     0.42127   0.29412   0.28824   0.00000  Uiso   1.00
H97    H     0.60606   0.21058   0.31109   0.00000  Uiso   1.00
H98    H     0.35979   0.21046   0.31115   0.00000  Uiso   1.00
H99    H     0.39390   0.12265   0.18902   0.00000  Uiso   1.00
H100   H     0.64016   0.12273   0.18900   0.00000  Uiso   1.00
H101   H     0.60348   0.10838   0.41793   0.00000  Uiso   1.00
H102   H     0.63169   0.11899   0.49401   0.00000  Uiso   1.00
N103   N     0.38265   0.16666   0.24998   0.00000  Uiso   1.00
N104   N     0.61735   0.16669   0.24999   0.00000  Uiso   1.00
O105   O     0.46042   0.22678   0.25000   0.00000  Uiso   1.00
O106   O     0.53961   0.22679   0.25000   0.00000  Uiso   1.00
O107   O     0.44108   0.16665   0.32549   0.00000  Uiso   1.00
O108   O     0.52027   0.16666   0.32549   0.00000  Uiso   1.00
O109   O     0.46039   0.10654   0.25000   0.00000  Uiso   1.00
O110   O     0.53958   0.10655   0.25000   0.00000  Uiso   1.00
O111   O     0.47973   0.16667   0.17451   0.00000  Uiso   1.00
O112   O     0.55892   0.16668   0.17451   0.00000  Uiso   1.00
Br113  Br    0.72493   0.04550   0.30793   0.00000  Uiso   1.00
C114   C     0.83335   0.24592   0.25029   0.00000  Uiso   1.00
C115   C     0.79112   0.16257   0.40744   0.00000  Uiso   1.00
C116   C     0.87705   0.31233   0.23265   0.00000  Uiso   1.00
C117   C     0.80710   0.16444   0.35007   0.00000  Uiso   1.00
C118   C     0.87640   0.02160   0.23325   0.00000  Uiso   1.00
C119   C     0.83182   0.04267   0.25326   0.00000  Uiso   1.00
C120   C     0.78753   0.02047   0.27398   0.00000  Uiso   1.00
C121   C     0.78856   0.31114   0.27231   0.00000  Uiso   1.00
C122   C     0.83305   0.29043   0.25156   0.00000  Uiso   1.00
C123   C     0.96570   0.19103   0.28394   0.00000  Uiso   1.00
C124   C     0.68199   0.19098   0.28398   0.00000  Uiso   1.00
C125   C     0.81116   0.16025   0.48977   0.00000  Uiso   1.00
C126   C     0.70095   0.14226   0.21611   0.00000  Uiso   1.00
C127   C     0.98465   0.14227   0.21611   0.00000  Uiso   1.00
C128   C     0.83268   0.08735   0.25160   0.00000  Uiso   1.00
C129   C     0.85958   0.16605   0.14997   0.00000  Uiso   1.00
C130   C     0.92975   0.13254   0.01425   0.00000  Uiso   1.00
C131   C     0.87441   0.16063   0.09340   0.00000  Uiso   1.00
C132   C     0.74366   0.17629   0.43438   0.00000  Uiso   1.00
C133   C     0.72931   0.18079   0.48810   0.00000  Uiso   1.00
C134   C     0.76269   0.17376   0.01558   0.00000  Uiso   1.00
C135   C     0.82370   0.15094   0.43581   0.00000  Uiso   1.00
C136   C     0.84744   0.15524   0.01581   0.00000  Uiso   1.00
C137   C     0.89357   0.13743   0.48910   0.00000  Uiso   1.00
C138   C     0.90268   0.12378   0.43800   0.00000  Uiso   1.00
C139   C     0.86803   0.12979   0.41200   0.00000  Uiso   1.00
C140   C     0.83949   0.16783   0.06756   0.00000  Uiso   1.00
C141   C     0.92011   0.14386   0.06633   0.00000  Uiso   1.00
Cu142  Cu    0.78645   0.16666   0.25000   0.00000  Uiso   1.00
Cu143  Cu    0.88022   0.16667   0.25000   0.00000  Uiso   1.00
H144   H     0.94755   0.13809   0.08585   0.00000  Uiso   1.00
H145   H     0.80609   0.18309   0.08910   0.00000  Uiso   1.00
H146   H     0.71776   0.18449   0.41376   0.00000  Uiso   1.00
H147   H     0.74892   0.17826   0.05712   0.00000  Uiso   1.00
H148   H     0.69243   0.19105   0.00849   0.00000  Uiso   1.00
H149   H     0.87617   0.11651   0.37351   0.00000  Uiso   1.00
H150   H     0.91174   0.29654   0.21656   0.00000  Uiso   1.00
H151   H     0.91074   0.03807   0.21732   0.00000  Uiso   1.00
H152   H     0.75460   0.29412   0.28824   0.00000  Uiso   1.00
H153   H     0.93940   0.21058   0.31109   0.00000  Uiso   1.00
H154   H     0.69313   0.21046   0.31115   0.00000  Uiso   1.00
H155   H     0.72724   0.12265   0.18902   0.00000  Uiso   1.00
H156   H     0.97349   0.12273   0.18900   0.00000  Uiso   1.00
H157   H     0.93682   0.10838   0.41793   0.00000  Uiso   1.00
H158   H     0.96502   0.11899   0.49401   0.00000  Uiso   1.00
N159   N     0.71598   0.16666   0.24998   0.00000  Uiso   1.00
N160   N     0.95069   0.16669   0.24999   0.00000  Uiso   1.00
O161   O     0.79375   0.22678   0.25000   0.00000  Uiso   1.00
O162   O     0.87294   0.22679   0.25000   0.00000  Uiso   1.00
O163   O     0.77441   0.16665   0.32549   0.00000  Uiso   1.00
O164   O     0.85360   0.16666   0.32549   0.00000  Uiso   1.00
O165   O     0.79373   0.10654   0.25000   0.00000  Uiso   1.00
O166   O     0.87292   0.10655   0.25000   0.00000  Uiso   1.00
O167   O     0.81306   0.16667   0.17451   0.00000  Uiso   1.00
O168   O     0.89225   0.16668   0.17451   0.00000  Uiso   1.00
Br169  Br    0.05826   0.37883   0.30793   0.00000  Uiso   1.00
C170   C     0.16668   0.57926   0.25029   0.00000  Uiso   1.00
C171   C     0.12446   0.49590   0.40744   0.00000  Uiso   1.00
C172   C     0.21039   0.64566   0.23265   0.00000  Uiso   1.00
C173   C     0.14044   0.49777   0.35007   0.00000  Uiso   1.00
C174   C     0.20973   0.35493   0.23325   0.00000  Uiso   1.00
C175   C     0.16515   0.37600   0.25326   0.00000  Uiso   1.00
C176   C     0.12086   0.35381   0.27398   0.00000  Uiso   1.00
C177   C     0.12189   0.64447   0.27231   0.00000  Uiso   1.00
C178   C     0.16638   0.62376   0.25156   0.00000  Uiso   1.00
C179   C     0.29903   0.52436   0.28394   0.00000  Uiso   1.00
C180   C     0.01532   0.52431   0.28398   0.00000  Uiso   1.00
C181   C     0.14449   0.49359   0.48977   0.00000  Uiso   1.00
C182   C     0.03428   0.47559   0.21611   0.00000  Uiso   1.00
C183   C     0.31798   0.47561   0.21611   0.00000  Uiso   1.00
C184   C     0.16601   0.42069   0.25160   0.00000  Uiso   1.00
C185   C     0.19291   0.49938   0.14997   0.00000  Uiso   1.00
C186   C     0.26308   0.46588   0.01425   0.00000  Uiso   1.00
C187   C     0.20774   0.49397   0.09340   0.00000  Uiso   1.00
C188   C     0.07699   0.50962   0.43438   0.00000  Uiso   1.00
C189   C     0.06264   0.51412   0.48810   0.00000  Uiso   1.00
C190   C     0.09603   0.50710   0.01558   0.00000  Uiso   1.00
C191   C     0.15703   0.48427   0.43581   0.00000  Uiso   1.00
C192   C     0.18077   0.48858   0.01581   0.00000  Uiso   1.00
C193   C     0.22690   0.47076   0.48910   0.00000  Uiso   1.00
C194   C     0.23601   0.45712   0.43800   0.00000  Uiso   1.00
C195   C     0.20136   0.46312   0.41200   0.00000  Uiso   1.00
C196   C     0.17283   0.50116   0.06756   0.00000  Uiso   1.00
C197   C     0.25344   0.47720   0.06633   0.00000  Uiso   1.00
Cu198  Cu    0.11978   0.49999   0.25000   0.00000  Uiso   1.00
Cu199  Cu    0.21355   0.50001   0.25000   0.00000  Uiso   1.00
H200   H     0.28089   0.47142   0.08585   0.00000  Uiso   1.00
H201   H     0.13943   0.51642   0.08910   0.00000  Uiso   1.00
H202   H     0.05109   0.51782   0.41376   0.00000  Uiso   1.00
H203   H     0.08226   0.51160   0.05712   0.00000  Uiso   1.00
H204   H     0.02577   0.52438   0.00849   0.00000  Uiso   1.00
H205   H     0.20951   0.44984   0.37351   0.00000  Uiso   1.00
H206   H     0.24508   0.62988   0.21656   0.00000  Uiso   1.00
H207   H     0.24408   0.37140   0.21732   0.00000  Uiso   1.00
H208   H     0.08794   0.62745   0.28824   0.00000  Uiso   1.00
H209   H     0.27273   0.54392   0.31109   0.00000  Uiso   1.00
H210   H     0.02646   0.54380   0.31115   0.00000  Uiso   1.00
H211   H     0.06057   0.45598   0.18902   0.00000  Uiso   1.00
H212   H     0.30682   0.45606   0.18900   0.00000  Uiso   1.00
H213   H     0.27015   0.44171   0.41793   0.00000  Uiso   1.00
H214   H     0.29836   0.45232   0.49401   0.00000  Uiso   1.00
N215   N     0.04931   0.49999   0.24998   0.00000  Uiso   1.00
N216   N     0.28402   0.50002   0.24999   0.00000  Uiso   1.00
O217   O     0.12708   0.56011   0.25000   0.00000  Uiso   1.00
O218   O     0.20627   0.56012   0.25000   0.00000  Uiso   1.00
O219   O     0.10775   0.49998   0.32549   0.00000  Uiso   1.00
O220   O     0.18694   0.49999   0.32549   0.00000  Uiso   1.00
O221   O     0.12706   0.43988   0.25000   0.00000  Uiso   1.00
O222   O     0.20625   0.43989   0.25000   0.00000  Uiso   1.00
O223   O     0.14640   0.50001   0.17451   0.00000  Uiso   1.00
O224   O     0.22559   0.50002   0.17451   0.00000  Uiso   1.00
Br225  Br    0.39159   0.37883   0.30793   0.00000  Uiso   1.00
C226   C     0.50001   0.57926   0.25029   0.00000  Uiso   1.00
C227   C     0.45779   0.49590   0.40744   0.00000  Uiso   1.00
C228   C     0.54372   0.64566   0.23265   0.00000  Uiso   1.00
C229   C     0.47377   0.49777   0.35007   0.00000  Uiso   1.00
C230   C     0.54306   0.35493   0.23325   0.00000  Uiso   1.00
C231   C     0.49849   0.37600   0.25326   0.00000  Uiso   1.00
C232   C     0.45420   0.35381   0.27398   0.00000  Uiso   1.00
C233   C     0.45522   0.64447   0.27231   0.00000  Uiso   1.00
C234   C     0.49972   0.62376   0.25156   0.00000  Uiso   1.00
C235   C     0.63236   0.52436   0.28394   0.00000  Uiso   1.00
C236   C     0.34865   0.52431   0.28398   0.00000  Uiso   1.00
C237   C     0.47783   0.49359   0.48977   0.00000  Uiso   1.00
C238   C     0.36762   0.47559   0.21611   0.00000  Uiso   1.00
C239   C     0.65132   0.47561   0.21611   0.00000  Uiso   1.00
C240   C     0.49934   0.42069   0.25160   0.00000  Uiso   1.00
C241   C     0.52624   0.49938   0.14997   0.00000  Uiso   1.00
C242   C     0.59641   0.46588   0.01425   0.00000  Uiso   1.00
C243   C     0.54108   0.49397   0.09340   0.00000  Uiso   1.00
C244   C     0.41032   0.50962   0.43438   0.00000  Uiso   1.00
C245   C     0.39597   0.51412   0.48810   0.00000  Uiso   1.00
C246   C     0.42936   0.50710   0.01558   0.00000  Uiso   1.00
C247   C     0.49036   0.48427   0.43581   0.00000  Uiso   1.00
C248   C     0.51410   0.48858   0.01581   0.00000  Uiso   1.00
C249   C     0.56023   0.47076   0.48910   0.00000  Uiso   1.00
C250   C     0.56935   0.45712   0.43800   0.00000  Uiso   1.00
C251   C     0.53470   0.46312   0.41200   0.00000  Uiso   1.00
C252   C     0.50616   0.50116   0.06756   0.00000  Uiso   1.00
C253   C     0.58677   0.47720   0.06633   0.00000  Uiso   1.00
Cu254  Cu    0.45311   0.49999   0.25000   0.00000  Uiso   1.00
Cu255  Cu    0.54689   0.50001   0.25000   0.00000  Uiso   1.00
H256   H     0.61422   0.47142   0.08585   0.00000  Uiso   1.00
H257   H     0.47276   0.51642   0.08910   0.00000  Uiso   1.00
H258   H     0.38442   0.51782   0.41376   0.00000  Uiso   1.00
H259   H     0.41559   0.51160   0.05712   0.00000  Uiso   1.00
H260   H     0.35910   0.52438   0.00849   0.00000  Uiso   1.00
H261   H     0.54284   0.44984   0.37351   0.00000  Uiso   1.00
H262   H     0.57841   0.62988   0.21656   0.00000  Uiso   1.00
H263   H     0.57741   0.37140   0.21732   0.00000  Uiso   1.00
H264   H     0.42127   0.62745   0.28824   0.00000  Uiso   1.00
H265   H     0.60606   0.54392   0.31109   0.00000  Uiso   1.00
H266   H     0.35979   0.54380   0.31115   0.00000  Uiso   1.00
H267   H     0.39390   0.45598   0.18902   0.00000  Uiso   1.00
H268   H     0.64016   0.45606   0.18900   0.00000  Uiso   1.00
H269   H     0.60348   0.44171   0.41793   0.00000  Uiso   1.00
H270   H     0.63169   0.45232   0.49401   0.00000  Uiso   1.00
N271   N     0.38265   0.49999   0.24998   0.00000  Uiso   1.00
N272   N     0.61735   0.50002   0.24999   0.00000  Uiso   1.00
O273   O     0.46042   0.56011   0.25000   0.00000  Uiso   1.00
O274   O     0.53961   0.56012   0.25000   0.00000  Uiso   1.00
O275   O     0.44108   0.49998   0.32549   0.00000  Uiso   1.00
O276   O     0.52027   0.49999   0.32549   0.00000  Uiso   1.00
O277   O     0.46039   0.43988   0.25000   0.00000  Uiso   1.00
O278   O     0.53958   0.43989   0.25000   0.00000  Uiso   1.00
O279   O     0.47973   0.50001   0.17451   0.00000  Uiso   1.00
O280   O     0.55892   0.50002   0.17451   0.00000  Uiso   1.00
Br281  Br    0.72493   0.37883   0.30793   0.00000  Uiso   1.00
C282   C     0.83335   0.57926   0.25029   0.00000  Uiso   1.00
C283   C     0.79112   0.49590   0.40744   0.00000  Uiso   1.00
C284   C     0.87705   0.64566   0.23265   0.00000  Uiso   1.00
C285   C     0.80710   0.49777   0.35007   0.00000  Uiso   1.00
C286   C     0.87640   0.35493   0.23325   0.00000  Uiso   1.00
C287   C     0.83182   0.37600   0.25326   0.00000  Uiso   1.00
C288   C     0.78753   0.35381   0.27398   0.00000  Uiso   1.00
C289   C     0.78856   0.64447   0.27231   0.00000  Uiso   1.00
C290   C     0.83305   0.62376   0.25156   0.00000  Uiso   1.00
C291   C     0.96570   0.52436   0.28394   0.00000  Uiso   1.00
C292   C     0.68199   0.52431   0.28398   0.00000  Uiso   1.00
C293   C     0.81116   0.49359   0.48977   0.00000  Uiso   1.00
C294   C     0.70095   0.47559   0.21611   0.00000  Uiso   1.00
C295   C     0.98465   0.47561   0.21611   0.00000  Uiso   1.00
C296   C     0.83268   0.42069   0.25160   0.00000  Uiso   1.00
C297   C     0.85958   0.49938   0.14997   0.00000  Uiso   1.00
C298   C     0.92975   0.46588   0.01425   0.00000  Uiso   1.00
C299   C     0.87441   0.49397   0.09340   0.00000  Uiso   1.00
C300   C     0.74366   0.50962   0.43438   0.00000  Uiso   1.00
C301   C     0.72931   0.51412   0.48810   0.00000  Uiso   1.00
C302   C     0.76269   0.50710   0.01558   0.00000  Uiso   1.00
C303   C     0.82370   0.48427   0.43581   0.00000  Uiso   1.00
C304   C     0.84744   0.48858   0.01581   0.00000  Uiso   1.00
C305   C     0.89357   0.47076   0.48910   0.00000  Uiso   1.00
C306   C     0.90268   0.45712   0.43800   0.00000  Uiso   1.00
C307   C     0.86803   0.46312   0.41200   0.00000  Uiso   1.00
C308   C     0.83949   0.50116   0.06756   0.00000  Uiso   1.00
C309   C     0.92011   0.47720   0.06633   0.00000  Uiso   1.00
Cu310  Cu    0.78645   0.49999   0.25000   0.00000  Uiso   1.00
Cu311  Cu    0.88022   0.50001   0.25000   0.00000  Uiso   1.00
H312   H     0.94755   0.47142   0.08585   0.00000  Uiso   1.00
H313   H     0.80609   0.51642   0.08910   0.00000  Uiso   1.00
H314   H     0.71776   0.51782   0.41376   0.00000  Uiso   1.00
H315   H     0.74892   0.51160   0.05712   0.00000  Uiso   1.00
H316   H     0.69243   0.52438   0.00849   0.00000  Uiso   1.00
H317   H     0.87617   0.44984   0.37351   0.00000  Uiso   1.00
H318   H     0.91174   0.62988   0.21656   0.00000  Uiso   1.00
H319   H     0.91074   0.37140   0.21732   0.00000  Uiso   1.00
H320   H     0.75460   0.62745   0.28824   0.00000  Uiso   1.00
H321   H     0.93940   0.54392   0.31109   0.00000  Uiso   1.00
H322   H     0.69313   0.54380   0.31115   0.00000  Uiso   1.00
H323   H     0.72724   0.45598   0.18902   0.00000  Uiso   1.00
H324   H     0.97349   0.45606   0.18900   0.00000  Uiso   1.00
H325   H     0.93682   0.44171   0.41793   0.00000  Uiso   1.00
H326   H     0.96502   0.45232   0.49401   0.00000  Uiso   1.00
N327   N     0.71598   0.49999   0.24998   0.00000  Uiso   1.00
N328   N     0.95069   0.50002   0.24999   0.00000  Uiso   1.00
O329   O     0.79375   0.56011   0.25000   0.00000  Uiso   1.00
O330   O     0.87294   0.56012   0.25000   0.00000  Uiso   1.00
O331   O     0.77441   0.49998   0.32549   0.00000  Uiso   1.00
O332   O     0.85360   0.49999   0.32549   0.00000  Uiso   1.00
O333   O     0.79373   0.43988   0.25000   0.00000  Uiso   1.00
O334   O     0.87292   0.43989   0.25000   0.00000  Uiso   1.00
O335   O     0.81306   0.50001   0.17451   0.00000  Uiso   1.00
O336   O     0.89225   0.50002   0.17451   0.00000  Uiso   1.00
Br337  Br    0.05826   0.71217   0.30793   0.00000  Uiso   1.00
C338   C     0.16668   0.91259   0.25029   0.00000  Uiso   1.00
C339   C     0.12446   0.82923   0.40744   0.00000  Uiso   1.00
C340   C     0.21039   0.97899   0.23265   0.00000  Uiso   1.00
C341   C     0.14044   0.83111   0.35007   0.00000  Uiso   1.00
C342   C     0.20973   0.68827   0.23325   0.00000  Uiso   1.00
C343   C     0.16515   0.70933   0.25326   0.00000  Uiso   1.00
C344   C     0.12086   0.68714   0.27398   0.00000  Uiso   1.00
C345   C     0.12189   0.97781   0.27231   0.00000  Uiso   1.00
C346   C     0.16638   0.95709   0.25156   0.00000  Uiso   1.00
C347   C     0.29903   0.85770   0.28394   0.00000  Uiso   1.00
C348   C     0.01532   0.85764   0.28398   0.00000  Uiso   1.00
C349   C     0.14449   0.82692   0.48977   0.00000  Uiso   1.00
C350   C     0.03428   0.80892   0.21611   0.00000  Uiso   1.00
C351   C     0.31798   0.80894   0.21611   0.00000  Uiso   1.00
C352   C     0.16601   0.75402   0.25160   0.00000  Uiso   1.00
C353   C     0.19291   0.83272   0.14997   0.00000  Uiso   1.00
C354   C     0.26308   0.79921   0.01425   0.00000  Uiso   1.00
C355   C     0.20774   0.82730   0.09340   0.00000  Uiso   1.00
C356   C     0.07699   0.84296   0.43438   0.00000  Uiso   1.00
C357   C     0.06264   0.84745   0.48810   0.00000  Uiso   1.00
C358   C     0.09603   0.84043   0.01558   0.00000  Uiso   1.00
C359   C     0.15703   0.81760   0.43581   0.00000  Uiso   1.00
C360   C     0.18077   0.82191   0.01581   0.00000  Uiso   1.00
C361   C     0.22690   0.80410   0.48910   0.00000  Uiso   1.00
C362   C     0.23601   0.79045   0.43800   0.00000  Uiso   1.00
C363   C     0.20136   0.79645   0.41200   0.00000  Uiso   1.00
C364   C     0.17283   0.83449   0.06756   0.00000  Uiso   1.00
C365   C     0.25344   0.81053   0.06633   0.00000  Uiso   1.00
Cu366  Cu    0.11978   0.83333   0.25000   0.00000  Uiso   1.00
Cu367  Cu    0.21355   0.83334   0.25000   0.00000  Uiso   1.00
H368   H     0.28089   0.80475   0.08585   0.00000  Uiso   1.00
H369   H     0.13943   0.84976   0.08910   0.00000  Uiso   1.00
H370   H     0.05109   0.85115   0.41376   0.00000  Uiso   1.00
H371   H     0.08226   0.84493   0.05712   0.00000  Uiso   1.00
H372   H     0.02577   0.85772   0.00849   0.00000  Uiso   1.00
H373   H     0.20951   0.78318   0.37351   0.00000  Uiso   1.00
H374   H     0.24508   0.96321   0.21656   0.00000  Uiso   1.00
H375   H     0.24408   0.70473   0.21732   0.00000  Uiso   1.00
H376   H     0.08794   0.96079   0.28824   0.00000  Uiso   1.00
H377   H     0.27273   0.87725   0.31109   0.00000  Uiso   1.00
H378   H     0.02646   0.87713   0.31115   0.00000  Uiso   1.00
H379   H     0.06057   0.78932   0.18902   0.00000  Uiso   1.00
H380   H     0.30682   0.78940   0.18900   0.00000  Uiso   1.00
H381   H     0.27015   0.77504   0.41793   0.00000  Uiso   1.00
H382   H     0.29836   0.78566   0.49401   0.00000  Uiso   1.00
N383   N     0.04931   0.83332   0.24998   0.00000  Uiso   1.00
N384   N     0.28402   0.83335   0.24999   0.00000  Uiso   1.00
O385   O     0.12708   0.89345   0.25000   0.00000  Uiso   1.00
O386   O     0.20627   0.89346   0.25000   0.00000  Uiso   1.00
O387   O     0.10775   0.83332   0.32549   0.00000  Uiso   1.00
O388   O     0.18694   0.83333   0.32549   0.00000  Uiso   1.00
O389   O     0.12706   0.77321   0.25000   0.00000  Uiso   1.00
O390   O     0.20625   0.77322   0.25000   0.00000  Uiso   1.00
O391   O     0.14640   0.83334   0.17451   0.00000  Uiso   1.00
O392   O     0.22559   0.83335   0.17451   0.00000  Uiso   1.00
Br393  Br    0.39159   0.71217   0.30793   0.00000  Uiso   1.00
C394   C     0.50001   0.91259   0.25029   0.00000  Uiso   1.00
C395   C     0.45779   0.82923   0.40744   0.00000  Uiso   1.00
C396   C     0.54372   0.97899   0.23265   0.00000  Uiso   1.00
C397   C     0.47377   0.83111   0.35007   0.00000  Uiso   1.00
C398   C     0.54306   0.68827   0.23325   0.00000  Uiso   1.00
C399   C     0.49849   0.70933   0.25326   0.00000  Uiso   1.00
C400   C     0.45420   0.68714   0.27398   0.00000  Uiso   1.00
C401   C     0.45522   0.97781   0.27231   0.00000  Uiso   1.00
C402   C     0.49972   0.95709   0.25156   0.00000  Uiso   1.00
C403   C     0.63236   0.85770   0.28394   0.00000  Uiso   1.00
C404   C     0.34865   0.85764   0.28398   0.00000  Uiso   1.00
C405   C     0.47783   0.82692   0.48977   0.00000  Uiso   1.00
C406   C     0.36762   0.80892   0.21611   0.00000  Uiso   1.00
C407   C     0.65132   0.80894   0.21611   0.00000  Uiso   1.00
C408   C     0.49934   0.75402   0.25160   0.00000  Uiso   1.00
C409   C     0.52624   0.83272   0.14997   0.00000  Uiso   1.00
C410   C     0.59641   0.79921   0.01425   0.00000  Uiso   1.00
C411   C     0.54108   0.82730   0.09340   0.00000  Uiso   1.00
C412   C     0.41032   0.84296   0.43438   0.00000  Uiso   1.00
C413   C     0.39597   0.84745   0.48810   0.00000  Uiso   1.00
C414   C     0.42936   0.84043   0.01558   0.00000  Uiso   1.00
C415   C     0.49036   0.81760   0.43581   0.00000  Uiso   1.00
C416   C     0.51410   0.82191   0.01581   0.00000  Uiso   1.00
C417   C     0.56023   0.80410   0.48910   0.00000  Uiso   1.00
C418   C     0.56935   0.79045   0.43800   0.00000  Uiso   1.00
C419   C     0.53470   0.79645   0.41200   0.00000  Uiso   1.00
C420   C     0.50616   0.83449   0.06756   0.00000  Uiso   1.00
C421   C     0.58677   0.81053   0.06633   0.00000  Uiso   1.00
Cu422  Cu    0.45311   0.83333   0.25000   0.00000  Uiso   1.00
Cu423  Cu    0.54689   0.83334   0.25000   0.00000  Uiso   1.00
H424   H     0.61422   0.80475   0.08585   0.00000  Uiso   1.00
H425   H     0.47276   0.84976   0.08910   0.00000  Uiso   1.00
H426   H     0.38442   0.85115   0.41376   0.00000  Uiso   1.00
H427   H     0.41559   0.84493   0.05712   0.00000  Uiso   1.00
H428   H     0.35910   0.85772   0.00849   0.00000  Uiso   1.00
H429   H     0.54284   0.78318   0.37351   0.00000  Uiso   1.00
H430   H     0.57841   0.96321   0.21656   0.00000  Uiso   1.00
H431   H     0.57741   0.70473   0.21732   0.00000  Uiso   1.00
H432   H     0.42127   0.96079   0.28824   0.00000  Uiso   1.00
H433   H     0.60606   0.87725   0.31109   0.00000  Uiso   1.00
H434   H     0.35979   0.87713   0.31115   0.00000  Uiso   1.00
H435   H     0.39390   0.78932   0.18902   0.00000  Uiso   1.00
H436   H     0.64016   0.78940   0.18900   0.00000  Uiso   1.00
H437   H     0.60348   0.77504   0.41793   0.00000  Uiso   1.00
H438   H     0.63169   0.78566   0.49401   0.00000  Uiso   1.00
N439   N     0.38265   0.83332   0.24998   0.00000  Uiso   1.00
N440   N     0.61735   0.83335   0.24999   0.00000  Uiso   1.00
O441   O     0.46042   0.89345   0.25000   0.00000  Uiso   1.00
O442   O     0.53961   0.89346   0.25000   0.00000  Uiso   1.00
O443   O     0.44108   0.83332   0.32549   0.00000  Uiso   1.00
O444   O     0.52027   0.83333   0.32549   0.00000  Uiso   1.00
O445   O     0.46039   0.77321   0.25000   0.00000  Uiso   1.00
O446   O     0.53958   0.77322   0.25000   0.00000  Uiso   1.00
O447   O     0.47973   0.83334   0.17451   0.00000  Uiso   1.00
O448   O     0.55892   0.83335   0.17451   0.00000  Uiso   1.00
Br449  Br    0.72493   0.71217   0.30793   0.00000  Uiso   1.00
C450   C     0.83335   0.91259   0.25029   0.00000  Uiso   1.00
C451   C     0.79112   0.82923   0.40744   0.00000  Uiso   1.00
C452   C     0.87705   0.97899   0.23265   0.00000  Uiso   1.00
C453   C     0.80710   0.83111   0.35007   0.00000  Uiso   1.00
C454   C     0.87640   0.68827   0.23325   0.00000  Uiso   1.00
C455   C     0.83182   0.70933   0.25326   0.00000  Uiso   1.00
C456   C     0.78753   0.68714   0.27398   0.00000  Uiso   1.00
C457   C     0.78856   0.97781   0.27231   0.00000  Uiso   1.00
C458   C     0.83305   0.95709   0.25156   0.00000  Uiso   1.00
C459   C     0.96570   0.85770   0.28394   0.00000  Uiso   1.00
C460   C     0.68199   0.85764   0.28398   0.00000  Uiso   1.00
C461   C     0.81116   0.82692   0.48977   0.00000  Uiso   1.00
C462   C     0.70095   0.80892   0.21611   0.00000  Uiso   1.00
C463   C     0.98465   0.80894   0.21611   0.00000  Uiso   1.00
C464   C     0.83268   0.75402   0.25160   0.00000  Uiso   1.00
C465   C     0.85958   0.83272   0.14997   0.00000  Uiso   1.00
C466   C     0.92975   0.79921   0.01425   0.00000  Uiso   1.00
C467   C     0.87441   0.82730   0.09340   0.00000  Uiso   1.00
C468   C     0.74366   0.84296   0.43438   0.00000  Uiso   1.00
C469   C     0.72931   0.84745   0.48810   0.00000  Uiso   1.00
C470   C     0.76269   0.84043   0.01558   0.00000  Uiso   1.00
C471   C     0.82370   0.81760   0.43581   0.00000  Uiso   1.00
C472   C     0.84744   0.82191   0.01581   0.00000  Uiso   1.00
C473   C     0.89357   0.80410   0.48910   0.00000  Uiso   1.00
C474   C     0.90268   0.79045   0.43800   0.00000  Uiso   1.00
C475   C     0.86803   0.79645   0.41200   0.00000  Uiso   1.00
C476   C     0.83949   0.83449   0.06756   0.00000  Uiso   1.00
C477   C     0.92011   0.81053   0.06633   0.00000  Uiso   1.00
Cu478  Cu    0.78645   0.83333   0.25000   0.00000  Uiso   1.00
Cu479  Cu    0.88022   0.83334   0.25000   0.00000  Uiso   1.00
H480   H     0.94755   0.80475   0.08585   0.00000  Uiso   1.00
H481   H     0.80609   0.84976   0.08910   0.00000  Uiso   1.00
H482   H     0.71776   0.85115   0.41376   0.00000  Uiso   1.00
H483   H     0.74892   0.84493   0.05712   0.00000  Uiso   1.00
H484   H     0.69243   0.85772   0.00849   0.00000  Uiso   1.00
H485   H     0.87617   0.78318   0.37351   0.00000  Uiso   1.00
H486   H     0.91174   0.96321   0.21656   0.00000  Uiso   1.00
H487   H     0.91074   0.70473   0.21732   0.00000  Uiso   1.00
H488   H     0.75460   0.96079   0.28824   0.00000  Uiso   1.00
H489   H     0.93940   0.87725   0.31109   0.00000  Uiso   1.00
H490   H     0.69313   0.87713   0.31115   0.00000  Uiso   1.00
H491   H     0.72724   0.78932   0.18902   0.00000  Uiso   1.00
H492   H     0.97349   0.78940   0.18900   0.00000  Uiso   1.00
H493   H     0.93682   0.77504   0.41793   0.00000  Uiso   1.00
H494   H     0.96502   0.78566   0.49401   0.00000  Uiso   1.00
N495   N     0.71598   0.83332   0.24998   0.00000  Uiso   1.00
N496   N     0.95069   0.83335   0.24999   0.00000  Uiso   1.00
O497   O     0.79375   0.89345   0.25000   0.00000  Uiso   1.00
O498   O     0.87294   0.89346   0.25000   0.00000  Uiso   1.00
O499   O     0.77441   0.83332   0.32549   0.00000  Uiso   1.00
O500   O     0.85360   0.83333   0.32549   0.00000  Uiso   1.00
O501   O     0.79373   0.77321   0.25000   0.00000  Uiso   1.00
O502   O     0.87292   0.77322   0.25000   0.00000  Uiso   1.00
O503   O     0.81306   0.83334   0.17451   0.00000  Uiso   1.00
O504   O     0.89225   0.83335   0.17451   0.00000  Uiso   1.00
Br505  Br    0.05826   0.04550   0.80793   0.00000  Uiso   1.00
C506   C     0.16668   0.24592   0.75029   0.00000  Uiso   1.00
C507   C     0.12446   0.16257   0.90744   0.00000  Uiso   1.00
C508   C     0.21039   0.31233   0.73265   0.00000  Uiso   1.00
C509   C     0.14044   0.16444   0.85007   0.00000  Uiso   1.00
C510   C     0.20973   0.02160   0.73325   0.00000  Uiso   1.00
C511   C     0.16515   0.04267   0.75326   0.00000  Uiso   1.00
C512   C     0.12086   0.02047   0.77398   0.00000  Uiso   1.00
C513   C     0.12189   0.31114   0.77231   0.00000  Uiso   1.00
C514   C     0.16638   0.29043   0.75156   0.00000  Uiso   1.00
C515   C     0.29903   0.19103   0.78394   0.00000  Uiso   1.00
C516   C     0.01532   0.19098   0.78398   0.00000  Uiso   1.00
C517   C     0.14449   0.16025   0.98977   0.00000  Uiso   1.00
C518   C     0.03428   0.14226   0.71611   0.00000  Uiso   1.00
C519   C     0.31798   0.14227   0.71611   0.00000  Uiso   1.00
C520   C     0.16601   0.08735   0.75160   0.00000  Uiso   1.00
C521   C     0.19291   0.16605   0.64997   0.00000  Uiso   1.00
C522   C     0.26308   0.13254   0.51425   0.00000  Uiso   1.00
C523   C     0.20774   0.16063   0.59340   0.00000  Uiso   1.00
C524   C     0.07699   0.17629   0.93438   0.00000  Uiso   1.00
C525   C     0.06264   0.18079   0.98810   0.00000  Uiso   1.00
C526   C     0.09603   0.17376   0.51558   0.00000  Uiso   1.00
C527   C     0.15703   0.15094   0.93581   0.00000  Uiso   1.00
C528   C     0.18077   0.15524   0.51581   0.00000  Uiso   1.00
C529   C     0.22690   0.13743   0.98910   0.00000  Uiso   1.00
C530   C     0.23601   0.12378   0.93800   0.00000  Uiso   1.00
C531   C     0.20136   0.12979   0.91200   0.00000  Uiso   1.00
C532   C     0.17283   0.16783   0.56756   0.00000  Uiso   1.00
C533   C     0.25344   0.14386   0.56633   0.00000  Uiso   1.00
Cu534  Cu    0.11978   0.16666   0.75000   0.00000  Uiso   1.00
Cu535  Cu    0.21355   0.16667   0.75000   0.00000  Uiso   1.00
H536   H     0.28089   0.13809   0.58585   0.00000  Uiso   1.00
H537   H     0.13943   0.18309   0.58910   0.00000  Uiso   1.00
H538   H     0.05109   0.18449   0.91376   0.00000  Uiso   1.00
H539   H     0.08226   0.17826   0.55712   0.00000  Uiso   1.00
H540   H     0.02577   0.19105   0.50849   0.00000  Uiso   1.00
H541   H     0.20951   0.11651   0.87351   0.00000  Uiso   1.00
H542   H     0.24508   0.29654   0.71656   0.00000  Uiso   1.00
H543   H     0.24408   0.03807   0.71732   0.00000  Uiso   1.00
H544   H     0.08794   0.29412   0.78824   0.00000  Uiso   1.00
H545   H     0.27273   0.21058   0.81109   0.00000  Uiso   1.00
H546   H     0.02646   0.21046   0.81115   0.00000  Uiso   1.00
H547   H     0.06057   0.12265   0.68902   0.00000  Uiso   1.00
H548   H     0.30682   0.12273   0.68900   0.00000  Uiso   1.00
H549   H     0.27015   0.10838   0.91793   0.00000  Uiso   1.00
H550   H     0.29836   0.11899   0.99401   0.00000  Uiso   1.00
N551   N     0.04931   0.16666   0.74998   0.00000  Uiso   1.00
N552   N     0.28402   0.16669   0.74999   0.00000  Uiso   1.00
O553   O     0.12708   0.22678   0.75000   0.00000  Uiso   1.00
O554   O     0.20627   0.22679   0.75000   0.00000  Uiso   1.00
O555   O     0.10775   0.16665   0.82549   0.00000  Uiso   1.00
O556   O     0.18694   0.16666   0.82549   0.00000  Uiso   1.00
O557   O     0.12706   0.10654   0.75000   0.00000  Uiso   1.00
O558   O     0.20625   0.10655   0.75000   0.00000  Uiso   1.00
O559   O     0.14640   0.16667   0.67451   0.00000  Uiso   1.00
O560   O     0.22559   0.16668   0.67451   0.00000  Uiso   1.00
Br561  Br    0.39159   0.04550   0.80793   0.00000  Uiso   1.00
C562   C     0.50001   0.24592   0.75029   0.00000  Uiso   1.00
C563   C     0.45779   0.16257   0.90744   0.00000  Uiso   1.00
C564   C     0.54372   0.31233   0.73265   0.00000  Uiso   1.00
C565   C     0.47377   0.16444   0.85007   0.00000  Uiso   1.00
C566   C     0.54306   0.02160   0.73325   0.00000  Uiso   1.00
C567   C     0.49849   0.04267   0.75326   0.00000  Uiso   1.00
C568   C     0.45420   0.02047   0.77398   0.00000  Uiso   1.00
C569   C     0.45522   0.31114   0.77231   0.00000  Uiso   1.00
C570   C     0.49972   0.29043   0.75156   0.00000  Uiso   1.00
C571   C     0.63236   0.19103   0.78394   0.00000  Uiso   1.00
C572   C     0.34865   0.19098   0.78398   0.00000  Uiso   1.00
C573   C     0.47783   0.16025   0.98977   0.00000  Uiso   1.00
C574   C     0.36762   0.14226   0.71611   0.00000  Uiso   1.00
C575   C     0.65132   0.14227   0.71611   0.00000  Uiso   1.00
C576   C     0.49934   0.08735   0.75160   0.00000  Uiso   1.00
C577   C     0.52624   0.16605   0.64997   0.00000  Uiso   1.00
C578   C     0.59641   0.13254   0.51425   0.00000  Uiso   1.00
C579   C     0.54108   0.16063   0.59340   0.00000  Uiso   1.00
C580   C     0.41032   0.17629   0.93438   0.00000  Uiso   1.00
C581   C     0.39597   0.18079   0.98810   0.00000  Uiso   1.00
C582   C     0.42936   0.17376   0.51558   0.00000  Uiso   1.00
C583   C     0.49036   0.15094   0.93581   0.00000  Uiso   1.00
C584   C     0.51410   0.15524   0.51581   0.00000  Uiso   1.00
C585   C     0.56023   0.13743   0.98910   0.00000  Uiso   1.00
C586   C     0.56935   0.12378   0.93800   0.00000  Uiso   1.00
C587   C     0.53470   0.12979   0.91200   0.00000  Uiso   1.00
C588   C     0.50616   0.16783   0.56756   0.00000  Uiso   1.00
C589   C     0.58677   0.14386   0.56633   0.00000  Uiso   1.00
Cu590  Cu    0.45311   0.16666   0.75000   0.00000  Uiso   1.00
Cu591  Cu    0.54689   0.16667   0.75000   0.00000  Uiso   1.00
H592   H     0.61422   0.13809   0.58585   0.00000  Uiso   1.00
H593   H     0.47276   0.18309   0.58910   0.00000  Uiso   1.00
H594   H     0.38442   0.18449   0.91376   0.00000  Uiso   1.00
H595   H     0.41559   0.17826   0.55712   0.00000  Uiso   1.00
H596   H     0.35910   0.19105   0.50849   0.00000  Uiso   1.00
H597   H     0.54284   0.11651   0.87351   0.00000  Uiso   1.00
H598   H     0.57841   0.29654   0.71656   0.00000  Uiso   1.00
H599   H     0.57741   0.03807   0.71732   0.00000  Uiso   1.00
H600   H     0.42127   0.29412   0.78824   0.00000  Uiso   1.00
H601   H     0.60606   0.21058   0.81109   0.00000  Uiso   1.00
H602   H     0.35979   0.21046   0.81115   0.00000  Uiso   1.00
H603   H     0.39390   0.12265   0.68902   0.00000  Uiso   1.00
H604   H     0.64016   0.12273   0.68900   0.00000  Uiso   1.00
H605   H     0.60348   0.10838   0.91793   0.00000  Uiso   1.00
H606   H     0.63169   0.11899   0.99401   0.00000  Uiso   1.00
N607   N     0.38265   0.16666   0.74998   0.00000  Uiso   1.00
N608   N     0.61735   0.16669   0.74999   0.00000  Uiso   1.00
O609   O     0.46042   0.22678   0.75000   0.00000  Uiso   1.00
O610   O     0.53961   0.22679   0.75000   0.00000  Uiso   1.00
O611   O     0.44108   0.16665   0.82549   0.00000  Uiso   1.00
O612   O     0.52027   0.16666   0.82549   0.00000  Uiso   1.00
O613   O     0.46039   0.10654   0.75000   0.00000  Uiso   1.00
O614   O     0.53958   0.10655   0.75000   0.00000  Uiso   1.00
O615   O     0.47973   0.16667   0.67451   0.00000  Uiso   1.00
O616   O     0.55892   0.16668   0.67451   0.00000  Uiso   1.00
Br617  Br    0.72493   0.04550   0.80793   0.00000  Uiso   1.00
C618   C     0.83335   0.24592   0.75029   0.00000  Uiso   1.00
C619   C     0.79112   0.16257   0.90744   0.00000  Uiso   1.00
C620   C     0.87705   0.31233   0.73265   0.00000  Uiso   1.00
C621   C     0.80710   0.16444   0.85007   0.00000  Uiso   1.00
C622   C     0.87640   0.02160   0.73325   0.00000  Uiso   1.00
C623   C     0.83182   0.04267   0.75326   0.00000  Uiso   1.00
C624   C     0.78753   0.02047   0.77398   0.00000  Uiso   1.00
C625   C     0.78856   0.31114   0.77231   0.00000  Uiso   1.00
C626   C     0.83305   0.29043   0.75156   0.00000  Uiso   1.00
C627   C     0.96570   0.19103   0.78394   0.00000  Uiso   1.00
C628   C     0.68199   0.19098   0.78398   0.00000  Uiso   1.00
C629   C     0.81116   0.16025   0.98977   0.00000  Uiso   1.00
C630   C     0.70095   0.14226   0.71611   0.00000  Uiso   1.00
C631   C     0.98465   0.14227   0.71611   0.00000  Uiso   1.00
C632   C     0.83268   0.08735   0.75160   0.00000  Uiso   1.00
C633   C     0.85958   0.16605   0.64997   0.00000  Uiso   1.00
C634   C     0.92975   0.13254   0.51425   0.00000  Uiso   1.00
C635   C     0.87441   0.16063   0.59340   0.00000  Uiso   1.00
C636   C     0.74366   0.17629   0.93438   0.00000  Uiso   1.00
C637   C     0.72931   0.18079   0.98810   0.00000  Uiso   1.00
C638   C     0.76269   0.17376   0.51558   0.00000  Uiso   1.00
C639   C     0.82370   0.15094   0.93581   0.00000  Uiso   1.00
C640   C     0.84744   0.15524   0.51581   0.00000  Uiso   1.00
C641   C     0.89357   0.13743   0.98910   0.00000  Uiso   1.00
C642   C     0.90268   0.12378   0.93800   0.00000  Uiso   1.00
C643   C     0.86803   0.12979   0.91200   0.00000  Uiso   1.00
C644   C     0.83949   0.16783   0.56756   0.00000  Uiso   1.00
C645   C     0.92011   0.14386   0.56633   0.00000  Uiso   1.00
Cu646  Cu    0.78645   0.16666   0.75000   0.00000  Uiso   1.00
Cu647  Cu    0.88022   0.16667   0.75000   0.00000  Uiso   1.00
H648   H     0.94755   0.13809   0.58585   0.00000  Uiso   1.00
H649   H     0.80609   0.18309   0.58910   0.00000  Uiso   1.00
H650   H     0.71776   0.18449   0.91376   0.00000  Uiso   1.00
H651   H     0.74892   0.17826   0.55712   0.00000  Uiso   1.00
H652   H     0.69243   0.19105   0.50849   0.00000  Uiso   1.00
H653   H     0.87617   0.11651   0.87351   0.00000  Uiso   1.00
H654   H     0.91174   0.29654   0.71656   0.00000  Uiso   1.00
H655   H     0.91074   0.03807   0.71732   0.00000  Uiso   1.00
H656   H     0.75460   0.29412   0.78824   0.00000  Uiso   1.00
H657   H     0.93940   0.21058   0.81109   0.00000  Uiso   1.00
H658   H     0.69313   0.21046   0.81115   0.00000  Uiso   1.00
H659   H     0.72724   0.12265   0.68902   0.00000  Uiso   1.00
H660   H     0.97349   0.12273   0.68900   0.00000  Uiso   1.00
H661   H     0.93682   0.10838   0.91793   0.00000  Uiso   1.00
H662   H     0.96502   0.11899   0.99401   0.00000  Uiso   1.00
N663   N     0.71598   0.16666   0.74998   0.00000  Uiso   1.00
N664   N     0.95069   0.16669   0.74999   0.00000  Uiso   1.00
O665   O     0.79375   0.22678   0.75000   0.00000  Uiso   1.00
O666   O     0.87294   0.22679   0.75000   0.00000  Uiso   1.00
O667   O     0.77441   0.16665   0.82549   0.00000  Uiso   1.00
O668   O     0.85360   0.16666   0.82549   0.00000  Uiso   1.00
O669   O     0.79373   0.10654   0.75000   0.00000  Uiso   1.00
O670   O     0.87292   0.10655   0.75000   0.00000  Uiso   1.00
O671   O     0.81306   0.16667   0.67451   0.00000  Uiso   1.00
O672   O     0.89225   0.16668   0.67451   0.00000  Uiso   1.00
Br673  Br    0.05826   0.37883   0.80793   0.00000  Uiso   1.00
C674   C     0.16668   0.57926   0.75029   0.00000  Uiso   1.00
C675   C     0.12446   0.49590   0.90744   0.00000  Uiso   1.00
C676   C     0.21039   0.64566   0.73265   0.00000  Uiso   1.00
C677   C     0.14044   0.49777   0.85007   0.00000  Uiso   1.00
C678   C     0.20973   0.35493   0.73325   0.00000  Uiso   1.00
C679   C     0.16515   0.37600   0.75326   0.00000  Uiso   1.00
C680   C     0.12086   0.35381   0.77398   0.00000  Uiso   1.00
C681   C     0.12189   0.64447   0.77231   0.00000  Uiso   1.00
C682   C     0.16638   0.62376   0.75156   0.00000  Uiso   1.00
C683   C     0.29903   0.52436   0.78394   0.00000  Uiso   1.00
C684   C     0.01532   0.52431   0.78398   0.00000  Uiso   1.00
C685   C     0.14449   0.49359   0.98977   0.00000  Uiso   1.00
C686   C     0.03428   0.47559   0.71611   0.00000  Uiso   1.00
C687   C     0.31798   0.47561   0.71611   0.00000  Uiso   1.00
C688   C     0.16601   0.42069   0.75160   0.00000  Uiso   1.00
C689   C     0.19291   0.49938   0.64997   0.00000  Uiso   1.00
C690   C     0.26308   0.46588   0.51425   0.00000  Uiso   1.00
C691   C     0.20774   0.49397   0.59340   0.00000  Uiso   1.00
C692   C     0.07699   0.50962   0.93438   0.00000  Uiso   1.00
C693   C     0.06264   0.51412   0.98810   0.00000  Uiso   1.00
C694   C     0.09603   0.50710   0.51558   0.00000  Uiso   1.00
C695   C     0.15703   0.48427   0.93581   0.00000  Uiso   1.00
C696   C     0.18077   0.48858   0.51581   0.00000  Uiso   1.00
C697   C     0.22690   0.47076   0.98910   0.00000  Uiso   1.00
C698   C     0.23601   0.45712   0.93800   0.00000  Uiso   1.00
C699   C     0.20136   0.46312   0.91200   0.00000  Uiso   1.00
C700   C     0.17283   0.50116   0.56756   0.00000  Uiso   1.00
C701   C     0.25344   0.47720   0.56633   0.00000  Uiso   1.00
Cu702  Cu    0.11978   0.49999   0.75000   0.00000  Uiso   1.00
Cu703  Cu    0.21355   0.50001   0.75000   0.00000  Uiso   1.00
H704   H     0.28089   0.47142   0.58585   0.00000  Uiso   1.00
H705   H     0.13943   0.51642   0.58910   0.00000  Uiso   1.00
H706   H     0.05109   0.51782   0.91376   0.00000  Uiso   1.00
H707   H     0.08226   0.51160   0.55712   0.00000  Uiso   1.00
H708   H     0.02577   0.52438   0.50849   0.00000  Uiso   1.00
H709   H     0.20951   0.44984   0.87351   0.00000  Uiso   1.00
H710   H     0.24508   0.62988   0.71656   0.00000  Uiso   1.00
H711   H     0.24408   0.37140   0.71732   0.00000  Uiso   1.00
H712   H     0.08794   0.62745   0.78824   0.00000  Uiso   1.00
H713   H     0.27273   0.54392   0.81109   0.00000  Uiso   1.00
H714   H     0.02646   0.54380   0.81115   0.00000  Uiso   1.00
H715   H     0.06057   0.45598   0.68902   0.00000  Uiso   1.00
H716   H     0.30682   0.45606   0.68900   0.00000  Uiso   1.00
H717   H     0.27015   0.44171   0.91793   0.00000  Uiso   1.00
H718   H     0.29836   0.45232   0.99401   0.00000  Uiso   1.00
N719   N     0.04931   0.49999   0.74998   0.00000  Uiso   1.00
N720   N     0.28402   0.50002   0.74999   0.00000  Uiso   1.00
O721   O     0.12708   0.56011   0.75000   0.00000  Uiso   1.00
O722   O     0.20627   0.56012   0.75000   0.00000  Uiso   1.00
O723   O     0.10775   0.49998   0.82549   0.00000  Uiso   1.00
O724   O     0.18694   0.49999   0.82549   0.00000  Uiso   1.00
O725   O     0.12706   0.43988   0.75000   0.00000  Uiso   1.00
O726   O     0.20625   0.43989   0.75000   0.00000  Uiso   1.00
O727   O     0.14640   0.50001   0.67451   0.00000  Uiso   1.00
O728   O     0.22559   0.50002   0.67451   0.00000  Uiso   1.00
Br729  Br    0.39159   0.37883   0.80793   0.00000  Uiso   1.00
C730   C     0.50001   0.57926   0.75029   0.00000  Uiso   1.00
C731   C     0.45779   0.49590   0.90744   0.00000  Uiso   1.00
C732   C     0.54372   0.64566   0.73265   0.00000  Uiso   1.00
C733   C     0.47377   0.49777   0.85007   0.00000  Uiso   1.00
C734   C     0.54306   0.35493   0.73325   0.00000  Uiso   1.00
C735   C     0.49849   0.37600   0.75326   0.00000  Uiso   1.00
C736   C     0.45420   0.35381   0.77398   0.00000  Uiso   1.00
C737   C     0.45522   0.64447   0.77231   0.00000  Uiso   1.00
C738   C     0.49972   0.62376   0.75156   0.00000  Uiso   1.00
C739   C     0.63236   0.52436   0.78394   0.00000  Uiso   1.00
C740   C     0.34865   0.52431   0.78398   0.00000  Uiso   1.00
C741   C     0.47783   0.49359   0.98977   0.00000  Uiso   1.00
C742   C     0.36762   0.47559   0.71611   0.00000  Uiso   1.00
C743   C     0.65132   0.47561   0.71611   0.00000  Uiso   1.00
C744   C     0.49934   0.42069   0.75160   0.00000  Uiso   1.00
C745   C     0.52624   0.49938   0.64997   0.00000  Uiso   1.00
C746   C     0.59641   0.46588   0.51425   0.00000  Uiso   1.00
C747   C     0.54108   0.49397   0.59340   0.00000  Uiso   1.00
C748   C     0.41032   0.50962   0.93438   0.00000  Uiso   1.00
C749   C     0.39597   0.51412   0.98810   0.00000  Uiso   1.00
C750   C     0.42936   0.50710   0.51558   0.00000  Uiso   1.00
C751   C     0.49036   0.48427   0.93581   0.00000  Uiso   1.00
C752   C     0.51410   0.48858   0.51581   0.00000  Uiso   1.00
C753   C     0.56023   0.47076   0.98910   0.00000  Uiso   1.00
C754   C     0.56935   0.45712   0.93800   0.00000  Uiso   1.00
C755   C     0.53470   0.46312   0.91200   0.00000  Uiso   1.00
C756   C     0.50616   0.50116   0.56756   0.00000  Uiso   1.00
C757   C     0.58677   0.47720   0.56633   0.00000  Uiso   1.00
Cu758  Cu    0.45311   0.49999   0.75000   0.00000  Uiso   1.00
Cu759  Cu    0.54689   0.50001   0.75000   0.00000  Uiso   1.00
H760   H     0.61422   0.47142   0.58585   0.00000  Uiso   1.00
H761   H     0.47276   0.51642   0.58910   0.00000  Uiso   1.00
H762   H     0.38442   0.51782   0.91376   0.00000  Uiso   1.00
H763   H     0.41559   0.51160   0.55712   0.00000  Uiso   1.00
H764   H     0.35910   0.52438   0.50849   0.00000  Uiso   1.00
H765   H     0.54284   0.44984   0.87351   0.00000  Uiso   1.00
H766   H     0.57841   0.62988   0.71656   0.00000  Uiso   1.00
H767   H     0.57741   0.37140   0.71732   0.00000  Uiso   1.00
H768   H     0.42127   0.62745   0.78824   0.00000  Uiso   1.00
H769   H     0.60606   0.54392   0.81109   0.00000  Uiso   1.00
H770   H     0.35979   0.54380   0.81115   0.00000  Uiso   1.00
H771   H     0.39390   0.45598   0.68902   0.00000  Uiso   1.00
H772   H     0.64016   0.45606   0.68900   0.00000  Uiso   1.00
H773   H     0.60348   0.44171   0.91793   0.00000  Uiso   1.00
H774   H     0.63169   0.45232   0.99401   0.00000  Uiso   1.00
N775   N     0.38265   0.49999   0.74998   0.00000  Uiso   1.00
N776   N     0.61735   0.50002   0.74999   0.00000  Uiso   1.00
O777   O     0.46042   0.56011   0.75000   0.00000  Uiso   1.00
O778   O     0.53961   0.56012   0.75000   0.00000  Uiso   1.00
O779   O     0.44108   0.49998   0.82549   0.00000  Uiso   1.00
O780   O     0.52027   0.49999   0.82549   0.00000  Uiso   1.00
O781   O     0.46039   0.43988   0.75000   0.00000  Uiso   1.00
O782   O     0.53958   0.43989   0.75000   0.00000  Uiso   1.00
O783   O     0.47973   0.50001   0.67451   0.00000  Uiso   1.00
O784   O     0.55892   0.50002   0.67451   0.00000  Uiso   1.00
Br785  Br    0.72493   0.37883   0.80793   0.00000  Uiso   1.00
C786   C     0.83335   0.57926   0.75029   0.00000  Uiso   1.00
C787   C     0.79112   0.49590   0.90744   0.00000  Uiso   1.00
C788   C     0.87705   0.64566   0.73265   0.00000  Uiso   1.00
C789   C     0.80710   0.49777   0.85007   0.00000  Uiso   1.00
C790   C     0.87640   0.35493   0.73325   0.00000  Uiso   1.00
C791   C     0.83182   0.37600   0.75326   0.00000  Uiso   1.00
C792   C     0.78753   0.35381   0.77398   0.00000  Uiso   1.00
C793   C     0.78856   0.64447   0.77231   0.00000  Uiso   1.00
C794   C     0.83305   0.62376   0.75156   0.00000  Uiso   1.00
C795   C     0.96570   0.52436   0.78394   0.00000  Uiso   1.00
C796   C     0.68199   0.52431   0.78398   0.00000  Uiso   1.00
C797   C     0.81116   0.49359   0.98977   0.00000  Uiso   1.00
C798   C     0.70095   0.47559   0.71611   0.00000  Uiso   1.00
C799   C     0.98465   0.47561   0.71611   0.00000  Uiso   1.00
C800   C     0.83268   0.42069   0.75160   0.00000  Uiso   1.00
C801   C     0.85958   0.49938   0.64997   0.00000  Uiso   1.00
C802   C     0.92975   0.46588   0.51425   0.00000  Uiso   1.00
C803   C     0.87441   0.49397   0.59340   0.00000  Uiso   1.00
C804   C     0.74366   0.50962   0.93438   0.00000  Uiso   1.00
C805   C     0.72931   0.51412   0.98810   0.00000  Uiso   1.00
C806   C     0.76269   0.50710   0.51558   0.00000  Uiso   1.00
C807   C     0.82370   0.48427   0.93581   0.00000  Uiso   1.00
C808   C     0.84744   0.48858   0.51581   0.00000  Uiso   1.00
C809   C     0.89357   0.47076   0.98910   0.00000  Uiso   1.00
C810   C     0.90268   0.45712   0.93800   0.00000  Uiso   1.00
C811   C     0.86803   0.46312   0.91200   0.00000  Uiso   1.00
C812   C     0.83949   0.50116   0.56756   0.00000  Uiso   1.00
C813   C     0.92011   0.47720   0.56633   0.00000  Uiso   1.00
Cu814  Cu    0.78645   0.49999   0.75000   0.00000  Uiso   1.00
Cu815  Cu    0.88022   0.50001   0.75000   0.00000  Uiso   1.00
H816   H     0.94755   0.47142   0.58585   0.00000  Uiso   1.00
H817   H     0.80609   0.51642   0.58910   0.00000  Uiso   1.00
H818   H     0.71776   0.51782   0.91376   0.00000  Uiso   1.00
H819   H     0.74892   0.51160   0.55712   0.00000  Uiso   1.00
H820   H     0.69243   0.52438   0.50849   0.00000  Uiso   1.00
H821   H     0.87617   0.44984   0.87351   0.00000  Uiso   1.00
H822   H     0.91174   0.62988   0.71656   0.00000  Uiso   1.00
H823   H     0.91074   0.37140   0.71732   0.00000  Uiso   1.00
H824   H     0.75460   0.62745   0.78824   0.00000  Uiso   1.00
H825   H     0.93940   0.54392   0.81109   0.00000  Uiso   1.00
H826   H     0.69313   0.54380   0.81115   0.00000  Uiso   1.00
H827   H     0.72724   0.45598   0.68902   0.00000  Uiso   1.00
H828   H     0.97349   0.45606   0.68900   0.00000  Uiso   1.00
H829   H     0.93682   0.44171   0.91793   0.00000  Uiso   1.00
H830   H     0.96502   0.45232   0.99401   0.00000  Uiso   1.00
N831   N     0.71598   0.49999   0.74998   0.00000  Uiso   1.00
N832   N     0.95069   0.50002   0.74999   0.00000  Uiso   1.00
O833   O     0.79375   0.56011   0.75000   0.00000  Uiso   1.00
O834   O     0.87294   0.56012   0.75000   0.00000  Uiso   1.00
O835   O     0.77441   0.49998   0.82549   0.00000  Uiso   1.00
O836   O     0.85360   0.49999   0.82549   0.00000  Uiso   1.00
O837   O     0.79373   0.43988   0.75000   0.00000  Uiso   1.00
O838   O     0.87292   0.43989   0.75000   0.00000  Uiso   1.00
O839   O     0.81306   0.50001   0.67451   0.00000  Uiso   1.00
O840   O     0.89225   0.50002   0.67451   0.00000  Uiso   1.00
Br841  Br    0.05826   0.71217   0.80793   0.00000  Uiso   1.00
C842   C     0.16668   0.91259   0.75029   0.00000  Uiso   1.00
C843   C     0.12446   0.82923   0.90744   0.00000  Uiso   1.00
C844   C     0.21039   0.97899   0.73265   0.00000  Uiso   1.00
C845   C     0.14044   0.83111   0.85007   0.00000  Uiso   1.00
C846   C     0.20973   0.68827   0.73325   0.00000  Uiso   1.00
C847   C     0.16515   0.70933   0.75326   0.00000  Uiso   1.00
C848   C     0.12086   0.68714   0.77398   0.00000  Uiso   1.00
C849   C     0.12189   0.97781   0.77231   0.00000  Uiso   1.00
C850   C     0.16638   0.95709   0.75156   0.00000  Uiso   1.00
C851   C     0.29903   0.85770   0.78394   0.00000  Uiso   1.00
C852   C     0.01532   0.85764   0.78398   0.00000  Uiso   1.00
C853   C     0.14449   0.82692   0.98977   0.00000  Uiso   1.00
C854   C     0.03428   0.80892   0.71611   0.00000  Uiso   1.00
C855   C     0.31798   0.80894   0.71611   0.00000  Uiso   1.00
C856   C     0.16601   0.75402   0.75160   0.00000  Uiso   1.00
C857   C     0.19291   0.83272   0.64997   0.00000  Uiso   1.00
C858   C     0.26308   0.79921   0.51425   0.00000  Uiso   1.00
C859   C     0.20774   0.82730   0.59340   0.00000  Uiso   1.00
C860   C     0.07699   0.84296   0.93438   0.00000  Uiso   1.00
C861   C     0.06264   0.84745   0.98810   0.00000  Uiso   1.00
C862   C     0.09603   0.84043   0.51558   0.00000  Uiso   1.00
C863   C     0.15703   0.81760   0.93581   0.00000  Uiso   1.00
C864   C     0.18077   0.82191   0.51581   0.00000  Uiso   1.00
C865   C     0.22690   0.80410   0.98910   0.00000  Uiso   1.00
C866   C     0.23601   0.79045   0.93800   0.00000  Uiso   1.00
C867   C     0.20136   0.79645   0.91200   0.00000  Uiso   1.00
C868   C     0.17283   0.83449   0.56756   0.00000  Uiso   1.00
C869   C     0.25344   0.81053   0.56633   0.00000  Uiso   1.00
Cu870  Cu    0.11978   0.83333   0.75000   0.00000  Uiso   1.00
Cu871  Cu    0.21355   0.83334   0.75000   0.00000  Uiso   1.00
H872   H     0.28089   0.80475   0.58585   0.00000  Uiso   1.00
H873   H     0.13943   0.84976   0.58910   0.00000  Uiso   1.00
H874   H     0.05109   0.85115   0.91376   0.00000  Uiso   1.00
H875   H     0.08226   0.84493   0.55712   0.00000  Uiso   1.00
H876   H     0.02577   0.85772   0.50849   0.00000  Uiso   1.00
H877   H     0.20951   0.78318   0.87351   0.00000  Uiso   1.00
H878   H     0.24508   0.96321   0.71656   0.00000  Uiso   1.00
H879   H     0.24408   0.70473   0.71732   0.00000  Uiso   1.00
H880   H     0.08794   0.96079   0.78824   0.00000  Uiso   1.00
H881   H     0.27273   0.87725   0.81109   0.00000  Uiso   1.00
H882   H     0.02646   0.87713   0.81115   0.00000  Uiso   1.00
H883   H     0.06057   0.78932   0.68902   0.00000  Uiso   1.00
H884   H     0.30682   0.78940   0.68900   0.00000  Uiso   1.00
H885   H     0.27015   0.77504   0.91793   0.00000  Uiso   1.00
H886   H     0.29836   0.78566   0.99401   0.00000  Uiso   1.00
N887   N     0.04931   0.83332   0.74998   0.00000  Uiso   1.00
N888   N     0.28402   0.83335   0.74999   0.00000  Uiso   1.00
O889   O     0.12708   0.89345   0.75000   0.00000  Uiso   1.00
O890   O     0.20627   0.89346   0.75000   0.00000  Uiso   1.00
O891   O     0.10775   0.83332   0.82549   0.00000  Uiso   1.00
O892   O     0.18694   0.83333   0.82549   0.00000  Uiso   1.00
O893   O     0.12706   0.77321   0.75000   0.00000  Uiso   1.00
O894   O     0.20625   0.77322   0.75000   0.00000  Uiso   1.00
O895   O     0.14640   0.83334   0.67451   0.00000  Uiso   1.00
O896   O     0.22559   0.83335   0.67451   0.00000  Uiso   1.00
Br897  Br    0.39159   0.71217   0.80793   0.00000  Uiso   1.00
C898   C     0.50001   0.91259   0.75029   0.00000  Uiso   1.00
C899   C     0.45779   0.82923   0.90744   0.00000  Uiso   1.00
C900   C     0.54372   0.97899   0.73265   0.00000  Uiso   1.00
C901   C     0.47377   0.83111   0.85007   0.00000  Uiso   1.00
C902   C     0.54306   0.68827   0.73325   0.00000  Uiso   1.00
C903   C     0.49849   0.70933   0.75326   0.00000  Uiso   1.00
C904   C     0.45420   0.68714   0.77398   0.00000  Uiso   1.00
C905   C     0.45522   0.97781   0.77231   0.00000  Uiso   1.00
C906   C     0.49972   0.95709   0.75156   0.00000  Uiso   1.00
C907   C     0.63236   0.85770   0.78394   0.00000  Uiso   1.00
C908   C     0.34865   0.85764   0.78398   0.00000  Uiso   1.00
C909   C     0.47783   0.82692   0.98977   0.00000  Uiso   1.00
C910   C     0.36762   0.80892   0.71611   0.00000  Uiso   1.00
C911   C     0.65132   0.80894   0.71611   0.00000  Uiso   1.00
C912   C     0.49934   0.75402   0.75160   0.00000  Uiso   1.00
C913   C     0.52624   0.83272   0.64997   0.00000  Uiso   1.00
C914   C     0.59641   0.79921   0.51425   0.00000  Uiso   1.00
C915   C     0.54108   0.82730   0.59340   0.00000  Uiso   1.00
C916   C     0.41032   0.84296   0.93438   0.00000  Uiso   1.00
C917   C     0.39597   0.84745   0.98810   0.00000  Uiso   1.00
C918   C     0.42936   0.84043   0.51558   0.00000  Uiso   1.00
C919   C     0.49036   0.81760   0.93581   0.00000  Uiso   1.00
C920   C     0.51410   0.82191   0.51581   0.00000  Uiso   1.00
C921   C     0.56023   0.80410   0.98910   0.00000  Uiso   1.00
C922   C     0.56935   0.79045   0.93800   0.00000  Uiso   1.00
C923   C     0.53470   0.79645   0.91200   0.00000  Uiso   1.00
C924   C     0.50616   0.83449   0.56756   0.00000  Uiso   1.00
C925   C     0.58677   0.81053   0.56633   0.00000  Uiso   1.00
Cu926  Cu    0.45311   0.83333   0.75000   0.00000  Uiso   1.00
Cu927  Cu    0.54689   0.83334   0.75000   0.00000  Uiso   1.00
H928   H     0.61422   0.80475   0.58585   0.00000  Uiso   1.00
H929   H     0.47276   0.84976   0.58910   0.00000  Uiso   1.00
H930   H     0.38442   0.85115   0.91376   0.00000  Uiso   1.00
H931   H     0.41559   0.84493   0.55712   0.00000  Uiso   1.00
H932   H     0.35910   0.85772   0.50849   0.00000  Uiso   1.00
H933   H     0.54284   0.78318   0.87351   0.00000  Uiso   1.00
H934   H     0.57841   0.96321   0.71656   0.00000  Uiso   1.00
H935   H     0.57741   0.70473   0.71732   0.00000  Uiso   1.00
H936   H     0.42127   0.96079   0.78824   0.00000  Uiso   1.00
H937   H     0.60606   0.87725   0.81109   0.00000  Uiso   1.00
H938   H     0.35979   0.87713   0.81115   0.00000  Uiso   1.00
H939   H     0.39390   0.78932   0.68902   0.00000  Uiso   1.00
H940   H     0.64016   0.78940   0.68900   0.00000  Uiso   1.00
H941   H     0.60348   0.77504   0.91793   0.00000  Uiso   1.00
H942   H     0.63169   0.78566   0.99401   0.00000  Uiso   1.00
N943   N     0.38265   0.83332   0.74998   0.00000  Uiso   1.00
N944   N     0.61735   0.83335   0.74999   0.00000  Uiso   1.00
O945   O     0.46042   0.89345   0.75000   0.00000  Uiso   1.00
O946   O     0.53961   0.89346   0.75000   0.00000  Uiso   1.00
O947   O     0.44108   0.83332   0.82549   0.00000  Uiso   1.00
O948   O     0.52027   0.83333   0.82549   0.00000  Uiso   1.00
O949   O     0.46039   0.77321   0.75000   0.00000  Uiso   1.00
O950   O     0.53958   0.77322   0.75000   0.00000  Uiso   1.00
O951   O     0.47973   0.83334   0.67451   0.00000  Uiso   1.00
O952   O     0.55892   0.83335   0.67451   0.00000  Uiso   1.00
Br953  Br    0.72493   0.71217   0.80793   0.00000  Uiso   1.00
C954   C     0.83335   0.91259   0.75029   0.00000  Uiso   1.00
C955   C     0.79112   0.82923   0.90744   0.00000  Uiso   1.00
C956   C     0.87705   0.97899   0.73265   0.00000  Uiso   1.00
C957   C     0.80710   0.83111   0.85007   0.00000  Uiso   1.00
C958   C     0.87640   0.68827   0.73325   0.00000  Uiso   1.00
C959   C     0.83182   0.70933   0.75326   0.00000  Uiso   1.00
C960   C     0.78753   0.68714   0.77398   0.00000  Uiso   1.00
C961   C     0.78856   0.97781   0.77231   0.00000  Uiso   1.00
C962   C     0.83305   0.95709   0.75156   0.00000  Uiso   1.00
C963   C     0.96570   0.85770   0.78394   0.00000  Uiso   1.00
C964   C     0.68199   0.85764   0.78398   0.00000  Uiso   1.00
C965   C     0.81116   0.82692   0.98977   0.00000  Uiso   1.00
C966   C     0.70095   0.80892   0.71611   0.00000  Uiso   1.00
C967   C     0.98465   0.80894   0.71611   0.00000  Uiso   1.00
C968   C     0.83268   0.75402   0.75160   0.00000  Uiso   1.00
C969   C     0.85958   0.83272   0.64997   0.00000  Uiso   1.00
C970   C     0.92975   0.79921   0.51425   0.00000  Uiso   1.00
C971   C     0.87441   0.82730   0.59340   0.00000  Uiso   1.00
C972   C     0.74366   0.84296   0.93438   0.00000  Uiso   1.00
C973   C     0.72931   0.84745   0.98810   0.00000  Uiso   1.00
C974   C     0.76269   0.84043   0.51558   0.00000  Uiso   1.00
C975   C     0.82370   0.81760   0.93581   0.00000  Uiso   1.00
C976   C     0.84744   0.82191   0.51581   0.00000  Uiso   1.00
C977   C     0.89357   0.80410   0.98910   0.00000  Uiso   1.00
C978   C     0.90268   0.79045   0.93800   0.00000  Uiso   1.00
C979   C     0.86803   0.79645   0.91200   0.00000  Uiso   1.00
C980   C     0.83949   0.83449   0.56756   0.00000  Uiso   1.00
C981   C     0.92011   0.81053   0.56633   0.00000  Uiso   1.00
Cu982  Cu    0.78645   0.83333   0.75000   0.00000  Uiso   1.00
Cu983  Cu    0.88022   0.83334   0.75000   0.00000  Uiso   1.00
H984   H     0.94755   0.80475   0.58585   0.00000  Uiso   1.00
H985   H     0.80609   0.84976   0.58910   0.00000  Uiso   1.00
H986   H     0.71776   0.85115   0.91376   0.00000  Uiso   1.00
H987   H     0.74892   0.84493   0.55712   0.00000  Uiso   1.00
H988   H     0.69243   0.85772   0.50849   0.00000  Uiso   1.00
H989   H     0.87617   0.78318   0.87351   0.00000  Uiso   1.00
H990   H     0.91174   0.96321   0.71656   0.00000  Uiso   1.00
H991   H     0.91074   0.70473   0.71732   0.00000  Uiso   1.00
H992   H     0.75460   0.96079   0.78824   0.00000  Uiso   1.00
H993   H     0.93940   0.87725   0.81109   0.00000  Uiso   1.00
H994   H     0.69313   0.87713   0.81115   0.00000  Uiso   1.00
H995   H     0.72724   0.78932   0.68902   0.00000  Uiso   1.00
H996   H     0.97349   0.78940   0.68900   0.00000  Uiso   1.00
H997   H     0.93682   0.77504   0.91793   0.00000  Uiso   1.00
H998   H     0.96502   0.78566   0.99401   0.00000  Uiso   1.00
N999   N     0.71598   0.83332   0.74998   0.00000  Uiso   1.00
N1000  N     0.95069   0.83335   0.74999   0.00000  Uiso   1.00
O1001  O     0.79375   0.89345   0.75000   0.00000  Uiso   1.00
O1002  O     0.87294   0.89346   0.75000   0.00000  Uiso   1.00
O1003  O     0.77441   0.83332   0.82549   0.00000  Uiso   1.00
O1004  O     0.85360   0.83333   0.82549   0.00000  Uiso   1.00
O1005  O     0.79373   0.77321   0.75000   0.00000  Uiso   1.00
O1006  O     0.87292   0.77322   0.75000   0.00000  Uiso   1.00
O1007  O     0.81306   0.83334   0.67451   0.00000  Uiso   1.00
O1008  O     0.89225   0.83335   0.67451   0.00000  Uiso   1.00
loop_
_geom_bond_atom_site_label_1
_geom_bond_atom_site_label_2
_geom_bond_distance
_geom_bond_site_symmetry_2
_ccdc_geom_bond_type
Br1    C8      1.926   .     S
C2     O49     1.289   .     A
C2     C10     1.445   .     S
C2     O50     1.289   .     A
C3     C23     1.421   .     A
C3     C20     1.403   .     A
C3     C5      1.474   .     S
C4     H38     1.084   .     S
C4     C10     1.397   .     A
C4     C174    1.383   .     S
C5     O52     1.294   .     A
C5     O51     1.298   .     A
C6     C7      1.403   .     A
C6     H39     1.084   .     S
C6     C340    1.383   1_545 S
C7     C8      1.414   .     A
C7     C16     1.451   .     S
C8     C345    1.386   1_545 S
C9     C10     1.397   .     A
C9     H40     1.084   .     S
C9     C176    1.386   .     S
C11    N48     1.367   .     A
C11    H41     1.082   .     S
C11    C68     1.416   .     S
C12    N47     1.367   .     A
C12    H42     1.082   .     S
C12    C123    1.416   1_455 S
C13    C23     1.419   .     A
C13    C526    1.418   .     S
C13    C528    1.424   .     S
C14    N47     1.367   .     A
C14    H43     1.082   .     S
C14    C127    1.416   1_455 S
C15    N48     1.367   .     A
C15    H44     1.082   .     S
C15    C70     1.416   .     S
C16    O54     1.293   .     A
C16    O53     1.288   .     A
C17    O55     1.292   .     A
C17    O56     1.294   .     A
C17    C19     1.462   .     S
C18    C29     1.393   .     A
C18    C529    1.404   1_554 S
C18    H550    1.084   1_554 S
C19    C28     1.396   .     A
C19    C29     1.399   .     A
C20    H34     1.083   .     S
C20    C21     1.386   .     A
C21    C526    1.390   .     S
C21    H540    1.083   .     S
C22    H35     1.077   .     S
C22    C525    1.390   1_554 S
C22    C517    1.418   1_554 S
C23    C27     1.413   .     A
C24    C28     1.401   .     A
C24    C517    1.424   1_554 S
C24    C529    1.420   1_554 S
C25    C26     1.391   .     A
C25    C522    1.404   .     S
C25    C528    1.420   .     S
C26    C27     1.387   .     A
C26    H45     1.084   .     S
C27    H37     1.080   .     S
C28    H33     1.076   .     S
C29    H32     1.083   .     S
Cu30   O51     1.956   .     S
Cu30   O49     1.962   .     S
Cu30   Cu31    2.675   .     S
Cu30   O53     1.963   .     S
Cu30   N47     2.010   .     S
Cu30   O55     1.943   .     S
Cu31   O56     1.956   .     S
Cu31   O52     1.943   .     S
Cu31   N48     2.010   .     S
Cu31   O54     1.962   .     S
Cu31   O50     1.963   .     S
H36    C525    1.083   1_554 S
H46    C522    1.084   .     S
Br57   C64     1.926   .     S
C58    O105    1.289   .     A
C58    C66     1.445   .     S
C58    O106    1.289   .     A
C59    C79     1.421   .     A
C59    C76     1.403   .     A
C59    C61     1.474   .     S
C60    H94     1.084   .     S
C60    C66     1.397   .     A
C60    C230    1.383   .     S
C61    O108    1.294   .     A
C61    O107    1.298   .     A
C62    C63     1.403   .     A
C62    H95     1.084   .     S
C62    C396    1.383   1_545 S
C63    C64     1.414   .     A
C63    C72     1.451   .     S
C64    C401    1.386   1_545 S
C65    C66     1.397   .     A
C65    H96     1.084   .     S
C65    C232    1.386   .     S
C67    N104    1.367   .     A
C67    H97     1.082   .     S
C67    C124    1.416   .     S
C68    N103    1.367   .     A
C68    H98     1.082   .     S
C69    C79     1.419   .     A
C69    C582    1.418   .     S
C69    C584    1.424   .     S
C70    N103    1.367   .     A
C70    H99     1.082   .     S
C71    N104    1.367   .     A
C71    H100    1.082   .     S
C71    C126    1.416   .     S
C72    O110    1.293   .     A
C72    O109    1.288   .     A
C73    O111    1.292   .     A
C73    O112    1.294   .     A
C73    C75     1.462   .     S
C74    C85     1.393   .     A
C74    C585    1.404   1_554 S
C74    H606    1.084   1_554 S
C75    C84     1.396   .     A
C75    C85     1.399   .     A
C76    H90     1.083   .     S
C76    C77     1.386   .     A
C77    C582    1.390   .     S
C77    H596    1.083   .     S
C78    H91     1.077   .     S
C78    C581    1.390   1_554 S
C78    C573    1.418   1_554 S
C79    C83     1.413   .     A
C80    C84     1.401   .     A
C80    C573    1.424   1_554 S
C80    C585    1.420   1_554 S
C81    C82     1.391   .     A
C81    C578    1.404   .     S
C81    C584    1.420   .     S
C82    C83     1.387   .     A
C82    H101    1.084   .     S
C83    H93     1.080   .     S
C84    H89     1.076   .     S
C85    H88     1.083   .     S
Cu86   O107    1.956   .     S
Cu86   O105    1.962   .     S
Cu86   Cu87    2.675   .     S
Cu86   O109    1.963   .     S
Cu86   N103    2.010   .     S
Cu86   O111    1.943   .     S
Cu87   O112    1.956   .     S
Cu87   O108    1.943   .     S
Cu87   N104    2.010   .     S
Cu87   O110    1.962   .     S
Cu87   O106    1.963   .     S
H92    C581    1.083   1_554 S
H102   C578    1.084   .     S
Br113  C120    1.926   .     S
C114   O161    1.289   .     A
C114   C122    1.445   .     S
C114   O162    1.289   .     A
C115   C135    1.421   .     A
C115   C132    1.403   .     A
C115   C117    1.474   .     S
C116   H150    1.084   .     S
C116   C122    1.397   .     A
C116   C286    1.383   .     S
C117   O164    1.294   .     A
C117   O163    1.298   .     A
C118   C119    1.403   .     A
C118   H151    1.084   .     S
C118   C452    1.383   1_545 S
C119   C120    1.414   .     A
C119   C128    1.451   .     S
C120   C457    1.386   1_545 S
C121   C122    1.397   .     A
C121   H152    1.084   .     S
C121   C288    1.386   .     S
C123   N160    1.367   .     A
C123   H153    1.082   .     S
C123   C12     1.416   1_655 S
C124   N159    1.367   .     A
C124   H154    1.082   .     S
C125   C135    1.419   .     A
C125   C638    1.418   .     S
C125   C640    1.424   .     S
C126   N159    1.367   .     A
C126   H155    1.082   .     S
C127   N160    1.367   .     A
C127   H156    1.082   .     S
C127   C14     1.416   1_655 S
C128   O166    1.293   .     A
C128   O165    1.288   .     A
C129   O167    1.292   .     A
C129   O168    1.294   .     A
C129   C131    1.462   .     S
C130   C141    1.393   .     A
C130   C641    1.404   1_554 S
C130   H662    1.084   1_554 S
C131   C140    1.396   .     A
C131   C141    1.399   .     A
C132   H146    1.083   .     S
C132   C133    1.386   .     A
C133   C638    1.390   .     S
C133   H652    1.083   .     S
C134   H147    1.077   .     S
C134   C637    1.390   1_554 S
C134   C629    1.418   1_554 S
C135   C139    1.413   .     A
C136   C140    1.401   .     A
C136   C629    1.424   1_554 S
C136   C641    1.420   1_554 S
C137   C138    1.391   .     A
C137   C634    1.404   .     S
C137   C640    1.420   .     S
C138   C139    1.387   .     A
C138   H157    1.084   .     S
C139   H149    1.080   .     S
C140   H145    1.076   .     S
C141   H144    1.083   .     S
Cu142  O163    1.956   .     S
Cu142  O161    1.962   .     S
Cu142  Cu143   2.675   .     S
Cu142  O165    1.963   .     S
Cu142  N159    2.010   .     S
Cu142  O167    1.943   .     S
Cu143  O168    1.956   .     S
Cu143  O164    1.943   .     S
Cu143  N160    2.010   .     S
Cu143  O166    1.962   .     S
Cu143  O162    1.963   .     S
H148   C637    1.083   1_554 S
H158   C634    1.084   .     S
Br169  C176    1.926   .     S
C170   O217    1.289   .     A
C170   C178    1.445   .     S
C170   O218    1.289   .     A
C171   C191    1.421   .     A
C171   C188    1.403   .     A
C171   C173    1.474   .     S
C172   H206    1.084   .     S
C172   C178    1.397   .     A
C172   C342    1.383   .     S
C173   O220    1.294   .     A
C173   O219    1.298   .     A
C174   C175    1.403   .     A
C174   H207    1.084   .     S
C175   C176    1.414   .     A
C175   C184    1.451   .     S
C177   C178    1.397   .     A
C177   H208    1.084   .     S
C177   C344    1.386   .     S
C179   N216    1.367   .     A
C179   H209    1.082   .     S
C179   C236    1.416   .     S
C180   N215    1.367   .     A
C180   H210    1.082   .     S
C180   C291    1.416   1_455 S
C181   C191    1.419   .     A
C181   C694    1.418   .     S
C181   C696    1.424   .     S
C182   N215    1.367   .     A
C182   H211    1.082   .     S
C182   C295    1.416   1_455 S
C183   N216    1.367   .     A
C183   H212    1.082   .     S
C183   C238    1.416   .     S
C184   O222    1.293   .     A
C184   O221    1.288   .     A
C185   O223    1.292   .     A
C185   O224    1.294   .     A
C185   C187    1.462   .     S
C186   C197    1.393   .     A
C186   C697    1.404   1_554 S
C186   H718    1.084   1_554 S
C187   C196    1.396   .     A
C187   C197    1.399   .     A
C188   H202    1.083   .     S
C188   C189    1.386   .     A
C189   C694    1.390   .     S
C189   H708    1.083   .     S
C190   H203    1.077   .     S
C190   C693    1.390   1_554 S
C190   C685    1.418   1_554 S
C191   C195    1.413   .     A
C192   C196    1.401   .     A
C192   C685    1.424   1_554 S
C192   C697    1.420   1_554 S
C193   C194    1.391   .     A
C193   C690    1.404   .     S
C193   C696    1.420   .     S
C194   C195    1.387   .     A
C194   H213    1.084   .     S
C195   H205    1.080   .     S
C196   H201    1.076   .     S
C197   H200    1.083   .     S
Cu198  O219    1.956   .     S
Cu198  O217    1.962   .     S
Cu198  Cu199   2.675   .     S
Cu198  O221    1.963   .     S
Cu198  N215    2.010   .     S
Cu198  O223    1.943   .     S
Cu199  O224    1.956   .     S
Cu199  O220    1.943   .     S
Cu199  N216    2.010   .     S
Cu199  O222    1.962   .     S
Cu199  O218    1.963   .     S
H204   C693    1.083   1_554 S
H214   C690    1.084   .     S
Br225  C232    1.926   .     S
C226   O273    1.289   .     A
C226   C234    1.445   .     S
C226   O274    1.289   .     A
C227   C247    1.421   .     A
C227   C244    1.403   .     A
C227   C229    1.474   .     S
C228   H262    1.084   .     S
C228   C234    1.397   .     A
C228   C398    1.383   .     S
C229   O276    1.294   .     A
C229   O275    1.298   .     A
C230   C231    1.403   .     A
C230   H263    1.084   .     S
C231   C232    1.414   .     A
C231   C240    1.451   .     S
C233   C234    1.397   .     A
C233   H264    1.084   .     S
C233   C400    1.386   .     S
C235   N272    1.367   .     A
C235   H265    1.082   .     S
C235   C292    1.416   .     S
C236   N271    1.367   .     A
C236   H266    1.082   .     S
C237   C247    1.419   .     A
C237   C750    1.418   .     S
C237   C752    1.424   .     S
C238   N271    1.367   .     A
C238   H267    1.082   .     S
C239   N272    1.367   .     A
C239   H268    1.082   .     S
C239   C294    1.416   .     S
C240   O278    1.293   .     A
C240   O277    1.288   .     A
C241   O279    1.292   .     A
C241   O280    1.294   .     A
C241   C243    1.462   .     S
C242   C253    1.393   .     A
C242   C753    1.404   1_554 S
C242   H774    1.084   1_554 S
C243   C252    1.396   .     A
C243   C253    1.399   .     A
C244   H258    1.083   .     S
C244   C245    1.386   .     A
C245   C750    1.390   .     S
C245   H764    1.083   .     S
C246   H259    1.077   .     S
C246   C749    1.390   1_554 S
C246   C741    1.418   1_554 S
C247   C251    1.413   .     A
C248   C252    1.401   .     A
C248   C741    1.424   1_554 S
C248   C753    1.420   1_554 S
C249   C250    1.391   .     A
C249   C746    1.404   .     S
C249   C752    1.420   .     S
C250   C251    1.387   .     A
C250   H269    1.084   .     S
C251   H261    1.080   .     S
C252   H257    1.076   .     S
C253   H256    1.083   .     S
Cu254  O275    1.956   .     S
Cu254  O273    1.962   .     S
Cu254  Cu255   2.675   .     S
Cu254  O277    1.963   .     S
Cu254  N271    2.010   .     S
Cu254  O279    1.943   .     S
Cu255  O280    1.956   .     S
Cu255  O276    1.943   .     S
Cu255  N272    2.010   .     S
Cu255  O278    1.962   .     S
Cu255  O274    1.963   .     S
H260   C749    1.083   1_554 S
H270   C746    1.084   .     S
Br281  C288    1.926   .     S
C282   O329    1.289   .     A
C282   C290    1.445   .     S
C282   O330    1.289   .     A
C283   C303    1.421   .     A
C283   C300    1.403   .     A
C283   C285    1.474   .     S
C284   H318    1.084   .     S
C284   C290    1.397   .     A
C284   C454    1.383   .     S
C285   O332    1.294   .     A
C285   O331    1.298   .     A
C286   C287    1.403   .     A
C286   H319    1.084   .     S
C287   C288    1.414   .     A
C287   C296    1.451   .     S
C289   C290    1.397   .     A
C289   H320    1.084   .     S
C289   C456    1.386   .     S
C291   N328    1.367   .     A
C291   H321    1.082   .     S
C291   C180    1.416   1_655 S
C292   N327    1.367   .     A
C292   H322    1.082   .     S
C293   C303    1.419   .     A
C293   C806    1.418   .     S
C293   C808    1.424   .     S
C294   N327    1.367   .     A
C294   H323    1.082   .     S
C295   N328    1.367   .     A
C295   H324    1.082   .     S
C295   C182    1.416   1_655 S
C296   O334    1.293   .     A
C296   O333    1.288   .     A
C297   O335    1.292   .     A
C297   O336    1.294   .     A
C297   C299    1.462   .     S
C298   C309    1.393   .     A
C298   C809    1.404   1_554 S
C298   H830    1.084   1_554 S
C299   C308    1.396   .     A
C299   C309    1.399   .     A
C300   H314    1.083   .     S
C300   C301    1.386   .     A
C301   C806    1.390   .     S
C301   H820    1.083   .     S
C302   H315    1.077   .     S
C302   C805    1.390   1_554 S
C302   C797    1.418   1_554 S
C303   C307    1.413   .     A
C304   C308    1.401   .     A
C304   C797    1.424   1_554 S
C304   C809    1.420   1_554 S
C305   C306    1.391   .     A
C305   C802    1.404   .     S
C305   C808    1.420   .     S
C306   C307    1.387   .     A
C306   H325    1.084   .     S
C307   H317    1.080   .     S
C308   H313    1.076   .     S
C309   H312    1.083   .     S
Cu310  O331    1.956   .     S
Cu310  O329    1.962   .     S
Cu310  Cu311   2.675   .     S
Cu310  O333    1.963   .     S
Cu310  N327    2.010   .     S
Cu310  O335    1.943   .     S
Cu311  O336    1.956   .     S
Cu311  O332    1.943   .     S
Cu311  N328    2.010   .     S
Cu311  O334    1.962   .     S
Cu311  O330    1.963   .     S
H316   C805    1.083   1_554 S
H326   C802    1.084   .     S
Br337  C344    1.926   .     S
C338   O385    1.289   .     A
C338   C346    1.445   .     S
C338   O386    1.289   .     A
C339   C359    1.421   .     A
C339   C356    1.403   .     A
C339   C341    1.474   .     S
C340   H374    1.084   .     S
C340   C346    1.397   .     A
C340   C6      1.383   1_565 S
C341   O388    1.294   .     A
C341   O387    1.298   .     A
C342   C343    1.403   .     A
C342   H375    1.084   .     S
C343   C344    1.414   .     A
C343   C352    1.451   .     S
C345   C346    1.397   .     A
C345   H376    1.084   .     S
C345   C8      1.386   1_565 S
C347   N384    1.367   .     A
C347   H377    1.082   .     S
C347   C404    1.416   .     S
C348   N383    1.367   .     A
C348   H378    1.082   .     S
C348   C459    1.416   1_455 S
C349   C359    1.419   .     A
C349   C862    1.418   .     S
C349   C864    1.424   .     S
C350   N383    1.367   .     A
C350   H379    1.082   .     S
C350   C463    1.416   1_455 S
C351   N384    1.367   .     A
C351   H380    1.082   .     S
C351   C406    1.416   .     S
C352   O390    1.293   .     A
C352   O389    1.288   .     A
C353   O391    1.292   .     A
C353   O392    1.294   .     A
C353   C355    1.462   .     S
C354   C365    1.393   .     A
C354   C865    1.404   1_554 S
C354   H886    1.084   1_554 S
C355   C364    1.396   .     A
C355   C365    1.399   .     A
C356   H370    1.083   .     S
C356   C357    1.386   .     A
C357   C862    1.390   .     S
C357   H876    1.083   .     S
C358   H371    1.077   .     S
C358   C861    1.390   1_554 S
C358   C853    1.418   1_554 S
C359   C363    1.413   .     A
C360   C364    1.401   .     A
C360   C853    1.424   1_554 S
C360   C865    1.420   1_554 S
C361   C362    1.391   .     A
C361   C858    1.404   .     S
C361   C864    1.420   .     S
C362   C363    1.387   .     A
C362   H381    1.084   .     S
C363   H373    1.080   .     S
C364   H369    1.076   .     S
C365   H368    1.083   .     S
Cu366  O387    1.956   .     S
Cu366  O385    1.962   .     S
Cu366  Cu367   2.675   .     S
Cu366  O389    1.963   .     S
Cu366  N383    2.010   .     S
Cu366  O391    1.943   .     S
Cu367  O392    1.956   .     S
Cu367  O388    1.943   .     S
Cu367  N384    2.010   .     S
Cu367  O390    1.962   .     S
Cu367  O386    1.963   .     S
H372   C861    1.083   1_554 S
H382   C858    1.084   .     S
Br393  C400    1.926   .     S
C394   O441    1.289   .     A
C394   C402    1.445   .     S
C394   O442    1.289   .     A
C395   C415    1.421   .     A
C395   C412    1.403   .     A
C395   C397    1.474   .     S
C396   H430    1.084   .     S
C396   C402    1.397   .     A
C396   C62     1.383   1_565 S
C397   O444    1.294   .     A
C397   O443    1.298   .     A
C398   C399    1.403   .     A
C398   H431    1.084   .     S
C399   C400    1.414   .     A
C399   C408    1.451   .     S
C401   C402    1.397   .     A
C401   H432    1.084   .     S
C401   C64     1.386   1_565 S
C403   N440    1.367   .     A
C403   H433    1.082   .     S
C403   C460    1.416   .     S
C404   N439    1.367   .     A
C404   H434    1.082   .     S
C405   C415    1.419   .     A
C405   C918    1.418   .     S
C405   C920    1.424   .     S
C406   N439    1.367   .     A
C406   H435    1.082   .     S
C407   N440    1.367   .     A
C407   H436    1.082   .     S
C407   C462    1.416   .     S
C408   O446    1.293   .     A
C408   O445    1.288   .     A
C409   O447    1.292   .     A
C409   O448    1.294   .     A
C409   C411    1.462   .     S
C410   C421    1.393   .     A
C410   C921    1.404   1_554 S
C410   H942    1.084   1_554 S
C411   C420    1.396   .     A
C411   C421    1.399   .     A
C412   H426    1.083   .     S
C412   C413    1.386   .     A
C413   C918    1.390   .     S
C413   H932    1.083   .     S
C414   H427    1.077   .     S
C414   C917    1.390   1_554 S
C414   C909    1.418   1_554 S
C415   C419    1.413   .     A
C416   C420    1.401   .     A
C416   C909    1.424   1_554 S
C416   C921    1.420   1_554 S
C417   C418    1.391   .     A
C417   C914    1.404   .     S
C417   C920    1.420   .     S
C418   C419    1.387   .     A
C418   H437    1.084   .     S
C419   H429    1.080   .     S
C420   H425    1.076   .     S
C421   H424    1.083   .     S
Cu422  O443    1.956   .     S
Cu422  O441    1.962   .     S
Cu422  Cu423   2.675   .     S
Cu422  O445    1.963   .     S
Cu422  N439    2.010   .     S
Cu422  O447    1.943   .     S
Cu423  O448    1.956   .     S
Cu423  O444    1.943   .     S
Cu423  N440    2.010   .     S
Cu423  O446    1.962   .     S
Cu423  O442    1.963   .     S
H428   C917    1.083   1_554 S
H438   C914    1.084   .     S
Br449  C456    1.926   .     S
C450   O497    1.289   .     A
C450   C458    1.445   .     S
C450   O498    1.289   .     A
C451   C471    1.421   .     A
C451   C468    1.403   .     A
C451   C453    1.474   .     S
C452   H486    1.084   .     S
C452   C458    1.397   .     A
C452   C118    1.383   1_565 S
C453   O500    1.294   .     A
C453   O499    1.298   .     A
C454   C455    1.403   .     A
C454   H487    1.084   .     S
C455   C456    1.414   .     A
C455   C464    1.451   .     S
C457   C458    1.397   .     A
C457   H488    1.084   .     S
C457   C120    1.386   1_565 S
C459   N496    1.367   .     A
C459   H489    1.082   .     S
C459   C348    1.416   1_655 S
C460   N495    1.367   .     A
C460   H490    1.082   .     S
C461   C471    1.419   .     A
C461   C974    1.418   .     S
C461   C976    1.424   .     S
C462   N495    1.367   .     A
C462   H491    1.082   .     S
C463   N496    1.367   .     A
C463   H492    1.082   .     S
C463   C350    1.416   1_655 S
C464   O502    1.293   .     A
C464   O501    1.288   .     A
C465   O503    1.292   .     A
C465   O504    1.294   .     A
C465   C467    1.462   .     S
C466   C477    1.393   .     A
C466   C977    1.404   1_554 S
C466   H998    1.084   1_554 S
C467   C476    1.396   .     A
C467   C477    1.399   .     A
C468   H482    1.083   .     S
C468   C469    1.386   .     A
C469   C974    1.390   .     S
C469   H988    1.083   .     S
C470   H483    1.077   .     S
C470   C973    1.390   1_554 S
C470   C965    1.418   1_554 S
C471   C475    1.413   .     A
C472   C476    1.401   .     A
C472   C965    1.424   1_554 S
C472   C977    1.420   1_554 S
C473   C474    1.391   .     A
C473   C970    1.404   .     S
C473   C976    1.420   .     S
C474   C475    1.387   .     A
C474   H493    1.084   .     S
C475   H485    1.080   .     S
C476   H481    1.076   .     S
C477   H480    1.083   .     S
Cu478  O499    1.956   .     S
Cu478  O497    1.962   .     S
Cu478  Cu479   2.675   .     S
Cu478  O501    1.963   .     S
Cu478  N495    2.010   .     S
Cu478  O503    1.943   .     S
Cu479  O504    1.956   .     S
Cu479  O500    1.943   .     S
Cu479  N496    2.010   .     S
Cu479  O502    1.962   .     S
Cu479  O498    1.963   .     S
H484   C973    1.083   1_554 S
H494   C970    1.084   .     S
Br505  C512    1.926   .     S
C506   O553    1.289   .     A
C506   C514    1.445   .     S
C506   O554    1.289   .     A
C507   C527    1.421   .     A
C507   C524    1.403   .     A
C507   C509    1.474   .     S
C508   H542    1.084   .     S
C508   C514    1.397   .     A
C508   C678    1.383   .     S
C509   O556    1.294   .     A
C509   O555    1.298   .     A
C510   C511    1.403   .     A
C510   H543    1.084   .     S
C510   C844    1.383   1_545 S
C511   C512    1.414   .     A
C511   C520    1.451   .     S
C512   C849    1.386   1_545 S
C513   C514    1.397   .     A
C513   H544    1.084   .     S
C513   C680    1.386   .     S
C515   N552    1.367   .     A
C515   H545    1.082   .     S
C515   C572    1.416   .     S
C516   N551    1.367   .     A
C516   H546    1.082   .     S
C516   C627    1.416   1_455 S
C517   C527    1.419   .     A
C517   C22     1.418   1_556 S
C517   C24     1.424   1_556 S
C518   N551    1.367   .     A
C518   H547    1.082   .     S
C518   C631    1.416   1_455 S
C519   N552    1.367   .     A
C519   H548    1.082   .     S
C519   C574    1.416   .     S
C520   O558    1.293   .     A
C520   O557    1.288   .     A
C521   O559    1.292   .     A
C521   O560    1.294   .     A
C521   C523    1.462   .     S
C522   C533    1.393   .     A
C523   C532    1.396   .     A
C523   C533    1.399   .     A
C524   H538    1.083   .     S
C524   C525    1.386   .     A
C525   C22     1.390   1_556 S
C525   H36     1.083   1_556 S
C526   H539    1.077   .     S
C527   C531    1.413   .     A
C528   C532    1.401   .     A
C529   C530    1.391   .     A
C529   C18     1.404   1_556 S
C529   C24     1.420   1_556 S
C530   C531    1.387   .     A
C530   H549    1.084   .     S
C531   H541    1.080   .     S
C532   H537    1.076   .     S
C533   H536    1.083   .     S
Cu534  O555    1.956   .     S
Cu534  O553    1.962   .     S
Cu534  Cu535   2.675   .     S
Cu534  O557    1.963   .     S
Cu534  N551    2.010   .     S
Cu534  O559    1.943   .     S
Cu535  O560    1.956   .     S
Cu535  O556    1.943   .     S
Cu535  N552    2.010   .     S
Cu535  O558    1.962   .     S
Cu535  O554    1.963   .     S
H550   C18     1.084   1_556 S
Br561  C568    1.926   .     S
C562   O609    1.289   .     A
C562   C570    1.445   .     S
C562   O610    1.289   .     A
C563   C583    1.421   .     A
C563   C580    1.403   .     A
C563   C565    1.474   .     S
C564   H598    1.084   .     S
C564   C570    1.397   .     A
C564   C734    1.383   .     S
C565   O612    1.294   .     A
C565   O611    1.298   .     A
C566   C567    1.403   .     A
C566   H599    1.084   .     S
C566   C900    1.383   1_545 S
C567   C568    1.414   .     A
C567   C576    1.451   .     S
C568   C905    1.386   1_545 S
C569   C570    1.397   .     A
C569   H600    1.084   .     S
C569   C736    1.386   .     S
C571   N608    1.367   .     A
C571   H601    1.082   .     S
C571   C628    1.416   .     S
C572   N607    1.367   .     A
C572   H602    1.082   .     S
C573   C583    1.419   .     A
C573   C78     1.418   1_556 S
C573   C80     1.424   1_556 S
C574   N607    1.367   .     A
C574   H603    1.082   .     S
C575   N608    1.367   .     A
C575   H604    1.082   .     S
C575   C630    1.416   .     S
C576   O614    1.293   .     A
C576   O613    1.288   .     A
C577   O615    1.292   .     A
C577   O616    1.294   .     A
C577   C579    1.462   .     S
C578   C589    1.393   .     A
C579   C588    1.396   .     A
C579   C589    1.399   .     A
C580   H594    1.083   .     S
C580   C581    1.386   .     A
C581   C78     1.390   1_556 S
C581   H92     1.083   1_556 S
C582   H595    1.077   .     S
C583   C587    1.413   .     A
C584   C588    1.401   .     A
C585   C586    1.391   .     A
C585   C74     1.404   1_556 S
C585   C80     1.420   1_556 S
C586   C587    1.387   .     A
C586   H605    1.084   .     S
C587   H597    1.080   .     S
C588   H593    1.076   .     S
C589   H592    1.083   .     S
Cu590  O611    1.956   .     S
Cu590  O609    1.962   .     S
Cu590  Cu591   2.675   .     S
Cu590  O613    1.963   .     S
Cu590  N607    2.010   .     S
Cu590  O615    1.943   .     S
Cu591  O616    1.956   .     S
Cu591  O612    1.943   .     S
Cu591  N608    2.010   .     S
Cu591  O614    1.962   .     S
Cu591  O610    1.963   .     S
H606   C74     1.084   1_556 S
Br617  C624    1.926   .     S
C618   O665    1.289   .     A
C618   C626    1.445   .     S
C618   O666    1.289   .     A
C619   C639    1.421   .     A
C619   C636    1.403   .     A
C619   C621    1.474   .     S
C620   H654    1.084   .     S
C620   C626    1.397   .     A
C620   C790    1.383   .     S
C621   O668    1.294   .     A
C621   O667    1.298   .     A
C622   C623    1.403   .     A
C622   H655    1.084   .     S
C622   C956    1.383   1_545 S
C623   C624    1.414   .     A
C623   C632    1.451   .     S
C624   C961    1.386   1_545 S
C625   C626    1.397   .     A
C625   H656    1.084   .     S
C625   C792    1.386   .     S
C627   N664    1.367   .     A
C627   H657    1.082   .     S
C627   C516    1.416   1_655 S
C628   N663    1.367   .     A
C628   H658    1.082   .     S
C629   C639    1.419   .     A
C629   C134    1.418   1_556 S
C629   C136    1.424   1_556 S
C630   N663    1.367   .     A
C630   H659    1.082   .     S
C631   N664    1.367   .     A
C631   H660    1.082   .     S
C631   C518    1.416   1_655 S
C632   O670    1.293   .     A
C632   O669    1.288   .     A
C633   O671    1.292   .     A
C633   O672    1.294   .     A
C633   C635    1.462   .     S
C634   C645    1.393   .     A
C635   C644    1.396   .     A
C635   C645    1.399   .     A
C636   H650    1.083   .     S
C636   C637    1.386   .     A
C637   C134    1.390   1_556 S
C637   H148    1.083   1_556 S
C638   H651    1.077   .     S
C639   C643    1.413   .     A
C640   C644    1.401   .     A
C641   C642    1.391   .     A
C641   C130    1.404   1_556 S
C641   C136    1.420   1_556 S
C642   C643    1.387   .     A
C642   H661    1.084   .     S
C643   H653    1.080   .     S
C644   H649    1.076   .     S
C645   H648    1.083   .     S
Cu646  O667    1.956   .     S
Cu646  O665    1.962   .     S
Cu646  Cu647   2.675   .     S
Cu646  O669    1.963   .     S
Cu646  N663    2.010   .     S
Cu646  O671    1.943   .     S
Cu647  O672    1.956   .     S
Cu647  O668    1.943   .     S
Cu647  N664    2.010   .     S
Cu647  O670    1.962   .     S
Cu647  O666    1.963   .     S
H662   C130    1.084   1_556 S
Br673  C680    1.926   .     S
C674   O721    1.289   .     A
C674   C682    1.445   .     S
C674   O722    1.289   .     A
C675   C695    1.421   .     A
C675   C692    1.403   .     A
C675   C677    1.474   .     S
C676   H710    1.084   .     S
C676   C682    1.397   .     A
C676   C846    1.383   .     S
C677   O724    1.294   .     A
C677   O723    1.298   .     A
C678   C679    1.403   .     A
C678   H711    1.084   .     S
C679   C680    1.414   .     A
C679   C688    1.451   .     S
C681   C682    1.397   .     A
C681   H712    1.084   .     S
C681   C848    1.386   .     S
C683   N720    1.367   .     A
C683   H713    1.082   .     S
C683   C740    1.416   .     S
C684   N719    1.367   .     A
C684   H714    1.082   .     S
C684   C795    1.416   1_455 S
C685   C695    1.419   .     A
C685   C190    1.418   1_556 S
C685   C192    1.424   1_556 S
C686   N719    1.367   .     A
C686   H715    1.082   .     S
C686   C799    1.416   1_455 S
C687   N720    1.367   .     A
C687   H716    1.082   .     S
C687   C742    1.416   .     S
C688   O726    1.293   .     A
C688   O725    1.288   .     A
C689   O727    1.292   .     A
C689   O728    1.294   .     A
C689   C691    1.462   .     S
C690   C701    1.393   .     A
C691   C700    1.396   .     A
C691   C701    1.399   .     A
C692   H706    1.083   .     S
C692   C693    1.386   .     A
C693   C190    1.390   1_556 S
C693   H204    1.083   1_556 S
C694   H707    1.077   .     S
C695   C699    1.413   .     A
C696   C700    1.401   .     A
C697   C698    1.391   .     A
C697   C186    1.404   1_556 S
C697   C192    1.420   1_556 S
C698   C699    1.387   .     A
C698   H717    1.084   .     S
C699   H709    1.080   .     S
C700   H705    1.076   .     S
C701   H704    1.083   .     S
Cu702  O723    1.956   .     S
Cu702  O721    1.962   .     S
Cu702  Cu703   2.675   .     S
Cu702  O725    1.963   .     S
Cu702  N719    2.010   .     S
Cu702  O727    1.943   .     S
Cu703  O728    1.956   .     S
Cu703  O724    1.943   .     S
Cu703  N720    2.010   .     S
Cu703  O726    1.962   .     S
Cu703  O722    1.963   .     S
H718   C186    1.084   1_556 S
Br729  C736    1.926   .     S
C730   O777    1.289   .     A
C730   C738    1.445   .     S
C730   O778    1.289   .     A
C731   C751    1.421   .     A
C731   C748    1.403   .     A
C731   C733    1.474   .     S
C732   H766    1.084   .     S
C732   C738    1.397   .     A
C732   C902    1.383   .     S
C733   O780    1.294   .     A
C733   O779    1.298   .     A
C734   C735    1.403   .     A
C734   H767    1.084   .     S
C735   C736    1.414   .     A
C735   C744    1.451   .     S
C737   C738    1.397   .     A
C737   H768    1.084   .     S
C737   C904    1.386   .     S
C739   N776    1.367   .     A
C739   H769    1.082   .     S
C739   C796    1.416   .     S
C740   N775    1.367   .     A
C740   H770    1.082   .     S
C741   C751    1.419   .     A
C741   C246    1.418   1_556 S
C741   C248    1.424   1_556 S
C742   N775    1.367   .     A
C742   H771    1.082   .     S
C743   N776    1.367   .     A
C743   H772    1.082   .     S
C743   C798    1.416   .     S
C744   O782    1.293   .     A
C744   O781    1.288   .     A
C745   O783    1.292   .     A
C745   O784    1.294   .     A
C745   C747    1.462   .     S
C746   C757    1.393   .     A
C747   C756    1.396   .     A
C747   C757    1.399   .     A
C748   H762    1.083   .     S
C748   C749    1.386   .     A
C749   C246    1.390   1_556 S
C749   H260    1.083   1_556 S
C750   H763    1.077   .     S
C751   C755    1.413   .     A
C752   C756    1.401   .     A
C753   C754    1.391   .     A
C753   C242    1.404   1_556 S
C753   C248    1.420   1_556 S
C754   C755    1.387   .     A
C754   H773    1.084   .     S
C755   H765    1.080   .     S
C756   H761    1.076   .     S
C757   H760    1.083   .     S
Cu758  O779    1.956   .     S
Cu758  O777    1.962   .     S
Cu758  Cu759   2.675   .     S
Cu758  O781    1.963   .     S
Cu758  N775    2.010   .     S
Cu758  O783    1.943   .     S
Cu759  O784    1.956   .     S
Cu759  O780    1.943   .     S
Cu759  N776    2.010   .     S
Cu759  O782    1.962   .     S
Cu759  O778    1.963   .     S
H774   C242    1.084   1_556 S
Br785  C792    1.926   .     S
C786   O833    1.289   .     A
C786   C794    1.445   .     S
C786   O834    1.289   .     A
C787   C807    1.421   .     A
C787   C804    1.403   .     A
C787   C789    1.474   .     S
C788   H822    1.084   .     S
C788   C794    1.397   .     A
C788   C958    1.383   .     S
C789   O836    1.294   .     A
C789   O835    1.298   .     A
C790   C791    1.403   .     A
C790   H823    1.084   .     S
C791   C792    1.414   .     A
C791   C800    1.451   .     S
C793   C794    1.397   .     A
C793   H824    1.084   .     S
C793   C960    1.386   .     S
C795   N832    1.367   .     A
C795   H825    1.082   .     S
C795   C684    1.416   1_655 S
C796   N831    1.367   .     A
C796   H826    1.082   .     S
C797   C807    1.419   .     A
C797   C302    1.418   1_556 S
C797   C304    1.424   1_556 S
C798   N831    1.367   .     A
C798   H827    1.082   .     S
C799   N832    1.367   .     A
C799   H828    1.082   .     S
C799   C686    1.416   1_655 S
C800   O838    1.293   .     A
C800   O837    1.288   .     A
C801   O839    1.292   .     A
C801   O840    1.294   .     A
C801   C803    1.462   .     S
C802   C813    1.393   .     A
C803   C812    1.396   .     A
C803   C813    1.399   .     A
C804   H818    1.083   .     S
C804   C805    1.386   .     A
C805   C302    1.390   1_556 S
C805   H316    1.083   1_556 S
C806   H819    1.077   .     S
C807   C811    1.413   .     A
C808   C812    1.401   .     A
C809   C810    1.391   .     A
C809   C298    1.404   1_556 S
C809   C304    1.420   1_556 S
C810   C811    1.387   .     A
C810   H829    1.084   .     S
C811   H821    1.080   .     S
C812   H817    1.076   .     S
C813   H816    1.083   .     S
Cu814  O835    1.956   .     S
Cu814  O833    1.962   .     S
Cu814  Cu815   2.675   .     S
Cu814  O837    1.963   .     S
Cu814  N831    2.010   .     S
Cu814  O839    1.943   .     S
Cu815  O840    1.956   .     S
Cu815  O836    1.943   .     S
Cu815  N832    2.010   .     S
Cu815  O838    1.962   .     S
Cu815  O834    1.963   .     S
H830   C298    1.084   1_556 S
Br841  C848    1.926   .     S
C842   O889    1.289   .     A
C842   C850    1.445   .     S
C842   O890    1.289   .     A
C843   C863    1.421   .     A
C843   C860    1.403   .     A
C843   C845    1.474   .     S
C844   H878    1.084   .     S
C844   C850    1.397   .     A
C844   C510    1.383   1_565 S
C845   O892    1.294   .     A
C845   O891    1.298   .     A
C846   C847    1.403   .     A
C846   H879    1.084   .     S
C847   C848    1.414   .     A
C847   C856    1.451   .     S
C849   C850    1.397   .     A
C849   H880    1.084   .     S
C849   C512    1.386   1_565 S
C851   N888    1.367   .     A
C851   H881    1.082   .     S
C851   C908    1.416   .     S
C852   N887    1.367   .     A
C852   H882    1.082   .     S
C852   C963    1.416   1_455 S
C853   C863    1.419   .     A
C853   C358    1.418   1_556 S
C853   C360    1.424   1_556 S
C854   N887    1.367   .     A
C854   H883    1.082   .     S
C854   C967    1.416   1_455 S
C855   N888    1.367   .     A
C855   H884    1.082   .     S
C855   C910    1.416   .     S
C856   O894    1.293   .     A
C856   O893    1.288   .     A
C857   O895    1.292   .     A
C857   O896    1.294   .     A
C857   C859    1.462   .     S
C858   C869    1.393   .     A
C859   C868    1.396   .     A
C859   C869    1.399   .     A
C860   H874    1.083   .     S
C860   C861    1.386   .     A
C861   C358    1.390   1_556 S
C861   H372    1.083   1_556 S
C862   H875    1.077   .     S
C863   C867    1.413   .     A
C864   C868    1.401   .     A
C865   C866    1.391   .     A
C865   C354    1.404   1_556 S
C865   C360    1.420   1_556 S
C866   C867    1.387   .     A
C866   H885    1.084   .     S
C867   H877    1.080   .     S
C868   H873    1.076   .     S
C869   H872    1.083   .     S
Cu870  O891    1.956   .     S
Cu870  O889    1.962   .     S
Cu870  Cu871   2.675   .     S
Cu870  O893    1.963   .     S
Cu870  N887    2.010   .     S
Cu870  O895    1.943   .     S
Cu871  O896    1.956   .     S
Cu871  O892    1.943   .     S
Cu871  N888    2.010   .     S
Cu871  O894    1.962   .     S
Cu871  O890    1.963   .     S
H886   C354    1.084   1_556 S
Br897  C904    1.926   .     S
C898   O945    1.289   .     A
C898   C906    1.445   .     S
C898   O946    1.289   .     A
C899   C919    1.421   .     A
C899   C916    1.403   .     A
C899   C901    1.474   .     S
C900   H934    1.084   .     S
C900   C906    1.397   .     A
C900   C566    1.383   1_565 S
C901   O948    1.294   .     A
C901   O947    1.298   .     A
C902   C903    1.403   .     A
C902   H935    1.084   .     S
C903   C904    1.414   .     A
C903   C912    1.451   .     S
C905   C906    1.397   .     A
C905   H936    1.084   .     S
C905   C568    1.386   1_565 S
C907   N944    1.367   .     A
C907   H937    1.082   .     S
C907   C964    1.416   .     S
C908   N943    1.367   .     A
C908   H938    1.082   .     S
C909   C919    1.419   .     A
C909   C414    1.418   1_556 S
C909   C416    1.424   1_556 S
C910   N943    1.367   .     A
C910   H939    1.082   .     S
C911   N944    1.367   .     A
C911   H940    1.082   .     S
C911   C966    1.416   .     S
C912   O950    1.293   .     A
C912   O949    1.288   .     A
C913   O951    1.292   .     A
C913   O952    1.294   .     A
C913   C915    1.462   .     S
C914   C925    1.393   .     A
C915   C924    1.396   .     A
C915   C925    1.399   .     A
C916   H930    1.083   .     S
C916   C917    1.386   .     A
C917   C414    1.390   1_556 S
C917   H428    1.083   1_556 S
C918   H931    1.077   .     S
C919   C923    1.413   .     A
C920   C924    1.401   .     A
C921   C922    1.391   .     A
C921   C410    1.404   1_556 S
C921   C416    1.420   1_556 S
C922   C923    1.387   .     A
C922   H941    1.084   .     S
C923   H933    1.080   .     S
C924   H929    1.076   .     S
C925   H928    1.083   .     S
Cu926  O947    1.956   .     S
Cu926  O945    1.962   .     S
Cu926  Cu927   2.675   .     S
Cu926  O949    1.963   .     S
Cu926  N943    2.010   .     S
Cu926  O951    1.943   .     S
Cu927  O952    1.956   .     S
Cu927  O948    1.943   .     S
Cu927  N944    2.010   .     S
Cu927  O950    1.962   .     S
Cu927  O946    1.963   .     S
H942   C410    1.084   1_556 S
Br953  C960    1.926   .     S
C954   O1001   1.289   .     A
C954   C962    1.445   .     S
C954   O1002   1.289   .     A
C955   C975    1.421   .     A
C955   C972    1.403   .     A
C955   C957    1.474   .     S
C956   H990    1.084   .     S
C956   C962    1.397   .     A
C956   C622    1.383   1_565 S
C957   O1004   1.294   .     A
C957   O1003   1.298   .     A
C958   C959    1.403   .     A
C958   H991    1.084   .     S
C959   C960    1.414   .     A
C959   C968    1.451   .     S
C961   C962    1.397   .     A
C961   H992    1.084   .     S
C961   C624    1.386   1_565 S
C963   N1000   1.367   .     A
C963   H993    1.082   .     S
C963   C852    1.416   1_655 S
C964   N999    1.367   .     A
C964   H994    1.082   .     S
C965   C975    1.419   .     A
C965   C470    1.418   1_556 S
C965   C472    1.424   1_556 S
C966   N999    1.367   .     A
C966   H995    1.082   .     S
C967   N1000   1.367   .     A
C967   H996    1.082   .     S
C967   C854    1.416   1_655 S
C968   O1006   1.293   .     A
C968   O1005   1.288   .     A
C969   O1007   1.292   .     A
C969   O1008   1.294   .     A
C969   C971    1.462   .     S
C970   C981    1.393   .     A
C971   C980    1.396   .     A
C971   C981    1.399   .     A
C972   H986    1.083   .     S
C972   C973    1.386   .     A
C973   C470    1.390   1_556 S
C973   H484    1.083   1_556 S
C974   H987    1.077   .     S
C975   C979    1.413   .     A
C976   C980    1.401   .     A
C977   C978    1.391   .     A
C977   C466    1.404   1_556 S
C977   C472    1.420   1_556 S
C978   C979    1.387   .     A
C978   H997    1.084   .     S
C979   H989    1.080   .     S
C980   H985    1.076   .     S
C981   H984    1.083   .     S
Cu982  O1003   1.956   .     S
Cu982  O1001   1.962   .     S
Cu982  Cu983   2.675   .     S
Cu982  O1005   1.963   .     S
Cu982  N999    2.010   .     S
Cu982  O1007   1.943   .     S
Cu983  O1008   1.956   .     S
Cu983  O1004   1.943   .     S
Cu983  N1000   2.010   .     S
Cu983  O1006   1.962   .     S
Cu983  O1002   1.963   .     S
H998   C466    1.084   1_556 S
