data_str_m3_o10_o16_pcu_sym.127
_audit_creation_date              2020-01-03
_audit_creation_method            'Materials Studio'
_symmetry_space_group_name_H-M    'P1'
_symmetry_Int_Tables_number       1
_symmetry_cell_setting            triclinic
loop_
_symmetry_equiv_pos_as_xyz
  x,y,z
_cell_length_a                    23.4077
_cell_length_b                    25.8167
_cell_length_c                    25.3295
_cell_angle_alpha                 92.6147
_cell_angle_beta                  102.9991
_cell_angle_gamma                 93.8147
loop_
_atom_site_label
_atom_site_type_symbol
_atom_site_fract_x
_atom_site_fract_y
_atom_site_fract_z
_atom_site_U_iso_or_equiv
_atom_site_adp_type
_atom_site_occupancy
C1     C     0.01461   0.26486   0.24866   0.00000  Uiso   1.00
C2     C     0.06255   0.18633   0.41270   0.00000  Uiso   1.00
C3     C     0.02170   0.31934   0.24798   0.00000  Uiso   1.00
C4     C     0.03811   0.17449   0.35422   0.00000  Uiso   1.00
C5     C     0.31020   0.01449   0.25245   0.00000  Uiso   1.00
C6     C     0.31856   0.06862   0.25148   0.00000  Uiso   1.00
C7     C     0.29541   0.15645   0.14686   0.00000  Uiso   1.00
C8     C     0.28321   0.11645   0.00101   0.00000  Uiso   1.00
C9     C     0.27135   0.14032   0.09038   0.00000  Uiso   1.00
C10    C     0.02699   0.20587   0.44538   0.00000  Uiso   1.00
C11    C     0.04768   0.21145   0.00137   0.00000  Uiso   1.00
C12    C     0.13708   0.17094   0.49331   0.00000  Uiso   1.00
C13    C     0.10139   0.19298   0.02548   0.00000  Uiso   1.00
C14    C     0.12096   0.17580   0.43702   0.00000  Uiso   1.00
C15    C     0.19106   0.14910   0.01466   0.00000  Uiso   1.00
C16    C     0.22801   0.13443   0.47979   0.00000  Uiso   1.00
C17    C     0.21278   0.14416   0.42548   0.00000  Uiso   1.00
C18    C     0.16463   0.17163   0.40722   0.00000  Uiso   1.00
C19    C     0.21120   0.14330   0.06968   0.00000  Uiso   1.00
C20    C     0.30646   0.12235   0.05647   0.00000  Uiso   1.00
F21    F     0.02959   0.11152   0.07651   0.00000  Uiso   1.00
F22    F     0.25655   0.32777   0.25793   0.00000  Uiso   1.00
F23    F     0.17421   0.22881   0.27641   0.00000  Uiso   1.00
F24    F     0.24831   0.13310   0.39179   0.00000  Uiso   1.00
F25    F     0.17324   0.13915   0.10299   0.00000  Uiso   1.00
F26    F     0.16829   0.20459   0.36807   0.00000  Uiso   1.00
H27    H     0.15717   0.11907   0.21823   0.00000  Uiso   1.00
H28    H     0.31690   0.21747   0.42766   0.00000  Uiso   1.00
H29    H     0.06414   0.00284   0.24369   0.00000  Uiso   1.00
H30    H     0.31103   0.10381   0.47479   0.00000  Uiso   1.00
H31    H     0.11468   0.19878   0.06898   0.00000  Uiso   1.00
H32    H     0.02093   0.22829   0.02639   0.00000  Uiso   1.00
N33    N     0.14493   0.15223   0.23543   0.00000  Uiso   1.00
N34    N     0.18840   0.18110   0.26458   0.00000  Uiso   1.00
O35    O     0.29769   0.24629   0.25358   0.00000  Uiso   1.00
O36    O     0.05742   0.23704   0.24424   0.00000  Uiso   1.00
O37    O     0.31490   0.17358   0.33380   0.00000  Uiso   1.00
O38    O     0.07463   0.16433   0.32446   0.00000  Uiso   1.00
O39    O     0.27592   0.09629   0.25577   0.00000  Uiso   1.00
O40    O     0.03565   0.08704   0.24642   0.00000  Uiso   1.00
O41    O     0.25870   0.16901   0.17554   0.00000  Uiso   1.00
O42    O     0.01843   0.15976   0.16620   0.00000  Uiso   1.00
Zn43   Zn    0.27119   0.17284   0.25624   0.00000  Uiso   1.00
Zn44   Zn    0.06214   0.16049   0.24377   0.00000  Uiso   1.00
C45    C     0.34794   0.26486   0.24866   0.00000  Uiso   1.00
C46    C     0.39589   0.18633   0.41270   0.00000  Uiso   1.00
C47    C     0.35503   0.31934   0.24798   0.00000  Uiso   1.00
C48    C     0.37144   0.17449   0.35422   0.00000  Uiso   1.00
C49    C     0.64353   0.01449   0.25245   0.00000  Uiso   1.00
C50    C     0.65189   0.06862   0.25148   0.00000  Uiso   1.00
C51    C     0.62875   0.15645   0.14686   0.00000  Uiso   1.00
C52    C     0.61655   0.11645   0.00101   0.00000  Uiso   1.00
C53    C     0.60469   0.14032   0.09038   0.00000  Uiso   1.00
C54    C     0.36032   0.20587   0.44538   0.00000  Uiso   1.00
C55    C     0.38101   0.21145   0.00137   0.00000  Uiso   1.00
C56    C     0.47041   0.17094   0.49331   0.00000  Uiso   1.00
C57    C     0.43473   0.19298   0.02548   0.00000  Uiso   1.00
C58    C     0.45429   0.17580   0.43702   0.00000  Uiso   1.00
C59    C     0.52440   0.14910   0.01466   0.00000  Uiso   1.00
C60    C     0.56134   0.13443   0.47979   0.00000  Uiso   1.00
C61    C     0.54611   0.14416   0.42548   0.00000  Uiso   1.00
C62    C     0.49796   0.17163   0.40722   0.00000  Uiso   1.00
C63    C     0.54453   0.14330   0.06968   0.00000  Uiso   1.00
C64    C     0.63979   0.12235   0.05647   0.00000  Uiso   1.00
F65    F     0.36292   0.11152   0.07651   0.00000  Uiso   1.00
F66    F     0.58988   0.32777   0.25793   0.00000  Uiso   1.00
F67    F     0.50754   0.22881   0.27641   0.00000  Uiso   1.00
F68    F     0.58165   0.13310   0.39179   0.00000  Uiso   1.00
F69    F     0.50657   0.13915   0.10299   0.00000  Uiso   1.00
F70    F     0.50163   0.20459   0.36807   0.00000  Uiso   1.00
H71    H     0.49051   0.11907   0.21823   0.00000  Uiso   1.00
H72    H     0.65023   0.21747   0.42766   0.00000  Uiso   1.00
H73    H     0.39747   0.00284   0.24369   0.00000  Uiso   1.00
H74    H     0.64436   0.10381   0.47479   0.00000  Uiso   1.00
H75    H     0.44801   0.19878   0.06898   0.00000  Uiso   1.00
H76    H     0.35426   0.22829   0.02639   0.00000  Uiso   1.00
N77    N     0.47827   0.15223   0.23543   0.00000  Uiso   1.00
N78    N     0.52173   0.18110   0.26458   0.00000  Uiso   1.00
O79    O     0.63102   0.24629   0.25358   0.00000  Uiso   1.00
O80    O     0.39075   0.23704   0.24424   0.00000  Uiso   1.00
O81    O     0.64823   0.17358   0.33380   0.00000  Uiso   1.00
O82    O     0.40796   0.16433   0.32446   0.00000  Uiso   1.00
O83    O     0.60925   0.09629   0.25577   0.00000  Uiso   1.00
O84    O     0.36898   0.08704   0.24642   0.00000  Uiso   1.00
O85    O     0.59204   0.16901   0.17554   0.00000  Uiso   1.00
O86    O     0.35177   0.15976   0.16620   0.00000  Uiso   1.00
Zn87   Zn    0.60453   0.17284   0.25624   0.00000  Uiso   1.00
Zn88   Zn    0.39547   0.16049   0.24377   0.00000  Uiso   1.00
C89    C     0.68128   0.26486   0.24866   0.00000  Uiso   1.00
C90    C     0.72922   0.18633   0.41270   0.00000  Uiso   1.00
C91    C     0.68837   0.31934   0.24798   0.00000  Uiso   1.00
C92    C     0.70478   0.17449   0.35422   0.00000  Uiso   1.00
C93    C     0.97686   0.01449   0.25245   0.00000  Uiso   1.00
C94    C     0.98522   0.06862   0.25148   0.00000  Uiso   1.00
C95    C     0.96208   0.15645   0.14686   0.00000  Uiso   1.00
C96    C     0.94988   0.11645   0.00101   0.00000  Uiso   1.00
C97    C     0.93802   0.14032   0.09038   0.00000  Uiso   1.00
C98    C     0.69365   0.20587   0.44538   0.00000  Uiso   1.00
C99    C     0.71434   0.21145   0.00137   0.00000  Uiso   1.00
C100   C     0.80375   0.17094   0.49331   0.00000  Uiso   1.00
C101   C     0.76806   0.19298   0.02548   0.00000  Uiso   1.00
C102   C     0.78763   0.17580   0.43702   0.00000  Uiso   1.00
C103   C     0.85773   0.14910   0.01466   0.00000  Uiso   1.00
C104   C     0.89468   0.13443   0.47979   0.00000  Uiso   1.00
C105   C     0.87944   0.14416   0.42548   0.00000  Uiso   1.00
C106   C     0.83129   0.17163   0.40722   0.00000  Uiso   1.00
C107   C     0.87786   0.14330   0.06968   0.00000  Uiso   1.00
C108   C     0.97313   0.12235   0.05647   0.00000  Uiso   1.00
F109   F     0.69625   0.11152   0.07651   0.00000  Uiso   1.00
F110   F     0.92322   0.32777   0.25793   0.00000  Uiso   1.00
F111   F     0.84088   0.22881   0.27641   0.00000  Uiso   1.00
F112   F     0.91498   0.13310   0.39179   0.00000  Uiso   1.00
F113   F     0.83991   0.13915   0.10299   0.00000  Uiso   1.00
F114   F     0.83496   0.20459   0.36807   0.00000  Uiso   1.00
H115   H     0.82384   0.11907   0.21823   0.00000  Uiso   1.00
H116   H     0.98357   0.21747   0.42766   0.00000  Uiso   1.00
H117   H     0.73081   0.00284   0.24369   0.00000  Uiso   1.00
H118   H     0.97769   0.10381   0.47479   0.00000  Uiso   1.00
H119   H     0.78135   0.19878   0.06898   0.00000  Uiso   1.00
H120   H     0.68759   0.22829   0.02639   0.00000  Uiso   1.00
N121   N     0.81160   0.15223   0.23543   0.00000  Uiso   1.00
N122   N     0.85507   0.18110   0.26458   0.00000  Uiso   1.00
O123   O     0.96435   0.24629   0.25358   0.00000  Uiso   1.00
O124   O     0.72408   0.23704   0.24424   0.00000  Uiso   1.00
O125   O     0.98157   0.17358   0.33380   0.00000  Uiso   1.00
O126   O     0.74130   0.16433   0.32446   0.00000  Uiso   1.00
O127   O     0.94258   0.09629   0.25577   0.00000  Uiso   1.00
O128   O     0.70231   0.08704   0.24642   0.00000  Uiso   1.00
O129   O     0.92537   0.16901   0.17554   0.00000  Uiso   1.00
O130   O     0.68510   0.15976   0.16620   0.00000  Uiso   1.00
Zn131  Zn    0.93786   0.17284   0.25624   0.00000  Uiso   1.00
Zn132  Zn    0.72881   0.16049   0.24377   0.00000  Uiso   1.00
C133   C     0.01461   0.59819   0.24866   0.00000  Uiso   1.00
C134   C     0.06255   0.51966   0.41270   0.00000  Uiso   1.00
C135   C     0.02170   0.65267   0.24798   0.00000  Uiso   1.00
C136   C     0.03811   0.50782   0.35422   0.00000  Uiso   1.00
C137   C     0.31020   0.34782   0.25245   0.00000  Uiso   1.00
C138   C     0.31856   0.40195   0.25148   0.00000  Uiso   1.00
C139   C     0.29541   0.48979   0.14686   0.00000  Uiso   1.00
C140   C     0.28321   0.44978   0.00101   0.00000  Uiso   1.00
C141   C     0.27135   0.47365   0.09038   0.00000  Uiso   1.00
C142   C     0.02699   0.53920   0.44538   0.00000  Uiso   1.00
C143   C     0.04768   0.54478   0.00137   0.00000  Uiso   1.00
C144   C     0.13708   0.50427   0.49331   0.00000  Uiso   1.00
C145   C     0.10139   0.52631   0.02548   0.00000  Uiso   1.00
C146   C     0.12096   0.50913   0.43702   0.00000  Uiso   1.00
C147   C     0.19106   0.48243   0.01466   0.00000  Uiso   1.00
C148   C     0.22801   0.46776   0.47979   0.00000  Uiso   1.00
C149   C     0.21278   0.47749   0.42548   0.00000  Uiso   1.00
C150   C     0.16463   0.50496   0.40722   0.00000  Uiso   1.00
C151   C     0.21120   0.47664   0.06968   0.00000  Uiso   1.00
C152   C     0.30646   0.45569   0.05647   0.00000  Uiso   1.00
F153   F     0.02959   0.44485   0.07651   0.00000  Uiso   1.00
F154   F     0.25655   0.66110   0.25793   0.00000  Uiso   1.00
F155   F     0.17421   0.56214   0.27641   0.00000  Uiso   1.00
F156   F     0.24831   0.46644   0.39179   0.00000  Uiso   1.00
F157   F     0.17324   0.47248   0.10299   0.00000  Uiso   1.00
F158   F     0.16829   0.53793   0.36807   0.00000  Uiso   1.00
H159   H     0.15717   0.45241   0.21823   0.00000  Uiso   1.00
H160   H     0.31690   0.55081   0.42766   0.00000  Uiso   1.00
H161   H     0.06414   0.33617   0.24369   0.00000  Uiso   1.00
H162   H     0.31103   0.43714   0.47479   0.00000  Uiso   1.00
H163   H     0.11468   0.53211   0.06898   0.00000  Uiso   1.00
H164   H     0.02093   0.56162   0.02639   0.00000  Uiso   1.00
N165   N     0.14493   0.48556   0.23543   0.00000  Uiso   1.00
N166   N     0.18840   0.51444   0.26458   0.00000  Uiso   1.00
O167   O     0.29769   0.57963   0.25358   0.00000  Uiso   1.00
O168   O     0.05742   0.57038   0.24424   0.00000  Uiso   1.00
O169   O     0.31490   0.50691   0.33380   0.00000  Uiso   1.00
O170   O     0.07463   0.49766   0.32446   0.00000  Uiso   1.00
O171   O     0.27592   0.42962   0.25577   0.00000  Uiso   1.00
O172   O     0.03565   0.42037   0.24642   0.00000  Uiso   1.00
O173   O     0.25870   0.50234   0.17554   0.00000  Uiso   1.00
O174   O     0.01843   0.49309   0.16620   0.00000  Uiso   1.00
Zn175  Zn    0.27119   0.50618   0.25624   0.00000  Uiso   1.00
Zn176  Zn    0.06214   0.49382   0.24377   0.00000  Uiso   1.00
C177   C     0.34794   0.59819   0.24866   0.00000  Uiso   1.00
C178   C     0.39589   0.51966   0.41270   0.00000  Uiso   1.00
C179   C     0.35503   0.65267   0.24798   0.00000  Uiso   1.00
C180   C     0.37144   0.50782   0.35422   0.00000  Uiso   1.00
C181   C     0.64353   0.34782   0.25245   0.00000  Uiso   1.00
C182   C     0.65189   0.40195   0.25148   0.00000  Uiso   1.00
C183   C     0.62875   0.48979   0.14686   0.00000  Uiso   1.00
C184   C     0.61655   0.44978   0.00101   0.00000  Uiso   1.00
C185   C     0.60469   0.47365   0.09038   0.00000  Uiso   1.00
C186   C     0.36032   0.53920   0.44538   0.00000  Uiso   1.00
C187   C     0.38101   0.54478   0.00137   0.00000  Uiso   1.00
C188   C     0.47041   0.50427   0.49331   0.00000  Uiso   1.00
C189   C     0.43473   0.52631   0.02548   0.00000  Uiso   1.00
C190   C     0.45429   0.50913   0.43702   0.00000  Uiso   1.00
C191   C     0.52440   0.48243   0.01466   0.00000  Uiso   1.00
C192   C     0.56134   0.46776   0.47979   0.00000  Uiso   1.00
C193   C     0.54611   0.47749   0.42548   0.00000  Uiso   1.00
C194   C     0.49796   0.50496   0.40722   0.00000  Uiso   1.00
C195   C     0.54453   0.47664   0.06968   0.00000  Uiso   1.00
C196   C     0.63979   0.45569   0.05647   0.00000  Uiso   1.00
F197   F     0.36292   0.44485   0.07651   0.00000  Uiso   1.00
F198   F     0.58988   0.66110   0.25793   0.00000  Uiso   1.00
F199   F     0.50754   0.56214   0.27641   0.00000  Uiso   1.00
F200   F     0.58165   0.46644   0.39179   0.00000  Uiso   1.00
F201   F     0.50657   0.47248   0.10299   0.00000  Uiso   1.00
F202   F     0.50163   0.53793   0.36807   0.00000  Uiso   1.00
H203   H     0.49051   0.45241   0.21823   0.00000  Uiso   1.00
H204   H     0.65023   0.55081   0.42766   0.00000  Uiso   1.00
H205   H     0.39747   0.33617   0.24369   0.00000  Uiso   1.00
H206   H     0.64436   0.43714   0.47479   0.00000  Uiso   1.00
H207   H     0.44801   0.53211   0.06898   0.00000  Uiso   1.00
H208   H     0.35426   0.56162   0.02639   0.00000  Uiso   1.00
N209   N     0.47827   0.48556   0.23543   0.00000  Uiso   1.00
N210   N     0.52173   0.51444   0.26458   0.00000  Uiso   1.00
O211   O     0.63102   0.57963   0.25358   0.00000  Uiso   1.00
O212   O     0.39075   0.57038   0.24424   0.00000  Uiso   1.00
O213   O     0.64823   0.50691   0.33380   0.00000  Uiso   1.00
O214   O     0.40796   0.49766   0.32446   0.00000  Uiso   1.00
O215   O     0.60925   0.42962   0.25577   0.00000  Uiso   1.00
O216   O     0.36898   0.42037   0.24642   0.00000  Uiso   1.00
O217   O     0.59204   0.50234   0.17554   0.00000  Uiso   1.00
O218   O     0.35177   0.49309   0.16620   0.00000  Uiso   1.00
Zn219  Zn    0.60453   0.50618   0.25624   0.00000  Uiso   1.00
Zn220  Zn    0.39547   0.49382   0.24377   0.00000  Uiso   1.00
C221   C     0.68128   0.59819   0.24866   0.00000  Uiso   1.00
C222   C     0.72922   0.51966   0.41270   0.00000  Uiso   1.00
C223   C     0.68837   0.65267   0.24798   0.00000  Uiso   1.00
C224   C     0.70478   0.50782   0.35422   0.00000  Uiso   1.00
C225   C     0.97686   0.34782   0.25245   0.00000  Uiso   1.00
C226   C     0.98522   0.40195   0.25148   0.00000  Uiso   1.00
C227   C     0.96208   0.48979   0.14686   0.00000  Uiso   1.00
C228   C     0.94988   0.44978   0.00101   0.00000  Uiso   1.00
C229   C     0.93802   0.47365   0.09038   0.00000  Uiso   1.00
C230   C     0.69365   0.53920   0.44538   0.00000  Uiso   1.00
C231   C     0.71434   0.54478   0.00137   0.00000  Uiso   1.00
C232   C     0.80375   0.50427   0.49331   0.00000  Uiso   1.00
C233   C     0.76806   0.52631   0.02548   0.00000  Uiso   1.00
C234   C     0.78763   0.50913   0.43702   0.00000  Uiso   1.00
C235   C     0.85773   0.48243   0.01466   0.00000  Uiso   1.00
C236   C     0.89468   0.46776   0.47979   0.00000  Uiso   1.00
C237   C     0.87944   0.47749   0.42548   0.00000  Uiso   1.00
C238   C     0.83129   0.50496   0.40722   0.00000  Uiso   1.00
C239   C     0.87786   0.47664   0.06968   0.00000  Uiso   1.00
C240   C     0.97313   0.45569   0.05647   0.00000  Uiso   1.00
F241   F     0.69625   0.44485   0.07651   0.00000  Uiso   1.00
F242   F     0.92322   0.66110   0.25793   0.00000  Uiso   1.00
F243   F     0.84088   0.56214   0.27641   0.00000  Uiso   1.00
F244   F     0.91498   0.46644   0.39179   0.00000  Uiso   1.00
F245   F     0.83991   0.47248   0.10299   0.00000  Uiso   1.00
F246   F     0.83496   0.53793   0.36807   0.00000  Uiso   1.00
H247   H     0.82384   0.45241   0.21823   0.00000  Uiso   1.00
H248   H     0.98357   0.55081   0.42766   0.00000  Uiso   1.00
H249   H     0.73081   0.33617   0.24369   0.00000  Uiso   1.00
H250   H     0.97769   0.43714   0.47479   0.00000  Uiso   1.00
H251   H     0.78135   0.53211   0.06898   0.00000  Uiso   1.00
H252   H     0.68759   0.56162   0.02639   0.00000  Uiso   1.00
N253   N     0.81160   0.48556   0.23543   0.00000  Uiso   1.00
N254   N     0.85507   0.51444   0.26458   0.00000  Uiso   1.00
O255   O     0.96435   0.57963   0.25358   0.00000  Uiso   1.00
O256   O     0.72408   0.57038   0.24424   0.00000  Uiso   1.00
O257   O     0.98157   0.50691   0.33380   0.00000  Uiso   1.00
O258   O     0.74130   0.49766   0.32446   0.00000  Uiso   1.00
O259   O     0.94258   0.42962   0.25577   0.00000  Uiso   1.00
O260   O     0.70231   0.42037   0.24642   0.00000  Uiso   1.00
O261   O     0.92537   0.50234   0.17554   0.00000  Uiso   1.00
O262   O     0.68510   0.49309   0.16620   0.00000  Uiso   1.00
Zn263  Zn    0.93786   0.50618   0.25624   0.00000  Uiso   1.00
Zn264  Zn    0.72881   0.49382   0.24377   0.00000  Uiso   1.00
C265   C     0.01461   0.93152   0.24866   0.00000  Uiso   1.00
C266   C     0.06255   0.85299   0.41270   0.00000  Uiso   1.00
C267   C     0.02170   0.98601   0.24798   0.00000  Uiso   1.00
C268   C     0.03811   0.84115   0.35422   0.00000  Uiso   1.00
C269   C     0.31020   0.68116   0.25245   0.00000  Uiso   1.00
C270   C     0.31856   0.73528   0.25148   0.00000  Uiso   1.00
C271   C     0.29541   0.82312   0.14686   0.00000  Uiso   1.00
C272   C     0.28321   0.78312   0.00101   0.00000  Uiso   1.00
C273   C     0.27135   0.80698   0.09038   0.00000  Uiso   1.00
C274   C     0.02699   0.87254   0.44538   0.00000  Uiso   1.00
C275   C     0.04768   0.87812   0.00137   0.00000  Uiso   1.00
C276   C     0.13708   0.83760   0.49331   0.00000  Uiso   1.00
C277   C     0.10139   0.85964   0.02548   0.00000  Uiso   1.00
C278   C     0.12096   0.84247   0.43702   0.00000  Uiso   1.00
C279   C     0.19106   0.81577   0.01466   0.00000  Uiso   1.00
C280   C     0.22801   0.80109   0.47979   0.00000  Uiso   1.00
C281   C     0.21278   0.81083   0.42548   0.00000  Uiso   1.00
C282   C     0.16463   0.83830   0.40722   0.00000  Uiso   1.00
C283   C     0.21120   0.80997   0.06968   0.00000  Uiso   1.00
C284   C     0.30646   0.78902   0.05647   0.00000  Uiso   1.00
F285   F     0.02959   0.77818   0.07651   0.00000  Uiso   1.00
F286   F     0.25655   0.99444   0.25793   0.00000  Uiso   1.00
F287   F     0.17421   0.89547   0.27641   0.00000  Uiso   1.00
F288   F     0.24831   0.79977   0.39179   0.00000  Uiso   1.00
F289   F     0.17324   0.80582   0.10299   0.00000  Uiso   1.00
F290   F     0.16829   0.87126   0.36807   0.00000  Uiso   1.00
H291   H     0.15717   0.78574   0.21823   0.00000  Uiso   1.00
H292   H     0.31690   0.88414   0.42766   0.00000  Uiso   1.00
H293   H     0.06414   0.66950   0.24369   0.00000  Uiso   1.00
H294   H     0.31103   0.77047   0.47479   0.00000  Uiso   1.00
H295   H     0.11468   0.86545   0.06898   0.00000  Uiso   1.00
H296   H     0.02093   0.89495   0.02639   0.00000  Uiso   1.00
N297   N     0.14493   0.81890   0.23543   0.00000  Uiso   1.00
N298   N     0.18840   0.84777   0.26458   0.00000  Uiso   1.00
O299   O     0.29769   0.91296   0.25358   0.00000  Uiso   1.00
O300   O     0.05742   0.90371   0.24424   0.00000  Uiso   1.00
O301   O     0.31490   0.84024   0.33380   0.00000  Uiso   1.00
O302   O     0.07463   0.83099   0.32446   0.00000  Uiso   1.00
O303   O     0.27592   0.76296   0.25577   0.00000  Uiso   1.00
O304   O     0.03565   0.75371   0.24642   0.00000  Uiso   1.00
O305   O     0.25870   0.83567   0.17554   0.00000  Uiso   1.00
O306   O     0.01843   0.82642   0.16620   0.00000  Uiso   1.00
Zn307  Zn    0.27119   0.83951   0.25624   0.00000  Uiso   1.00
Zn308  Zn    0.06214   0.82716   0.24377   0.00000  Uiso   1.00
C309   C     0.34794   0.93152   0.24866   0.00000  Uiso   1.00
C310   C     0.39589   0.85299   0.41270   0.00000  Uiso   1.00
C311   C     0.35503   0.98601   0.24798   0.00000  Uiso   1.00
C312   C     0.37144   0.84115   0.35422   0.00000  Uiso   1.00
C313   C     0.64353   0.68116   0.25245   0.00000  Uiso   1.00
C314   C     0.65189   0.73528   0.25148   0.00000  Uiso   1.00
C315   C     0.62875   0.82312   0.14686   0.00000  Uiso   1.00
C316   C     0.61655   0.78312   0.00101   0.00000  Uiso   1.00
C317   C     0.60469   0.80698   0.09038   0.00000  Uiso   1.00
C318   C     0.36032   0.87254   0.44538   0.00000  Uiso   1.00
C319   C     0.38101   0.87812   0.00137   0.00000  Uiso   1.00
C320   C     0.47041   0.83760   0.49331   0.00000  Uiso   1.00
C321   C     0.43473   0.85964   0.02548   0.00000  Uiso   1.00
C322   C     0.45429   0.84247   0.43702   0.00000  Uiso   1.00
C323   C     0.52440   0.81577   0.01466   0.00000  Uiso   1.00
C324   C     0.56134   0.80109   0.47979   0.00000  Uiso   1.00
C325   C     0.54611   0.81083   0.42548   0.00000  Uiso   1.00
C326   C     0.49796   0.83830   0.40722   0.00000  Uiso   1.00
C327   C     0.54453   0.80997   0.06968   0.00000  Uiso   1.00
C328   C     0.63979   0.78902   0.05647   0.00000  Uiso   1.00
F329   F     0.36292   0.77818   0.07651   0.00000  Uiso   1.00
F330   F     0.58988   0.99444   0.25793   0.00000  Uiso   1.00
F331   F     0.50754   0.89547   0.27641   0.00000  Uiso   1.00
F332   F     0.58165   0.79977   0.39179   0.00000  Uiso   1.00
F333   F     0.50657   0.80582   0.10299   0.00000  Uiso   1.00
F334   F     0.50163   0.87126   0.36807   0.00000  Uiso   1.00
H335   H     0.49051   0.78574   0.21823   0.00000  Uiso   1.00
H336   H     0.65023   0.88414   0.42766   0.00000  Uiso   1.00
H337   H     0.39747   0.66950   0.24369   0.00000  Uiso   1.00
H338   H     0.64436   0.77047   0.47479   0.00000  Uiso   1.00
H339   H     0.44801   0.86545   0.06898   0.00000  Uiso   1.00
H340   H     0.35426   0.89495   0.02639   0.00000  Uiso   1.00
N341   N     0.47827   0.81890   0.23543   0.00000  Uiso   1.00
N342   N     0.52173   0.84777   0.26458   0.00000  Uiso   1.00
O343   O     0.63102   0.91296   0.25358   0.00000  Uiso   1.00
O344   O     0.39075   0.90371   0.24424   0.00000  Uiso   1.00
O345   O     0.64823   0.84024   0.33380   0.00000  Uiso   1.00
O346   O     0.40796   0.83099   0.32446   0.00000  Uiso   1.00
O347   O     0.60925   0.76296   0.25577   0.00000  Uiso   1.00
O348   O     0.36898   0.75371   0.24642   0.00000  Uiso   1.00
O349   O     0.59204   0.83567   0.17554   0.00000  Uiso   1.00
O350   O     0.35177   0.82642   0.16620   0.00000  Uiso   1.00
Zn351  Zn    0.60453   0.83951   0.25624   0.00000  Uiso   1.00
Zn352  Zn    0.39547   0.82716   0.24377   0.00000  Uiso   1.00
C353   C     0.68128   0.93152   0.24866   0.00000  Uiso   1.00
C354   C     0.72922   0.85299   0.41270   0.00000  Uiso   1.00
C355   C     0.68837   0.98601   0.24798   0.00000  Uiso   1.00
C356   C     0.70478   0.84115   0.35422   0.00000  Uiso   1.00
C357   C     0.97686   0.68116   0.25245   0.00000  Uiso   1.00
C358   C     0.98522   0.73528   0.25148   0.00000  Uiso   1.00
C359   C     0.96208   0.82312   0.14686   0.00000  Uiso   1.00
C360   C     0.94988   0.78312   0.00101   0.00000  Uiso   1.00
C361   C     0.93802   0.80698   0.09038   0.00000  Uiso   1.00
C362   C     0.69365   0.87254   0.44538   0.00000  Uiso   1.00
C363   C     0.71434   0.87812   0.00137   0.00000  Uiso   1.00
C364   C     0.80375   0.83760   0.49331   0.00000  Uiso   1.00
C365   C     0.76806   0.85964   0.02548   0.00000  Uiso   1.00
C366   C     0.78763   0.84247   0.43702   0.00000  Uiso   1.00
C367   C     0.85773   0.81577   0.01466   0.00000  Uiso   1.00
C368   C     0.89468   0.80109   0.47979   0.00000  Uiso   1.00
C369   C     0.87944   0.81083   0.42548   0.00000  Uiso   1.00
C370   C     0.83129   0.83830   0.40722   0.00000  Uiso   1.00
C371   C     0.87786   0.80997   0.06968   0.00000  Uiso   1.00
C372   C     0.97313   0.78902   0.05647   0.00000  Uiso   1.00
F373   F     0.69625   0.77818   0.07651   0.00000  Uiso   1.00
F374   F     0.92322   0.99444   0.25793   0.00000  Uiso   1.00
F375   F     0.84088   0.89547   0.27641   0.00000  Uiso   1.00
F376   F     0.91498   0.79977   0.39179   0.00000  Uiso   1.00
F377   F     0.83991   0.80582   0.10299   0.00000  Uiso   1.00
F378   F     0.83496   0.87126   0.36807   0.00000  Uiso   1.00
H379   H     0.82384   0.78574   0.21823   0.00000  Uiso   1.00
H380   H     0.98357   0.88414   0.42766   0.00000  Uiso   1.00
H381   H     0.73081   0.66950   0.24369   0.00000  Uiso   1.00
H382   H     0.97769   0.77047   0.47479   0.00000  Uiso   1.00
H383   H     0.78135   0.86545   0.06898   0.00000  Uiso   1.00
H384   H     0.68759   0.89495   0.02639   0.00000  Uiso   1.00
N385   N     0.81160   0.81890   0.23543   0.00000  Uiso   1.00
N386   N     0.85507   0.84777   0.26458   0.00000  Uiso   1.00
O387   O     0.96435   0.91296   0.25358   0.00000  Uiso   1.00
O388   O     0.72408   0.90371   0.24424   0.00000  Uiso   1.00
O389   O     0.98157   0.84024   0.33380   0.00000  Uiso   1.00
O390   O     0.74130   0.83099   0.32446   0.00000  Uiso   1.00
O391   O     0.94258   0.76296   0.25577   0.00000  Uiso   1.00
O392   O     0.70231   0.75371   0.24642   0.00000  Uiso   1.00
O393   O     0.92537   0.83567   0.17554   0.00000  Uiso   1.00
O394   O     0.68510   0.82642   0.16620   0.00000  Uiso   1.00
Zn395  Zn    0.93786   0.83951   0.25624   0.00000  Uiso   1.00
Zn396  Zn    0.72881   0.82716   0.24377   0.00000  Uiso   1.00
C397   C     0.01461   0.26486   0.74866   0.00000  Uiso   1.00
C398   C     0.06255   0.18633   0.91270   0.00000  Uiso   1.00
C399   C     0.02170   0.31934   0.74798   0.00000  Uiso   1.00
C400   C     0.03811   0.17449   0.85422   0.00000  Uiso   1.00
C401   C     0.31020   0.01449   0.75245   0.00000  Uiso   1.00
C402   C     0.31856   0.06862   0.75148   0.00000  Uiso   1.00
C403   C     0.29541   0.15645   0.64686   0.00000  Uiso   1.00
C404   C     0.28321   0.11645   0.50101   0.00000  Uiso   1.00
C405   C     0.27135   0.14032   0.59038   0.00000  Uiso   1.00
C406   C     0.02699   0.20587   0.94538   0.00000  Uiso   1.00
C407   C     0.04768   0.21145   0.50137   0.00000  Uiso   1.00
C408   C     0.13708   0.17094   0.99331   0.00000  Uiso   1.00
C409   C     0.10139   0.19298   0.52548   0.00000  Uiso   1.00
C410   C     0.12096   0.17580   0.93702   0.00000  Uiso   1.00
C411   C     0.19106   0.14910   0.51466   0.00000  Uiso   1.00
C412   C     0.22801   0.13443   0.97979   0.00000  Uiso   1.00
C413   C     0.21278   0.14416   0.92548   0.00000  Uiso   1.00
C414   C     0.16463   0.17163   0.90722   0.00000  Uiso   1.00
C415   C     0.21120   0.14330   0.56968   0.00000  Uiso   1.00
C416   C     0.30646   0.12235   0.55647   0.00000  Uiso   1.00
F417   F     0.02959   0.11152   0.57651   0.00000  Uiso   1.00
F418   F     0.25655   0.32777   0.75793   0.00000  Uiso   1.00
F419   F     0.17421   0.22881   0.77641   0.00000  Uiso   1.00
F420   F     0.24831   0.13310   0.89179   0.00000  Uiso   1.00
F421   F     0.17324   0.13915   0.60299   0.00000  Uiso   1.00
F422   F     0.16829   0.20459   0.86807   0.00000  Uiso   1.00
H423   H     0.15717   0.11907   0.71823   0.00000  Uiso   1.00
H424   H     0.31690   0.21747   0.92766   0.00000  Uiso   1.00
H425   H     0.06414   0.00284   0.74369   0.00000  Uiso   1.00
H426   H     0.31103   0.10381   0.97479   0.00000  Uiso   1.00
H427   H     0.11468   0.19878   0.56898   0.00000  Uiso   1.00
H428   H     0.02093   0.22829   0.52639   0.00000  Uiso   1.00
N429   N     0.14493   0.15223   0.73543   0.00000  Uiso   1.00
N430   N     0.18840   0.18110   0.76458   0.00000  Uiso   1.00
O431   O     0.29769   0.24629   0.75358   0.00000  Uiso   1.00
O432   O     0.05742   0.23704   0.74424   0.00000  Uiso   1.00
O433   O     0.31490   0.17358   0.83380   0.00000  Uiso   1.00
O434   O     0.07463   0.16433   0.82446   0.00000  Uiso   1.00
O435   O     0.27592   0.09629   0.75577   0.00000  Uiso   1.00
O436   O     0.03565   0.08704   0.74642   0.00000  Uiso   1.00
O437   O     0.25870   0.16901   0.67554   0.00000  Uiso   1.00
O438   O     0.01843   0.15976   0.66620   0.00000  Uiso   1.00
Zn439  Zn    0.27119   0.17284   0.75624   0.00000  Uiso   1.00
Zn440  Zn    0.06214   0.16049   0.74377   0.00000  Uiso   1.00
C441   C     0.34794   0.26486   0.74866   0.00000  Uiso   1.00
C442   C     0.39589   0.18633   0.91270   0.00000  Uiso   1.00
C443   C     0.35503   0.31934   0.74798   0.00000  Uiso   1.00
C444   C     0.37144   0.17449   0.85422   0.00000  Uiso   1.00
C445   C     0.64353   0.01449   0.75245   0.00000  Uiso   1.00
C446   C     0.65189   0.06862   0.75148   0.00000  Uiso   1.00
C447   C     0.62875   0.15645   0.64686   0.00000  Uiso   1.00
C448   C     0.61655   0.11645   0.50101   0.00000  Uiso   1.00
C449   C     0.60469   0.14032   0.59038   0.00000  Uiso   1.00
C450   C     0.36032   0.20587   0.94538   0.00000  Uiso   1.00
C451   C     0.38101   0.21145   0.50137   0.00000  Uiso   1.00
C452   C     0.47041   0.17094   0.99331   0.00000  Uiso   1.00
C453   C     0.43473   0.19298   0.52548   0.00000  Uiso   1.00
C454   C     0.45429   0.17580   0.93702   0.00000  Uiso   1.00
C455   C     0.52440   0.14910   0.51466   0.00000  Uiso   1.00
C456   C     0.56134   0.13443   0.97979   0.00000  Uiso   1.00
C457   C     0.54611   0.14416   0.92548   0.00000  Uiso   1.00
C458   C     0.49796   0.17163   0.90722   0.00000  Uiso   1.00
C459   C     0.54453   0.14330   0.56968   0.00000  Uiso   1.00
C460   C     0.63979   0.12235   0.55647   0.00000  Uiso   1.00
F461   F     0.36292   0.11152   0.57651   0.00000  Uiso   1.00
F462   F     0.58988   0.32777   0.75793   0.00000  Uiso   1.00
F463   F     0.50754   0.22881   0.77641   0.00000  Uiso   1.00
F464   F     0.58165   0.13310   0.89179   0.00000  Uiso   1.00
F465   F     0.50657   0.13915   0.60299   0.00000  Uiso   1.00
F466   F     0.50163   0.20459   0.86807   0.00000  Uiso   1.00
H467   H     0.49051   0.11907   0.71823   0.00000  Uiso   1.00
H468   H     0.65023   0.21747   0.92766   0.00000  Uiso   1.00
H469   H     0.39747   0.00284   0.74369   0.00000  Uiso   1.00
H470   H     0.64436   0.10381   0.97479   0.00000  Uiso   1.00
H471   H     0.44801   0.19878   0.56898   0.00000  Uiso   1.00
H472   H     0.35426   0.22829   0.52639   0.00000  Uiso   1.00
N473   N     0.47827   0.15223   0.73543   0.00000  Uiso   1.00
N474   N     0.52173   0.18110   0.76458   0.00000  Uiso   1.00
O475   O     0.63102   0.24629   0.75358   0.00000  Uiso   1.00
O476   O     0.39075   0.23704   0.74424   0.00000  Uiso   1.00
O477   O     0.64823   0.17358   0.83380   0.00000  Uiso   1.00
O478   O     0.40796   0.16433   0.82446   0.00000  Uiso   1.00
O479   O     0.60925   0.09629   0.75577   0.00000  Uiso   1.00
O480   O     0.36898   0.08704   0.74642   0.00000  Uiso   1.00
O481   O     0.59204   0.16901   0.67554   0.00000  Uiso   1.00
O482   O     0.35177   0.15976   0.66620   0.00000  Uiso   1.00
Zn483  Zn    0.60453   0.17284   0.75624   0.00000  Uiso   1.00
Zn484  Zn    0.39547   0.16049   0.74377   0.00000  Uiso   1.00
C485   C     0.68128   0.26486   0.74866   0.00000  Uiso   1.00
C486   C     0.72922   0.18633   0.91270   0.00000  Uiso   1.00
C487   C     0.68837   0.31934   0.74798   0.00000  Uiso   1.00
C488   C     0.70478   0.17449   0.85422   0.00000  Uiso   1.00
C489   C     0.97686   0.01449   0.75245   0.00000  Uiso   1.00
C490   C     0.98522   0.06862   0.75148   0.00000  Uiso   1.00
C491   C     0.96208   0.15645   0.64686   0.00000  Uiso   1.00
C492   C     0.94988   0.11645   0.50101   0.00000  Uiso   1.00
C493   C     0.93802   0.14032   0.59038   0.00000  Uiso   1.00
C494   C     0.69365   0.20587   0.94538   0.00000  Uiso   1.00
C495   C     0.71434   0.21145   0.50137   0.00000  Uiso   1.00
C496   C     0.80375   0.17094   0.99331   0.00000  Uiso   1.00
C497   C     0.76806   0.19298   0.52548   0.00000  Uiso   1.00
C498   C     0.78763   0.17580   0.93702   0.00000  Uiso   1.00
C499   C     0.85773   0.14910   0.51466   0.00000  Uiso   1.00
C500   C     0.89468   0.13443   0.97979   0.00000  Uiso   1.00
C501   C     0.87944   0.14416   0.92548   0.00000  Uiso   1.00
C502   C     0.83129   0.17163   0.90722   0.00000  Uiso   1.00
C503   C     0.87786   0.14330   0.56968   0.00000  Uiso   1.00
C504   C     0.97313   0.12235   0.55647   0.00000  Uiso   1.00
F505   F     0.69625   0.11152   0.57651   0.00000  Uiso   1.00
F506   F     0.92322   0.32777   0.75793   0.00000  Uiso   1.00
F507   F     0.84088   0.22881   0.77641   0.00000  Uiso   1.00
F508   F     0.91498   0.13310   0.89179   0.00000  Uiso   1.00
F509   F     0.83991   0.13915   0.60299   0.00000  Uiso   1.00
F510   F     0.83496   0.20459   0.86807   0.00000  Uiso   1.00
H511   H     0.82384   0.11907   0.71823   0.00000  Uiso   1.00
H512   H     0.98357   0.21747   0.92766   0.00000  Uiso   1.00
H513   H     0.73081   0.00284   0.74369   0.00000  Uiso   1.00
H514   H     0.97769   0.10381   0.97479   0.00000  Uiso   1.00
H515   H     0.78135   0.19878   0.56898   0.00000  Uiso   1.00
H516   H     0.68759   0.22829   0.52639   0.00000  Uiso   1.00
N517   N     0.81160   0.15223   0.73543   0.00000  Uiso   1.00
N518   N     0.85507   0.18110   0.76458   0.00000  Uiso   1.00
O519   O     0.96435   0.24629   0.75358   0.00000  Uiso   1.00
O520   O     0.72408   0.23704   0.74424   0.00000  Uiso   1.00
O521   O     0.98157   0.17358   0.83380   0.00000  Uiso   1.00
O522   O     0.74130   0.16433   0.82446   0.00000  Uiso   1.00
O523   O     0.94258   0.09629   0.75577   0.00000  Uiso   1.00
O524   O     0.70231   0.08704   0.74642   0.00000  Uiso   1.00
O525   O     0.92537   0.16901   0.67554   0.00000  Uiso   1.00
O526   O     0.68510   0.15976   0.66620   0.00000  Uiso   1.00
Zn527  Zn    0.93786   0.17284   0.75624   0.00000  Uiso   1.00
Zn528  Zn    0.72881   0.16049   0.74377   0.00000  Uiso   1.00
C529   C     0.01461   0.59819   0.74866   0.00000  Uiso   1.00
C530   C     0.06255   0.51966   0.91270   0.00000  Uiso   1.00
C531   C     0.02170   0.65267   0.74798   0.00000  Uiso   1.00
C532   C     0.03811   0.50782   0.85422   0.00000  Uiso   1.00
C533   C     0.31020   0.34782   0.75245   0.00000  Uiso   1.00
C534   C     0.31856   0.40195   0.75148   0.00000  Uiso   1.00
C535   C     0.29541   0.48979   0.64686   0.00000  Uiso   1.00
C536   C     0.28321   0.44978   0.50101   0.00000  Uiso   1.00
C537   C     0.27135   0.47365   0.59038   0.00000  Uiso   1.00
C538   C     0.02699   0.53920   0.94538   0.00000  Uiso   1.00
C539   C     0.04768   0.54478   0.50137   0.00000  Uiso   1.00
C540   C     0.13708   0.50427   0.99331   0.00000  Uiso   1.00
C541   C     0.10139   0.52631   0.52548   0.00000  Uiso   1.00
C542   C     0.12096   0.50913   0.93702   0.00000  Uiso   1.00
C543   C     0.19106   0.48243   0.51466   0.00000  Uiso   1.00
C544   C     0.22801   0.46776   0.97979   0.00000  Uiso   1.00
C545   C     0.21278   0.47749   0.92548   0.00000  Uiso   1.00
C546   C     0.16463   0.50496   0.90722   0.00000  Uiso   1.00
C547   C     0.21120   0.47664   0.56968   0.00000  Uiso   1.00
C548   C     0.30646   0.45569   0.55647   0.00000  Uiso   1.00
F549   F     0.02959   0.44485   0.57651   0.00000  Uiso   1.00
F550   F     0.25655   0.66110   0.75793   0.00000  Uiso   1.00
F551   F     0.17421   0.56214   0.77641   0.00000  Uiso   1.00
F552   F     0.24831   0.46644   0.89179   0.00000  Uiso   1.00
F553   F     0.17324   0.47248   0.60299   0.00000  Uiso   1.00
F554   F     0.16829   0.53793   0.86807   0.00000  Uiso   1.00
H555   H     0.15717   0.45241   0.71823   0.00000  Uiso   1.00
H556   H     0.31690   0.55081   0.92766   0.00000  Uiso   1.00
H557   H     0.06414   0.33617   0.74369   0.00000  Uiso   1.00
H558   H     0.31103   0.43714   0.97479   0.00000  Uiso   1.00
H559   H     0.11468   0.53211   0.56898   0.00000  Uiso   1.00
H560   H     0.02093   0.56162   0.52639   0.00000  Uiso   1.00
N561   N     0.14493   0.48556   0.73543   0.00000  Uiso   1.00
N562   N     0.18840   0.51444   0.76458   0.00000  Uiso   1.00
O563   O     0.29769   0.57963   0.75358   0.00000  Uiso   1.00
O564   O     0.05742   0.57038   0.74424   0.00000  Uiso   1.00
O565   O     0.31490   0.50691   0.83380   0.00000  Uiso   1.00
O566   O     0.07463   0.49766   0.82446   0.00000  Uiso   1.00
O567   O     0.27592   0.42962   0.75577   0.00000  Uiso   1.00
O568   O     0.03565   0.42037   0.74642   0.00000  Uiso   1.00
O569   O     0.25870   0.50234   0.67554   0.00000  Uiso   1.00
O570   O     0.01843   0.49309   0.66620   0.00000  Uiso   1.00
Zn571  Zn    0.27119   0.50618   0.75624   0.00000  Uiso   1.00
Zn572  Zn    0.06214   0.49382   0.74377   0.00000  Uiso   1.00
C573   C     0.34794   0.59819   0.74866   0.00000  Uiso   1.00
C574   C     0.39589   0.51966   0.91270   0.00000  Uiso   1.00
C575   C     0.35503   0.65267   0.74798   0.00000  Uiso   1.00
C576   C     0.37144   0.50782   0.85422   0.00000  Uiso   1.00
C577   C     0.64353   0.34782   0.75245   0.00000  Uiso   1.00
C578   C     0.65189   0.40195   0.75148   0.00000  Uiso   1.00
C579   C     0.62875   0.48979   0.64686   0.00000  Uiso   1.00
C580   C     0.61655   0.44978   0.50101   0.00000  Uiso   1.00
C581   C     0.60469   0.47365   0.59038   0.00000  Uiso   1.00
C582   C     0.36032   0.53920   0.94538   0.00000  Uiso   1.00
C583   C     0.38101   0.54478   0.50137   0.00000  Uiso   1.00
C584   C     0.47041   0.50427   0.99331   0.00000  Uiso   1.00
C585   C     0.43473   0.52631   0.52548   0.00000  Uiso   1.00
C586   C     0.45429   0.50913   0.93702   0.00000  Uiso   1.00
C587   C     0.52440   0.48243   0.51466   0.00000  Uiso   1.00
C588   C     0.56134   0.46776   0.97979   0.00000  Uiso   1.00
C589   C     0.54611   0.47749   0.92548   0.00000  Uiso   1.00
C590   C     0.49796   0.50496   0.90722   0.00000  Uiso   1.00
C591   C     0.54453   0.47664   0.56968   0.00000  Uiso   1.00
C592   C     0.63979   0.45569   0.55647   0.00000  Uiso   1.00
F593   F     0.36292   0.44485   0.57651   0.00000  Uiso   1.00
F594   F     0.58988   0.66110   0.75793   0.00000  Uiso   1.00
F595   F     0.50754   0.56214   0.77641   0.00000  Uiso   1.00
F596   F     0.58165   0.46644   0.89179   0.00000  Uiso   1.00
F597   F     0.50657   0.47248   0.60299   0.00000  Uiso   1.00
F598   F     0.50163   0.53793   0.86807   0.00000  Uiso   1.00
H599   H     0.49051   0.45241   0.71823   0.00000  Uiso   1.00
H600   H     0.65023   0.55081   0.92766   0.00000  Uiso   1.00
H601   H     0.39747   0.33617   0.74369   0.00000  Uiso   1.00
H602   H     0.64436   0.43714   0.97479   0.00000  Uiso   1.00
H603   H     0.44801   0.53211   0.56898   0.00000  Uiso   1.00
H604   H     0.35426   0.56162   0.52639   0.00000  Uiso   1.00
N605   N     0.47827   0.48556   0.73543   0.00000  Uiso   1.00
N606   N     0.52173   0.51444   0.76458   0.00000  Uiso   1.00
O607   O     0.63102   0.57963   0.75358   0.00000  Uiso   1.00
O608   O     0.39075   0.57038   0.74424   0.00000  Uiso   1.00
O609   O     0.64823   0.50691   0.83380   0.00000  Uiso   1.00
O610   O     0.40796   0.49766   0.82446   0.00000  Uiso   1.00
O611   O     0.60925   0.42962   0.75577   0.00000  Uiso   1.00
O612   O     0.36898   0.42037   0.74642   0.00000  Uiso   1.00
O613   O     0.59204   0.50234   0.67554   0.00000  Uiso   1.00
O614   O     0.35177   0.49309   0.66620   0.00000  Uiso   1.00
Zn615  Zn    0.60453   0.50618   0.75624   0.00000  Uiso   1.00
Zn616  Zn    0.39547   0.49382   0.74377   0.00000  Uiso   1.00
C617   C     0.68128   0.59819   0.74866   0.00000  Uiso   1.00
C618   C     0.72922   0.51966   0.91270   0.00000  Uiso   1.00
C619   C     0.68837   0.65267   0.74798   0.00000  Uiso   1.00
C620   C     0.70478   0.50782   0.85422   0.00000  Uiso   1.00
C621   C     0.97686   0.34782   0.75245   0.00000  Uiso   1.00
C622   C     0.98522   0.40195   0.75148   0.00000  Uiso   1.00
C623   C     0.96208   0.48979   0.64686   0.00000  Uiso   1.00
C624   C     0.94988   0.44978   0.50101   0.00000  Uiso   1.00
C625   C     0.93802   0.47365   0.59038   0.00000  Uiso   1.00
C626   C     0.69365   0.53920   0.94538   0.00000  Uiso   1.00
C627   C     0.71434   0.54478   0.50137   0.00000  Uiso   1.00
C628   C     0.80375   0.50427   0.99331   0.00000  Uiso   1.00
C629   C     0.76806   0.52631   0.52548   0.00000  Uiso   1.00
C630   C     0.78763   0.50913   0.93702   0.00000  Uiso   1.00
C631   C     0.85773   0.48243   0.51466   0.00000  Uiso   1.00
C632   C     0.89468   0.46776   0.97979   0.00000  Uiso   1.00
C633   C     0.87944   0.47749   0.92548   0.00000  Uiso   1.00
C634   C     0.83129   0.50496   0.90722   0.00000  Uiso   1.00
C635   C     0.87786   0.47664   0.56968   0.00000  Uiso   1.00
C636   C     0.97313   0.45569   0.55647   0.00000  Uiso   1.00
F637   F     0.69625   0.44485   0.57651   0.00000  Uiso   1.00
F638   F     0.92322   0.66110   0.75793   0.00000  Uiso   1.00
F639   F     0.84088   0.56214   0.77641   0.00000  Uiso   1.00
F640   F     0.91498   0.46644   0.89179   0.00000  Uiso   1.00
F641   F     0.83991   0.47248   0.60299   0.00000  Uiso   1.00
F642   F     0.83496   0.53793   0.86807   0.00000  Uiso   1.00
H643   H     0.82384   0.45241   0.71823   0.00000  Uiso   1.00
H644   H     0.98357   0.55081   0.92766   0.00000  Uiso   1.00
H645   H     0.73081   0.33617   0.74369   0.00000  Uiso   1.00
H646   H     0.97769   0.43714   0.97479   0.00000  Uiso   1.00
H647   H     0.78135   0.53211   0.56898   0.00000  Uiso   1.00
H648   H     0.68759   0.56162   0.52639   0.00000  Uiso   1.00
N649   N     0.81160   0.48556   0.73543   0.00000  Uiso   1.00
N650   N     0.85507   0.51444   0.76458   0.00000  Uiso   1.00
O651   O     0.96435   0.57963   0.75358   0.00000  Uiso   1.00
O652   O     0.72408   0.57038   0.74424   0.00000  Uiso   1.00
O653   O     0.98157   0.50691   0.83380   0.00000  Uiso   1.00
O654   O     0.74130   0.49766   0.82446   0.00000  Uiso   1.00
O655   O     0.94258   0.42962   0.75577   0.00000  Uiso   1.00
O656   O     0.70231   0.42037   0.74642   0.00000  Uiso   1.00
O657   O     0.92537   0.50234   0.67554   0.00000  Uiso   1.00
O658   O     0.68510   0.49309   0.66620   0.00000  Uiso   1.00
Zn659  Zn    0.93786   0.50618   0.75624   0.00000  Uiso   1.00
Zn660  Zn    0.72881   0.49382   0.74377   0.00000  Uiso   1.00
C661   C     0.01461   0.93152   0.74866   0.00000  Uiso   1.00
C662   C     0.06255   0.85299   0.91270   0.00000  Uiso   1.00
C663   C     0.02170   0.98601   0.74798   0.00000  Uiso   1.00
C664   C     0.03811   0.84115   0.85422   0.00000  Uiso   1.00
C665   C     0.31020   0.68116   0.75245   0.00000  Uiso   1.00
C666   C     0.31856   0.73528   0.75148   0.00000  Uiso   1.00
C667   C     0.29541   0.82312   0.64686   0.00000  Uiso   1.00
C668   C     0.28321   0.78312   0.50101   0.00000  Uiso   1.00
C669   C     0.27135   0.80698   0.59038   0.00000  Uiso   1.00
C670   C     0.02699   0.87254   0.94538   0.00000  Uiso   1.00
C671   C     0.04768   0.87812   0.50137   0.00000  Uiso   1.00
C672   C     0.13708   0.83760   0.99331   0.00000  Uiso   1.00
C673   C     0.10139   0.85964   0.52548   0.00000  Uiso   1.00
C674   C     0.12096   0.84247   0.93702   0.00000  Uiso   1.00
C675   C     0.19106   0.81577   0.51466   0.00000  Uiso   1.00
C676   C     0.22801   0.80109   0.97979   0.00000  Uiso   1.00
C677   C     0.21278   0.81083   0.92548   0.00000  Uiso   1.00
C678   C     0.16463   0.83830   0.90722   0.00000  Uiso   1.00
C679   C     0.21120   0.80997   0.56968   0.00000  Uiso   1.00
C680   C     0.30646   0.78902   0.55647   0.00000  Uiso   1.00
F681   F     0.02959   0.77818   0.57651   0.00000  Uiso   1.00
F682   F     0.25655   0.99444   0.75793   0.00000  Uiso   1.00
F683   F     0.17421   0.89547   0.77641   0.00000  Uiso   1.00
F684   F     0.24831   0.79977   0.89179   0.00000  Uiso   1.00
F685   F     0.17324   0.80582   0.60299   0.00000  Uiso   1.00
F686   F     0.16829   0.87126   0.86807   0.00000  Uiso   1.00
H687   H     0.15717   0.78574   0.71823   0.00000  Uiso   1.00
H688   H     0.31690   0.88414   0.92766   0.00000  Uiso   1.00
H689   H     0.06414   0.66950   0.74369   0.00000  Uiso   1.00
H690   H     0.31103   0.77047   0.97479   0.00000  Uiso   1.00
H691   H     0.11468   0.86545   0.56898   0.00000  Uiso   1.00
H692   H     0.02093   0.89495   0.52639   0.00000  Uiso   1.00
N693   N     0.14493   0.81890   0.73543   0.00000  Uiso   1.00
N694   N     0.18840   0.84777   0.76458   0.00000  Uiso   1.00
O695   O     0.29769   0.91296   0.75358   0.00000  Uiso   1.00
O696   O     0.05742   0.90371   0.74424   0.00000  Uiso   1.00
O697   O     0.31490   0.84024   0.83380   0.00000  Uiso   1.00
O698   O     0.07463   0.83099   0.82446   0.00000  Uiso   1.00
O699   O     0.27592   0.76296   0.75577   0.00000  Uiso   1.00
O700   O     0.03565   0.75371   0.74642   0.00000  Uiso   1.00
O701   O     0.25870   0.83567   0.67554   0.00000  Uiso   1.00
O702   O     0.01843   0.82642   0.66620   0.00000  Uiso   1.00
Zn703  Zn    0.27119   0.83951   0.75624   0.00000  Uiso   1.00
Zn704  Zn    0.06214   0.82716   0.74377   0.00000  Uiso   1.00
C705   C     0.34794   0.93152   0.74866   0.00000  Uiso   1.00
C706   C     0.39589   0.85299   0.91270   0.00000  Uiso   1.00
C707   C     0.35503   0.98601   0.74798   0.00000  Uiso   1.00
C708   C     0.37144   0.84115   0.85422   0.00000  Uiso   1.00
C709   C     0.64353   0.68116   0.75245   0.00000  Uiso   1.00
C710   C     0.65189   0.73528   0.75148   0.00000  Uiso   1.00
C711   C     0.62875   0.82312   0.64686   0.00000  Uiso   1.00
C712   C     0.61655   0.78312   0.50101   0.00000  Uiso   1.00
C713   C     0.60469   0.80698   0.59038   0.00000  Uiso   1.00
C714   C     0.36032   0.87254   0.94538   0.00000  Uiso   1.00
C715   C     0.38101   0.87812   0.50137   0.00000  Uiso   1.00
C716   C     0.47041   0.83760   0.99331   0.00000  Uiso   1.00
C717   C     0.43473   0.85964   0.52548   0.00000  Uiso   1.00
C718   C     0.45429   0.84247   0.93702   0.00000  Uiso   1.00
C719   C     0.52440   0.81577   0.51466   0.00000  Uiso   1.00
C720   C     0.56134   0.80109   0.97979   0.00000  Uiso   1.00
C721   C     0.54611   0.81083   0.92548   0.00000  Uiso   1.00
C722   C     0.49796   0.83830   0.90722   0.00000  Uiso   1.00
C723   C     0.54453   0.80997   0.56968   0.00000  Uiso   1.00
C724   C     0.63979   0.78902   0.55647   0.00000  Uiso   1.00
F725   F     0.36292   0.77818   0.57651   0.00000  Uiso   1.00
F726   F     0.58988   0.99444   0.75793   0.00000  Uiso   1.00
F727   F     0.50754   0.89547   0.77641   0.00000  Uiso   1.00
F728   F     0.58165   0.79977   0.89179   0.00000  Uiso   1.00
F729   F     0.50657   0.80582   0.60299   0.00000  Uiso   1.00
F730   F     0.50163   0.87126   0.86807   0.00000  Uiso   1.00
H731   H     0.49051   0.78574   0.71823   0.00000  Uiso   1.00
H732   H     0.65023   0.88414   0.92766   0.00000  Uiso   1.00
H733   H     0.39747   0.66950   0.74369   0.00000  Uiso   1.00
H734   H     0.64436   0.77047   0.97479   0.00000  Uiso   1.00
H735   H     0.44801   0.86545   0.56898   0.00000  Uiso   1.00
H736   H     0.35426   0.89495   0.52639   0.00000  Uiso   1.00
N737   N     0.47827   0.81890   0.73543   0.00000  Uiso   1.00
N738   N     0.52173   0.84777   0.76458   0.00000  Uiso   1.00
O739   O     0.63102   0.91296   0.75358   0.00000  Uiso   1.00
O740   O     0.39075   0.90371   0.74424   0.00000  Uiso   1.00
O741   O     0.64823   0.84024   0.83380   0.00000  Uiso   1.00
O742   O     0.40796   0.83099   0.82446   0.00000  Uiso   1.00
O743   O     0.60925   0.76296   0.75577   0.00000  Uiso   1.00
O744   O     0.36898   0.75371   0.74642   0.00000  Uiso   1.00
O745   O     0.59204   0.83567   0.67554   0.00000  Uiso   1.00
O746   O     0.35177   0.82642   0.66620   0.00000  Uiso   1.00
Zn747  Zn    0.60453   0.83951   0.75624   0.00000  Uiso   1.00
Zn748  Zn    0.39547   0.82716   0.74377   0.00000  Uiso   1.00
C749   C     0.68128   0.93152   0.74866   0.00000  Uiso   1.00
C750   C     0.72922   0.85299   0.91270   0.00000  Uiso   1.00
C751   C     0.68837   0.98601   0.74798   0.00000  Uiso   1.00
C752   C     0.70478   0.84115   0.85422   0.00000  Uiso   1.00
C753   C     0.97686   0.68116   0.75245   0.00000  Uiso   1.00
C754   C     0.98522   0.73528   0.75148   0.00000  Uiso   1.00
C755   C     0.96208   0.82312   0.64686   0.00000  Uiso   1.00
C756   C     0.94988   0.78312   0.50101   0.00000  Uiso   1.00
C757   C     0.93802   0.80698   0.59038   0.00000  Uiso   1.00
C758   C     0.69365   0.87254   0.94538   0.00000  Uiso   1.00
C759   C     0.71434   0.87812   0.50137   0.00000  Uiso   1.00
C760   C     0.80375   0.83760   0.99331   0.00000  Uiso   1.00
C761   C     0.76806   0.85964   0.52548   0.00000  Uiso   1.00
C762   C     0.78763   0.84247   0.93702   0.00000  Uiso   1.00
C763   C     0.85773   0.81577   0.51466   0.00000  Uiso   1.00
C764   C     0.89468   0.80109   0.97979   0.00000  Uiso   1.00
C765   C     0.87944   0.81083   0.92548   0.00000  Uiso   1.00
C766   C     0.83129   0.83830   0.90722   0.00000  Uiso   1.00
C767   C     0.87786   0.80997   0.56968   0.00000  Uiso   1.00
C768   C     0.97313   0.78902   0.55647   0.00000  Uiso   1.00
F769   F     0.69625   0.77818   0.57651   0.00000  Uiso   1.00
F770   F     0.92322   0.99444   0.75793   0.00000  Uiso   1.00
F771   F     0.84088   0.89547   0.77641   0.00000  Uiso   1.00
F772   F     0.91498   0.79977   0.89179   0.00000  Uiso   1.00
F773   F     0.83991   0.80582   0.60299   0.00000  Uiso   1.00
F774   F     0.83496   0.87126   0.86807   0.00000  Uiso   1.00
H775   H     0.82384   0.78574   0.71823   0.00000  Uiso   1.00
H776   H     0.98357   0.88414   0.92766   0.00000  Uiso   1.00
H777   H     0.73081   0.66950   0.74369   0.00000  Uiso   1.00
H778   H     0.97769   0.77047   0.97479   0.00000  Uiso   1.00
H779   H     0.78135   0.86545   0.56898   0.00000  Uiso   1.00
H780   H     0.68759   0.89495   0.52639   0.00000  Uiso   1.00
N781   N     0.81160   0.81890   0.73543   0.00000  Uiso   1.00
N782   N     0.85507   0.84777   0.76458   0.00000  Uiso   1.00
O783   O     0.96435   0.91296   0.75358   0.00000  Uiso   1.00
O784   O     0.72408   0.90371   0.74424   0.00000  Uiso   1.00
O785   O     0.98157   0.84024   0.83380   0.00000  Uiso   1.00
O786   O     0.74130   0.83099   0.82446   0.00000  Uiso   1.00
O787   O     0.94258   0.76296   0.75577   0.00000  Uiso   1.00
O788   O     0.70231   0.75371   0.74642   0.00000  Uiso   1.00
O789   O     0.92537   0.83567   0.67554   0.00000  Uiso   1.00
O790   O     0.68510   0.82642   0.66620   0.00000  Uiso   1.00
Zn791  Zn    0.93786   0.83951   0.75624   0.00000  Uiso   1.00
Zn792  Zn    0.72881   0.82716   0.74377   0.00000  Uiso   1.00
loop_
_geom_bond_atom_site_label_1
_geom_bond_atom_site_label_2
_geom_bond_distance
_geom_bond_site_symmetry_2
_ccdc_geom_bond_type
C1     O36     1.293   .     A
C1     C3      1.407   .     S
C1     O123    1.275   1_455 S
C2     C4      1.473   .     S
C2     C14     1.417   .     A
C2     C10     1.400   .     A
C3     C225    1.343   1_455 S
C3     H161    1.088   .     S
C4     O38     1.292   .     A
C4     O125    1.306   1_455 S
C5     C6      1.400   .     S
C5     C311    1.343   1_545 S
C5     F286    1.365   1_545 S
C6     O39     1.286   .     A
C6     O84     1.278   .     S
C7     O41     1.291   .     A
C7     C9      1.445   .     S
C7     O86     1.295   .     S
C8     C20     1.385   .     A
C8     C412    1.401   1_554 S
C8     H426    1.084   1_554 S
C9     C20     1.400   .     A
C9     C19     1.396   .     A
C10    C407    1.389   .     S
C10    H116    1.082   1_455 S
C11    H32     1.083   .     S
C11    C13     1.394   .     A
C11    C406    1.389   1_554 S
C12    C14     1.404   .     A
C12    C409    1.419   .     S
C12    C411    1.422   .     S
C13    H31     1.076   .     S
C13    C408    1.419   1_554 S
C14    C18     1.407   .     A
C15    C19     1.385   .     A
C15    C408    1.422   1_554 S
C15    C412    1.424   1_554 S
C16    C17     1.380   .     A
C16    C404    1.401   .     S
C16    C411    1.424   .     S
C17    C18     1.374   .     A
C17    F24     1.353   .     S
C18    F26     1.349   .     S
C19    F25     1.359   .     S
C20    F65     1.358   .     S
F21    C108    1.358   1_455 S
F22    C137    1.365   .     S
F23    N34     1.335   .     S
H27    N33     1.029   .     S
H28    C54     1.082   .     S
H29    C267    1.088   1_545 S
H30    C404    1.084   .     S
N33    N34     1.283   .     D
N33    Zn44    2.020   .     S
N34    Zn43    2.020   .     S
O35    Zn43    1.964   .     S
O35    C45     1.275   .     S
O36    Zn44    1.986   .     S
O37    Zn43    1.999   .     S
O37    C48     1.306   .     S
O38    Zn44    1.995   .     S
O39    Zn43    1.986   .     S
O40    Zn44    1.964   .     S
O40    C94     1.278   1_455 S
O41    Zn43    1.995   .     S
O42    Zn44    1.999   .     S
O42    C95     1.295   1_455 S
C45    O80     1.293   .     A
C45    C47     1.407   .     S
C46    C48     1.473   .     S
C46    C58     1.417   .     A
C46    C54     1.400   .     A
C47    C137    1.343   .     S
C47    H205    1.088   .     S
C48    O82     1.292   .     A
C49    C50     1.400   .     S
C49    C355    1.343   1_545 S
C49    F330    1.365   1_545 S
C50    O83     1.286   .     A
C50    O128    1.278   .     S
C51    O85     1.291   .     A
C51    C53     1.445   .     S
C51    O130    1.295   .     S
C52    C64     1.385   .     A
C52    C456    1.401   1_554 S
C52    H470    1.084   1_554 S
C53    C64     1.400   .     A
C53    C63     1.396   .     A
C54    C451    1.389   .     S
C55    H76     1.083   .     S
C55    C57     1.394   .     A
C55    C450    1.389   1_554 S
C56    C58     1.404   .     A
C56    C453    1.419   .     S
C56    C455    1.422   .     S
C57    H75     1.076   .     S
C57    C452    1.419   1_554 S
C58    C62     1.407   .     A
C59    C63     1.385   .     A
C59    C452    1.422   1_554 S
C59    C456    1.424   1_554 S
C60    C61     1.380   .     A
C60    C448    1.401   .     S
C60    C455    1.424   .     S
C61    C62     1.374   .     A
C61    F68     1.353   .     S
C62    F70     1.349   .     S
C63    F69     1.359   .     S
C64    F109    1.358   .     S
F66    C181    1.365   .     S
F67    N78     1.335   .     S
H71    N77     1.029   .     S
H72    C98     1.082   .     S
H73    C311    1.088   1_545 S
H74    C448    1.084   .     S
N77    N78     1.283   .     D
N77    Zn88    2.020   .     S
N78    Zn87    2.020   .     S
O79    Zn87    1.964   .     S
O79    C89     1.275   .     S
O80    Zn88    1.986   .     S
O81    Zn87    1.999   .     S
O81    C92     1.306   .     S
O82    Zn88    1.995   .     S
O83    Zn87    1.986   .     S
O84    Zn88    1.964   .     S
O85    Zn87    1.995   .     S
O86    Zn88    1.999   .     S
C89    O124    1.293   .     A
C89    C91     1.407   .     S
C90    C92     1.473   .     S
C90    C102    1.417   .     A
C90    C98     1.400   .     A
C91    C181    1.343   .     S
C91    H249    1.088   .     S
C92    O126    1.292   .     A
C93    C94     1.400   .     S
C93    C267    1.343   1_645 S
C93    F374    1.365   1_545 S
C94    O127    1.286   .     A
C94    O40     1.278   1_655 S
C95    O129    1.291   .     A
C95    C97     1.445   .     S
C95    O42     1.295   1_655 S
C96    C108    1.385   .     A
C96    C500    1.401   1_554 S
C96    H514    1.084   1_554 S
C97    C108    1.400   .     A
C97    C107    1.396   .     A
C98    C495    1.389   .     S
C99    H120    1.083   .     S
C99    C101    1.394   .     A
C99    C494    1.389   1_554 S
C100   C102    1.404   .     A
C100   C497    1.419   .     S
C100   C499    1.422   .     S
C101   H119    1.076   .     S
C101   C496    1.419   1_554 S
C102   C106    1.407   .     A
C103   C107    1.385   .     A
C103   C496    1.422   1_554 S
C103   C500    1.424   1_554 S
C104   C105    1.380   .     A
C104   C492    1.401   .     S
C104   C499    1.424   .     S
C105   C106    1.374   .     A
C105   F112    1.353   .     S
C106   F114    1.349   .     S
C107   F113    1.359   .     S
C108   F21     1.358   1_655 S
F110   C225    1.365   .     S
F111   N122    1.335   .     S
H115   N121    1.029   .     S
H116   C10     1.082   1_655 S
H117   C355    1.088   1_545 S
H118   C492    1.084   .     S
N121   N122    1.283   .     D
N121   Zn132   2.020   .     S
N122   Zn131   2.020   .     S
O123   Zn131   1.964   .     S
O123   C1      1.275   1_655 S
O124   Zn132   1.986   .     S
O125   Zn131   1.999   .     S
O125   C4      1.306   1_655 S
O126   Zn132   1.995   .     S
O127   Zn131   1.986   .     S
O128   Zn132   1.964   .     S
O129   Zn131   1.995   .     S
O130   Zn132   1.999   .     S
C133   O168    1.293   .     A
C133   C135    1.407   .     S
C133   O255    1.275   1_455 S
C134   C136    1.473   .     S
C134   C146    1.417   .     A
C134   C142    1.400   .     A
C135   C357    1.343   1_455 S
C135   H293    1.088   .     S
C136   O170    1.292   .     A
C136   O257    1.306   1_455 S
C137   C138    1.400   .     S
C138   O171    1.286   .     A
C138   O216    1.278   .     S
C139   O173    1.291   .     A
C139   C141    1.445   .     S
C139   O218    1.295   .     S
C140   C152    1.385   .     A
C140   C544    1.401   1_554 S
C140   H558    1.084   1_554 S
C141   C152    1.400   .     A
C141   C151    1.396   .     A
C142   C539    1.389   .     S
C142   H248    1.082   1_455 S
C143   H164    1.083   .     S
C143   C145    1.394   .     A
C143   C538    1.389   1_554 S
C144   C146    1.404   .     A
C144   C541    1.419   .     S
C144   C543    1.422   .     S
C145   H163    1.076   .     S
C145   C540    1.419   1_554 S
C146   C150    1.407   .     A
C147   C151    1.385   .     A
C147   C540    1.422   1_554 S
C147   C544    1.424   1_554 S
C148   C149    1.380   .     A
C148   C536    1.401   .     S
C148   C543    1.424   .     S
C149   C150    1.374   .     A
C149   F156    1.353   .     S
C150   F158    1.349   .     S
C151   F157    1.359   .     S
C152   F197    1.358   .     S
F153   C240    1.358   1_455 S
F154   C269    1.365   .     S
F155   N166    1.335   .     S
H159   N165    1.029   .     S
H160   C186    1.082   .     S
H162   C536    1.084   .     S
N165   N166    1.283   .     D
N165   Zn176   2.020   .     S
N166   Zn175   2.020   .     S
O167   Zn175   1.964   .     S
O167   C177    1.275   .     S
O168   Zn176   1.986   .     S
O169   Zn175   1.999   .     S
O169   C180    1.306   .     S
O170   Zn176   1.995   .     S
O171   Zn175   1.986   .     S
O172   Zn176   1.964   .     S
O172   C226    1.278   1_455 S
O173   Zn175   1.995   .     S
O174   Zn176   1.999   .     S
O174   C227    1.295   1_455 S
C177   O212    1.293   .     A
C177   C179    1.407   .     S
C178   C180    1.473   .     S
C178   C190    1.417   .     A
C178   C186    1.400   .     A
C179   C269    1.343   .     S
C179   H337    1.088   .     S
C180   O214    1.292   .     A
C181   C182    1.400   .     S
C182   O215    1.286   .     A
C182   O260    1.278   .     S
C183   O217    1.291   .     A
C183   C185    1.445   .     S
C183   O262    1.295   .     S
C184   C196    1.385   .     A
C184   C588    1.401   1_554 S
C184   H602    1.084   1_554 S
C185   C196    1.400   .     A
C185   C195    1.396   .     A
C186   C583    1.389   .     S
C187   H208    1.083   .     S
C187   C189    1.394   .     A
C187   C582    1.389   1_554 S
C188   C190    1.404   .     A
C188   C585    1.419   .     S
C188   C587    1.422   .     S
C189   H207    1.076   .     S
C189   C584    1.419   1_554 S
C190   C194    1.407   .     A
C191   C195    1.385   .     A
C191   C584    1.422   1_554 S
C191   C588    1.424   1_554 S
C192   C193    1.380   .     A
C192   C580    1.401   .     S
C192   C587    1.424   .     S
C193   C194    1.374   .     A
C193   F200    1.353   .     S
C194   F202    1.349   .     S
C195   F201    1.359   .     S
C196   F241    1.358   .     S
F198   C313    1.365   .     S
F199   N210    1.335   .     S
H203   N209    1.029   .     S
H204   C230    1.082   .     S
H206   C580    1.084   .     S
N209   N210    1.283   .     D
N209   Zn220   2.020   .     S
N210   Zn219   2.020   .     S
O211   Zn219   1.964   .     S
O211   C221    1.275   .     S
O212   Zn220   1.986   .     S
O213   Zn219   1.999   .     S
O213   C224    1.306   .     S
O214   Zn220   1.995   .     S
O215   Zn219   1.986   .     S
O216   Zn220   1.964   .     S
O217   Zn219   1.995   .     S
O218   Zn220   1.999   .     S
C221   O256    1.293   .     A
C221   C223    1.407   .     S
C222   C224    1.473   .     S
C222   C234    1.417   .     A
C222   C230    1.400   .     A
C223   C313    1.343   .     S
C223   H381    1.088   .     S
C224   O258    1.292   .     A
C225   C226    1.400   .     S
C225   C3      1.343   1_655 S
C226   O259    1.286   .     A
C226   O172    1.278   1_655 S
C227   O261    1.291   .     A
C227   C229    1.445   .     S
C227   O174    1.295   1_655 S
C228   C240    1.385   .     A
C228   C632    1.401   1_554 S
C228   H646    1.084   1_554 S
C229   C240    1.400   .     A
C229   C239    1.396   .     A
C230   C627    1.389   .     S
C231   H252    1.083   .     S
C231   C233    1.394   .     A
C231   C626    1.389   1_554 S
C232   C234    1.404   .     A
C232   C629    1.419   .     S
C232   C631    1.422   .     S
C233   H251    1.076   .     S
C233   C628    1.419   1_554 S
C234   C238    1.407   .     A
C235   C239    1.385   .     A
C235   C628    1.422   1_554 S
C235   C632    1.424   1_554 S
C236   C237    1.380   .     A
C236   C624    1.401   .     S
C236   C631    1.424   .     S
C237   C238    1.374   .     A
C237   F244    1.353   .     S
C238   F246    1.349   .     S
C239   F245    1.359   .     S
C240   F153    1.358   1_655 S
F242   C357    1.365   .     S
F243   N254    1.335   .     S
H247   N253    1.029   .     S
H248   C142    1.082   1_655 S
H250   C624    1.084   .     S
N253   N254    1.283   .     D
N253   Zn264   2.020   .     S
N254   Zn263   2.020   .     S
O255   Zn263   1.964   .     S
O255   C133    1.275   1_655 S
O256   Zn264   1.986   .     S
O257   Zn263   1.999   .     S
O257   C136    1.306   1_655 S
O258   Zn264   1.995   .     S
O259   Zn263   1.986   .     S
O260   Zn264   1.964   .     S
O261   Zn263   1.995   .     S
O262   Zn264   1.999   .     S
C265   O300    1.293   .     A
C265   C267    1.407   .     S
C265   O387    1.275   1_455 S
C266   C268    1.473   .     S
C266   C278    1.417   .     A
C266   C274    1.400   .     A
C267   C93     1.343   1_465 S
C267   H29     1.088   1_565 S
C268   O302    1.292   .     A
C268   O389    1.306   1_455 S
C269   C270    1.400   .     S
C270   O303    1.286   .     A
C270   O348    1.278   .     S
C271   O305    1.291   .     A
C271   C273    1.445   .     S
C271   O350    1.295   .     S
C272   C284    1.385   .     A
C272   C676    1.401   1_554 S
C272   H690    1.084   1_554 S
C273   C284    1.400   .     A
C273   C283    1.396   .     A
C274   C671    1.389   .     S
C274   H380    1.082   1_455 S
C275   H296    1.083   .     S
C275   C277    1.394   .     A
C275   C670    1.389   1_554 S
C276   C278    1.404   .     A
C276   C673    1.419   .     S
C276   C675    1.422   .     S
C277   H295    1.076   .     S
C277   C672    1.419   1_554 S
C278   C282    1.407   .     A
C279   C283    1.385   .     A
C279   C672    1.422   1_554 S
C279   C676    1.424   1_554 S
C280   C281    1.380   .     A
C280   C668    1.401   .     S
C280   C675    1.424   .     S
C281   C282    1.374   .     A
C281   F288    1.353   .     S
C282   F290    1.349   .     S
C283   F289    1.359   .     S
C284   F329    1.358   .     S
F285   C372    1.358   1_455 S
F286   C5      1.365   1_565 S
F287   N298    1.335   .     S
H291   N297    1.029   .     S
H292   C318    1.082   .     S
H294   C668    1.084   .     S
N297   N298    1.283   .     D
N297   Zn308   2.020   .     S
N298   Zn307   2.020   .     S
O299   Zn307   1.964   .     S
O299   C309    1.275   .     S
O300   Zn308   1.986   .     S
O301   Zn307   1.999   .     S
O301   C312    1.306   .     S
O302   Zn308   1.995   .     S
O303   Zn307   1.986   .     S
O304   Zn308   1.964   .     S
O304   C358    1.278   1_455 S
O305   Zn307   1.995   .     S
O306   Zn308   1.999   .     S
O306   C359    1.295   1_455 S
C309   O344    1.293   .     A
C309   C311    1.407   .     S
C310   C312    1.473   .     S
C310   C322    1.417   .     A
C310   C318    1.400   .     A
C311   C5      1.343   1_565 S
C311   H73     1.088   1_565 S
C312   O346    1.292   .     A
C313   C314    1.400   .     S
C314   O347    1.286   .     A
C314   O392    1.278   .     S
C315   O349    1.291   .     A
C315   C317    1.445   .     S
C315   O394    1.295   .     S
C316   C328    1.385   .     A
C316   C720    1.401   1_554 S
C316   H734    1.084   1_554 S
C317   C328    1.400   .     A
C317   C327    1.396   .     A
C318   C715    1.389   .     S
C319   H340    1.083   .     S
C319   C321    1.394   .     A
C319   C714    1.389   1_554 S
C320   C322    1.404   .     A
C320   C717    1.419   .     S
C320   C719    1.422   .     S
C321   H339    1.076   .     S
C321   C716    1.419   1_554 S
C322   C326    1.407   .     A
C323   C327    1.385   .     A
C323   C716    1.422   1_554 S
C323   C720    1.424   1_554 S
C324   C325    1.380   .     A
C324   C712    1.401   .     S
C324   C719    1.424   .     S
C325   C326    1.374   .     A
C325   F332    1.353   .     S
C326   F334    1.349   .     S
C327   F333    1.359   .     S
C328   F373    1.358   .     S
F330   C49     1.365   1_565 S
F331   N342    1.335   .     S
H335   N341    1.029   .     S
H336   C362    1.082   .     S
H338   C712    1.084   .     S
N341   N342    1.283   .     D
N341   Zn352   2.020   .     S
N342   Zn351   2.020   .     S
O343   Zn351   1.964   .     S
O343   C353    1.275   .     S
O344   Zn352   1.986   .     S
O345   Zn351   1.999   .     S
O345   C356    1.306   .     S
O346   Zn352   1.995   .     S
O347   Zn351   1.986   .     S
O348   Zn352   1.964   .     S
O349   Zn351   1.995   .     S
O350   Zn352   1.999   .     S
C353   O388    1.293   .     A
C353   C355    1.407   .     S
C354   C356    1.473   .     S
C354   C366    1.417   .     A
C354   C362    1.400   .     A
C355   C49     1.343   1_565 S
C355   H117    1.088   1_565 S
C356   O390    1.292   .     A
C357   C358    1.400   .     S
C357   C135    1.343   1_655 S
C358   O391    1.286   .     A
C358   O304    1.278   1_655 S
C359   O393    1.291   .     A
C359   C361    1.445   .     S
C359   O306    1.295   1_655 S
C360   C372    1.385   .     A
C360   C764    1.401   1_554 S
C360   H778    1.084   1_554 S
C361   C372    1.400   .     A
C361   C371    1.396   .     A
C362   C759    1.389   .     S
C363   H384    1.083   .     S
C363   C365    1.394   .     A
C363   C758    1.389   1_554 S
C364   C366    1.404   .     A
C364   C761    1.419   .     S
C364   C763    1.422   .     S
C365   H383    1.076   .     S
C365   C760    1.419   1_554 S
C366   C370    1.407   .     A
C367   C371    1.385   .     A
C367   C760    1.422   1_554 S
C367   C764    1.424   1_554 S
C368   C369    1.380   .     A
C368   C756    1.401   .     S
C368   C763    1.424   .     S
C369   C370    1.374   .     A
C369   F376    1.353   .     S
C370   F378    1.349   .     S
C371   F377    1.359   .     S
C372   F285    1.358   1_655 S
F374   C93     1.365   1_565 S
F375   N386    1.335   .     S
H379   N385    1.029   .     S
H380   C274    1.082   1_655 S
H382   C756    1.084   .     S
N385   N386    1.283   .     D
N385   Zn396   2.020   .     S
N386   Zn395   2.020   .     S
O387   Zn395   1.964   .     S
O387   C265    1.275   1_655 S
O388   Zn396   1.986   .     S
O389   Zn395   1.999   .     S
O389   C268    1.306   1_655 S
O390   Zn396   1.995   .     S
O391   Zn395   1.986   .     S
O392   Zn396   1.964   .     S
O393   Zn395   1.995   .     S
O394   Zn396   1.999   .     S
C397   O432    1.293   .     A
C397   C399    1.407   .     S
C397   O519    1.275   1_455 S
C398   C400    1.473   .     S
C398   C410    1.417   .     A
C398   C406    1.400   .     A
C399   C621    1.343   1_455 S
C399   H557    1.088   .     S
C400   O434    1.292   .     A
C400   O521    1.306   1_455 S
C401   C402    1.400   .     S
C401   C707    1.343   1_545 S
C401   F682    1.365   1_545 S
C402   O435    1.286   .     A
C402   O480    1.278   .     S
C403   O437    1.291   .     A
C403   C405    1.445   .     S
C403   O482    1.295   .     S
C404   C416    1.385   .     A
C405   C416    1.400   .     A
C405   C415    1.396   .     A
C406   C11     1.389   1_556 S
C406   H512    1.082   1_455 S
C407   H428    1.083   .     S
C407   C409    1.394   .     A
C408   C410    1.404   .     A
C408   C13     1.419   1_556 S
C408   C15     1.422   1_556 S
C409   H427    1.076   .     S
C410   C414    1.407   .     A
C411   C415    1.385   .     A
C412   C413    1.380   .     A
C412   C8      1.401   1_556 S
C412   C15     1.424   1_556 S
C413   C414    1.374   .     A
C413   F420    1.353   .     S
C414   F422    1.349   .     S
C415   F421    1.359   .     S
C416   F461    1.358   .     S
F417   C504    1.358   1_455 S
F418   C533    1.365   .     S
F419   N430    1.335   .     S
H423   N429    1.029   .     S
H424   C450    1.082   .     S
H425   C663    1.088   1_545 S
H426   C8      1.084   1_556 S
N429   N430    1.283   .     D
N429   Zn440   2.020   .     S
N430   Zn439   2.020   .     S
O431   Zn439   1.964   .     S
O431   C441    1.275   .     S
O432   Zn440   1.986   .     S
O433   Zn439   1.999   .     S
O433   C444    1.306   .     S
O434   Zn440   1.995   .     S
O435   Zn439   1.986   .     S
O436   Zn440   1.964   .     S
O436   C490    1.278   1_455 S
O437   Zn439   1.995   .     S
O438   Zn440   1.999   .     S
O438   C491    1.295   1_455 S
C441   O476    1.293   .     A
C441   C443    1.407   .     S
C442   C444    1.473   .     S
C442   C454    1.417   .     A
C442   C450    1.400   .     A
C443   C533    1.343   .     S
C443   H601    1.088   .     S
C444   O478    1.292   .     A
C445   C446    1.400   .     S
C445   C751    1.343   1_545 S
C445   F726    1.365   1_545 S
C446   O479    1.286   .     A
C446   O524    1.278   .     S
C447   O481    1.291   .     A
C447   C449    1.445   .     S
C447   O526    1.295   .     S
C448   C460    1.385   .     A
C449   C460    1.400   .     A
C449   C459    1.396   .     A
C450   C55     1.389   1_556 S
C451   H472    1.083   .     S
C451   C453    1.394   .     A
C452   C454    1.404   .     A
C452   C57     1.419   1_556 S
C452   C59     1.422   1_556 S
C453   H471    1.076   .     S
C454   C458    1.407   .     A
C455   C459    1.385   .     A
C456   C457    1.380   .     A
C456   C52     1.401   1_556 S
C456   C59     1.424   1_556 S
C457   C458    1.374   .     A
C457   F464    1.353   .     S
C458   F466    1.349   .     S
C459   F465    1.359   .     S
C460   F505    1.358   .     S
F462   C577    1.365   .     S
F463   N474    1.335   .     S
H467   N473    1.029   .     S
H468   C494    1.082   .     S
H469   C707    1.088   1_545 S
H470   C52     1.084   1_556 S
N473   N474    1.283   .     D
N473   Zn484   2.020   .     S
N474   Zn483   2.020   .     S
O475   Zn483   1.964   .     S
O475   C485    1.275   .     S
O476   Zn484   1.986   .     S
O477   Zn483   1.999   .     S
O477   C488    1.306   .     S
O478   Zn484   1.995   .     S
O479   Zn483   1.986   .     S
O480   Zn484   1.964   .     S
O481   Zn483   1.995   .     S
O482   Zn484   1.999   .     S
C485   O520    1.293   .     A
C485   C487    1.407   .     S
C486   C488    1.473   .     S
C486   C498    1.417   .     A
C486   C494    1.400   .     A
C487   C577    1.343   .     S
C487   H645    1.088   .     S
C488   O522    1.292   .     A
C489   C490    1.400   .     S
C489   C663    1.343   1_645 S
C489   F770    1.365   1_545 S
C490   O523    1.286   .     A
C490   O436    1.278   1_655 S
C491   O525    1.291   .     A
C491   C493    1.445   .     S
C491   O438    1.295   1_655 S
C492   C504    1.385   .     A
C493   C504    1.400   .     A
C493   C503    1.396   .     A
C494   C99     1.389   1_556 S
C495   H516    1.083   .     S
C495   C497    1.394   .     A
C496   C498    1.404   .     A
C496   C101    1.419   1_556 S
C496   C103    1.422   1_556 S
C497   H515    1.076   .     S
C498   C502    1.407   .     A
C499   C503    1.385   .     A
C500   C501    1.380   .     A
C500   C96     1.401   1_556 S
C500   C103    1.424   1_556 S
C501   C502    1.374   .     A
C501   F508    1.353   .     S
C502   F510    1.349   .     S
C503   F509    1.359   .     S
C504   F417    1.358   1_655 S
F506   C621    1.365   .     S
F507   N518    1.335   .     S
H511   N517    1.029   .     S
H512   C406    1.082   1_655 S
H513   C751    1.088   1_545 S
H514   C96     1.084   1_556 S
N517   N518    1.283   .     D
N517   Zn528   2.020   .     S
N518   Zn527   2.020   .     S
O519   Zn527   1.964   .     S
O519   C397    1.275   1_655 S
O520   Zn528   1.986   .     S
O521   Zn527   1.999   .     S
O521   C400    1.306   1_655 S
O522   Zn528   1.995   .     S
O523   Zn527   1.986   .     S
O524   Zn528   1.964   .     S
O525   Zn527   1.995   .     S
O526   Zn528   1.999   .     S
C529   O564    1.293   .     A
C529   C531    1.407   .     S
C529   O651    1.275   1_455 S
C530   C532    1.473   .     S
C530   C542    1.417   .     A
C530   C538    1.400   .     A
C531   C753    1.343   1_455 S
C531   H689    1.088   .     S
C532   O566    1.292   .     A
C532   O653    1.306   1_455 S
C533   C534    1.400   .     S
C534   O567    1.286   .     A
C534   O612    1.278   .     S
C535   O569    1.291   .     A
C535   C537    1.445   .     S
C535   O614    1.295   .     S
C536   C548    1.385   .     A
C537   C548    1.400   .     A
C537   C547    1.396   .     A
C538   C143    1.389   1_556 S
C538   H644    1.082   1_455 S
C539   H560    1.083   .     S
C539   C541    1.394   .     A
C540   C542    1.404   .     A
C540   C145    1.419   1_556 S
C540   C147    1.422   1_556 S
C541   H559    1.076   .     S
C542   C546    1.407   .     A
C543   C547    1.385   .     A
C544   C545    1.380   .     A
C544   C140    1.401   1_556 S
C544   C147    1.424   1_556 S
C545   C546    1.374   .     A
C545   F552    1.353   .     S
C546   F554    1.349   .     S
C547   F553    1.359   .     S
C548   F593    1.358   .     S
F549   C636    1.358   1_455 S
F550   C665    1.365   .     S
F551   N562    1.335   .     S
H555   N561    1.029   .     S
H556   C582    1.082   .     S
H558   C140    1.084   1_556 S
N561   N562    1.283   .     D
N561   Zn572   2.020   .     S
N562   Zn571   2.020   .     S
O563   Zn571   1.964   .     S
O563   C573    1.275   .     S
O564   Zn572   1.986   .     S
O565   Zn571   1.999   .     S
O565   C576    1.306   .     S
O566   Zn572   1.995   .     S
O567   Zn571   1.986   .     S
O568   Zn572   1.964   .     S
O568   C622    1.278   1_455 S
O569   Zn571   1.995   .     S
O570   Zn572   1.999   .     S
O570   C623    1.295   1_455 S
C573   O608    1.293   .     A
C573   C575    1.407   .     S
C574   C576    1.473   .     S
C574   C586    1.417   .     A
C574   C582    1.400   .     A
C575   C665    1.343   .     S
C575   H733    1.088   .     S
C576   O610    1.292   .     A
C577   C578    1.400   .     S
C578   O611    1.286   .     A
C578   O656    1.278   .     S
C579   O613    1.291   .     A
C579   C581    1.445   .     S
C579   O658    1.295   .     S
C580   C592    1.385   .     A
C581   C592    1.400   .     A
C581   C591    1.396   .     A
C582   C187    1.389   1_556 S
C583   H604    1.083   .     S
C583   C585    1.394   .     A
C584   C586    1.404   .     A
C584   C189    1.419   1_556 S
C584   C191    1.422   1_556 S
C585   H603    1.076   .     S
C586   C590    1.407   .     A
C587   C591    1.385   .     A
C588   C589    1.380   .     A
C588   C184    1.401   1_556 S
C588   C191    1.424   1_556 S
C589   C590    1.374   .     A
C589   F596    1.353   .     S
C590   F598    1.349   .     S
C591   F597    1.359   .     S
C592   F637    1.358   .     S
F594   C709    1.365   .     S
F595   N606    1.335   .     S
H599   N605    1.029   .     S
H600   C626    1.082   .     S
H602   C184    1.084   1_556 S
N605   N606    1.283   .     D
N605   Zn616   2.020   .     S
N606   Zn615   2.020   .     S
O607   Zn615   1.964   .     S
O607   C617    1.275   .     S
O608   Zn616   1.986   .     S
O609   Zn615   1.999   .     S
O609   C620    1.306   .     S
O610   Zn616   1.995   .     S
O611   Zn615   1.986   .     S
O612   Zn616   1.964   .     S
O613   Zn615   1.995   .     S
O614   Zn616   1.999   .     S
C617   O652    1.293   .     A
C617   C619    1.407   .     S
C618   C620    1.473   .     S
C618   C630    1.417   .     A
C618   C626    1.400   .     A
C619   C709    1.343   .     S
C619   H777    1.088   .     S
C620   O654    1.292   .     A
C621   C622    1.400   .     S
C621   C399    1.343   1_655 S
C622   O655    1.286   .     A
C622   O568    1.278   1_655 S
C623   O657    1.291   .     A
C623   C625    1.445   .     S
C623   O570    1.295   1_655 S
C624   C636    1.385   .     A
C625   C636    1.400   .     A
C625   C635    1.396   .     A
C626   C231    1.389   1_556 S
C627   H648    1.083   .     S
C627   C629    1.394   .     A
C628   C630    1.404   .     A
C628   C233    1.419   1_556 S
C628   C235    1.422   1_556 S
C629   H647    1.076   .     S
C630   C634    1.407   .     A
C631   C635    1.385   .     A
C632   C633    1.380   .     A
C632   C228    1.401   1_556 S
C632   C235    1.424   1_556 S
C633   C634    1.374   .     A
C633   F640    1.353   .     S
C634   F642    1.349   .     S
C635   F641    1.359   .     S
C636   F549    1.358   1_655 S
F638   C753    1.365   .     S
F639   N650    1.335   .     S
H643   N649    1.029   .     S
H644   C538    1.082   1_655 S
H646   C228    1.084   1_556 S
N649   N650    1.283   .     D
N649   Zn660   2.020   .     S
N650   Zn659   2.020   .     S
O651   Zn659   1.964   .     S
O651   C529    1.275   1_655 S
O652   Zn660   1.986   .     S
O653   Zn659   1.999   .     S
O653   C532    1.306   1_655 S
O654   Zn660   1.995   .     S
O655   Zn659   1.986   .     S
O656   Zn660   1.964   .     S
O657   Zn659   1.995   .     S
O658   Zn660   1.999   .     S
C661   O696    1.293   .     A
C661   C663    1.407   .     S
C661   O783    1.275   1_455 S
C662   C664    1.473   .     S
C662   C674    1.417   .     A
C662   C670    1.400   .     A
C663   C489    1.343   1_465 S
C663   H425    1.088   1_565 S
C664   O698    1.292   .     A
C664   O785    1.306   1_455 S
C665   C666    1.400   .     S
C666   O699    1.286   .     A
C666   O744    1.278   .     S
C667   O701    1.291   .     A
C667   C669    1.445   .     S
C667   O746    1.295   .     S
C668   C680    1.385   .     A
C669   C680    1.400   .     A
C669   C679    1.396   .     A
C670   C275    1.389   1_556 S
C670   H776    1.082   1_455 S
C671   H692    1.083   .     S
C671   C673    1.394   .     A
C672   C674    1.404   .     A
C672   C277    1.419   1_556 S
C672   C279    1.422   1_556 S
C673   H691    1.076   .     S
C674   C678    1.407   .     A
C675   C679    1.385   .     A
C676   C677    1.380   .     A
C676   C272    1.401   1_556 S
C676   C279    1.424   1_556 S
C677   C678    1.374   .     A
C677   F684    1.353   .     S
C678   F686    1.349   .     S
C679   F685    1.359   .     S
C680   F725    1.358   .     S
F681   C768    1.358   1_455 S
F682   C401    1.365   1_565 S
F683   N694    1.335   .     S
H687   N693    1.029   .     S
H688   C714    1.082   .     S
H690   C272    1.084   1_556 S
N693   N694    1.283   .     D
N693   Zn704   2.020   .     S
N694   Zn703   2.020   .     S
O695   Zn703   1.964   .     S
O695   C705    1.275   .     S
O696   Zn704   1.986   .     S
O697   Zn703   1.999   .     S
O697   C708    1.306   .     S
O698   Zn704   1.995   .     S
O699   Zn703   1.986   .     S
O700   Zn704   1.964   .     S
O700   C754    1.278   1_455 S
O701   Zn703   1.995   .     S
O702   Zn704   1.999   .     S
O702   C755    1.295   1_455 S
C705   O740    1.293   .     A
C705   C707    1.407   .     S
C706   C708    1.473   .     S
C706   C718    1.417   .     A
C706   C714    1.400   .     A
C707   C401    1.343   1_565 S
C707   H469    1.088   1_565 S
C708   O742    1.292   .     A
C709   C710    1.400   .     S
C710   O743    1.286   .     A
C710   O788    1.278   .     S
C711   O745    1.291   .     A
C711   C713    1.445   .     S
C711   O790    1.295   .     S
C712   C724    1.385   .     A
C713   C724    1.400   .     A
C713   C723    1.396   .     A
C714   C319    1.389   1_556 S
C715   H736    1.083   .     S
C715   C717    1.394   .     A
C716   C718    1.404   .     A
C716   C321    1.419   1_556 S
C716   C323    1.422   1_556 S
C717   H735    1.076   .     S
C718   C722    1.407   .     A
C719   C723    1.385   .     A
C720   C721    1.380   .     A
C720   C316    1.401   1_556 S
C720   C323    1.424   1_556 S
C721   C722    1.374   .     A
C721   F728    1.353   .     S
C722   F730    1.349   .     S
C723   F729    1.359   .     S
C724   F769    1.358   .     S
F726   C445    1.365   1_565 S
F727   N738    1.335   .     S
H731   N737    1.029   .     S
H732   C758    1.082   .     S
H734   C316    1.084   1_556 S
N737   N738    1.283   .     D
N737   Zn748   2.020   .     S
N738   Zn747   2.020   .     S
O739   Zn747   1.964   .     S
O739   C749    1.275   .     S
O740   Zn748   1.986   .     S
O741   Zn747   1.999   .     S
O741   C752    1.306   .     S
O742   Zn748   1.995   .     S
O743   Zn747   1.986   .     S
O744   Zn748   1.964   .     S
O745   Zn747   1.995   .     S
O746   Zn748   1.999   .     S
C749   O784    1.293   .     A
C749   C751    1.407   .     S
C750   C752    1.473   .     S
C750   C762    1.417   .     A
C750   C758    1.400   .     A
C751   C445    1.343   1_565 S
C751   H513    1.088   1_565 S
C752   O786    1.292   .     A
C753   C754    1.400   .     S
C753   C531    1.343   1_655 S
C754   O787    1.286   .     A
C754   O700    1.278   1_655 S
C755   O789    1.291   .     A
C755   C757    1.445   .     S
C755   O702    1.295   1_655 S
C756   C768    1.385   .     A
C757   C768    1.400   .     A
C757   C767    1.396   .     A
C758   C363    1.389   1_556 S
C759   H780    1.083   .     S
C759   C761    1.394   .     A
C760   C762    1.404   .     A
C760   C365    1.419   1_556 S
C760   C367    1.422   1_556 S
C761   H779    1.076   .     S
C762   C766    1.407   .     A
C763   C767    1.385   .     A
C764   C765    1.380   .     A
C764   C360    1.401   1_556 S
C764   C367    1.424   1_556 S
C765   C766    1.374   .     A
C765   F772    1.353   .     S
C766   F774    1.349   .     S
C767   F773    1.359   .     S
C768   F681    1.358   1_655 S
F770   C489    1.365   1_565 S
F771   N782    1.335   .     S
H775   N781    1.029   .     S
H776   C670    1.082   1_655 S
H778   C360    1.084   1_556 S
N781   N782    1.283   .     D
N781   Zn792   2.020   .     S
N782   Zn791   2.020   .     S
O783   Zn791   1.964   .     S
O783   C661    1.275   1_655 S
O784   Zn792   1.986   .     S
O785   Zn791   1.999   .     S
O785   C664    1.306   1_655 S
O786   Zn792   1.995   .     S
O787   Zn791   1.986   .     S
O788   Zn792   1.964   .     S
O789   Zn791   1.995   .     S
O790   Zn792   1.999   .     S
