data_str_m2_o1_o5_pcu_sym.53
_audit_creation_date              2020-01-03
_audit_creation_method            'Materials Studio'
_symmetry_space_group_name_H-M    'P1'
_symmetry_Int_Tables_number       1
_symmetry_cell_setting            triclinic
loop_
_symmetry_equiv_pos_as_xyz
  x,y,z
_cell_length_a                    32.4198
_cell_length_b                    28.5994
_cell_length_c                    27.2087
_cell_angle_alpha                 89.8844
_cell_angle_beta                  89.8991
_cell_angle_gamma                 90.2558
loop_
_atom_site_label
_atom_site_type_symbol
_atom_site_fract_x
_atom_site_fract_y
_atom_site_fract_z
_atom_site_U_iso_or_equiv
_atom_site_adp_type
_atom_site_occupancy
C1     C     0.08746   0.16654   0.16689   0.00000  Uiso   1.00
C2     C     0.02145   0.19556   0.20003   0.00000  Uiso   1.00
C3     C     0.29049   0.16717   0.16601   0.00000  Uiso   1.00
C4     C     0.04284   0.16616   0.16732   0.00000  Uiso   1.00
C5     C     0.14052   0.02472   0.13687   0.00000  Uiso   1.00
C6     C     0.19281   0.30862   0.19646   0.00000  Uiso   1.00
C7     C     0.19281   0.02486   0.19646   0.00000  Uiso   1.00
C8     C     0.14052   0.30847   0.13687   0.00000  Uiso   1.00
C9     C     0.05668   0.12668   0.06204   0.00000  Uiso   1.00
C10    C     0.27664   0.20666   0.27129   0.00000  Uiso   1.00
C11    C     0.27896   0.13554   0.05950   0.00000  Uiso   1.00
C12    C     0.24587   0.16680   0.16645   0.00000  Uiso   1.00
C13    C     0.05439   0.19777   0.27384   0.00000  Uiso   1.00
C14    C     0.16641   0.16670   0.07355   0.00000  Uiso   1.00
C15    C     0.16693   0.16664   0.25979   0.00000  Uiso   1.00
C16    C     0.16657   0.16671   0.02185   0.00000  Uiso   1.00
C17    C     0.16677   0.16662   0.31149   0.00000  Uiso   1.00
C18    C     0.02152   0.13683   0.13442   0.00000  Uiso   1.00
C19    C     0.31181   0.19650   0.19892   0.00000  Uiso   1.00
C20    C     0.31188   0.13777   0.13331   0.00000  Uiso   1.00
Cu21   Cu    0.16667   0.21355   0.16667   0.00000  Uiso   1.00
Cu22   Cu    0.16667   0.11978   0.16667   0.00000  Uiso   1.00
H23    H     0.11957   0.04330   0.11297   0.00000  Uiso   1.00
H24    H     0.29932   0.21201   0.30120   0.00000  Uiso   1.00
H25    H     0.25308   0.15915   0.06876   0.00000  Uiso   1.00
H26    H     0.26802   0.11134   0.03045   0.00000  Uiso   1.00
H27    H     0.30474   0.15660   0.04382   0.00000  Uiso   1.00
H28    H     0.06528   0.22197   0.30291   0.00000  Uiso   1.00
H29    H     0.08031   0.17422   0.26457   0.00000  Uiso   1.00
H30    H     0.02863   0.17665   0.28948   0.00000  Uiso   1.00
H31    H     0.21376   0.29003   0.22036   0.00000  Uiso   1.00
H32    H     0.21376   0.04356   0.22036   0.00000  Uiso   1.00
H33    H     0.11957   0.28977   0.11297   0.00000  Uiso   1.00
H34    H     0.08572   0.10947   0.05056   0.00000  Uiso   1.00
H35    H     0.06351   0.16474   0.06597   0.00000  Uiso   1.00
H36    H     0.03406   0.12119   0.03211   0.00000  Uiso   1.00
H37    H     0.26968   0.16862   0.26731   0.00000  Uiso   1.00
H38    H     0.24767   0.22397   0.28285   0.00000  Uiso   1.00
N39    N     0.16667   0.28402   0.16667   0.00000  Uiso   1.00
N40    N     0.16667   0.04931   0.16667   0.00000  Uiso   1.00
O41    O     0.10655   0.20625   0.16666   0.00000  Uiso   1.00
O42    O     0.29089   0.22850   0.22779   0.00000  Uiso   1.00
O43    O     0.29114   0.10890   0.10075   0.00000  Uiso   1.00
O44    O     0.04219   0.22442   0.23260   0.00000  Uiso   1.00
O45    O     0.22679   0.12709   0.16667   0.00000  Uiso   1.00
O46    O     0.22679   0.20625   0.16667   0.00000  Uiso   1.00
O47    O     0.10655   0.12709   0.16666   0.00000  Uiso   1.00
O48    O     0.16667   0.20625   0.09613   0.00000  Uiso   1.00
O49    O     0.16667   0.12708   0.23720   0.00000  Uiso   1.00
O50    O     0.16667   0.20625   0.23720   0.00000  Uiso   1.00
O51    O     0.16667   0.12708   0.09613   0.00000  Uiso   1.00
O52    O     0.04244   0.10483   0.10555   0.00000  Uiso   1.00
C53    C     0.42080   0.16654   0.16689   0.00000  Uiso   1.00
C54    C     0.35479   0.19556   0.20003   0.00000  Uiso   1.00
C55    C     0.62382   0.16717   0.16601   0.00000  Uiso   1.00
C56    C     0.37618   0.16616   0.16732   0.00000  Uiso   1.00
C57    C     0.47386   0.02472   0.13687   0.00000  Uiso   1.00
C58    C     0.52614   0.30862   0.19646   0.00000  Uiso   1.00
C59    C     0.52614   0.02486   0.19646   0.00000  Uiso   1.00
C60    C     0.47386   0.30847   0.13687   0.00000  Uiso   1.00
C61    C     0.39002   0.12668   0.06204   0.00000  Uiso   1.00
C62    C     0.60997   0.20666   0.27129   0.00000  Uiso   1.00
C63    C     0.61229   0.13554   0.05950   0.00000  Uiso   1.00
C64    C     0.57920   0.16680   0.16645   0.00000  Uiso   1.00
C65    C     0.38772   0.19777   0.27384   0.00000  Uiso   1.00
C66    C     0.49974   0.16670   0.07355   0.00000  Uiso   1.00
C67    C     0.50027   0.16664   0.25979   0.00000  Uiso   1.00
C68    C     0.49990   0.16671   0.02185   0.00000  Uiso   1.00
C69    C     0.50010   0.16662   0.31149   0.00000  Uiso   1.00
C70    C     0.35485   0.13683   0.13442   0.00000  Uiso   1.00
C71    C     0.64515   0.19650   0.19892   0.00000  Uiso   1.00
C72    C     0.64521   0.13777   0.13331   0.00000  Uiso   1.00
Cu73   Cu    0.50000   0.21355   0.16667   0.00000  Uiso   1.00
Cu74   Cu    0.50000   0.11978   0.16667   0.00000  Uiso   1.00
H75    H     0.45291   0.04330   0.11297   0.00000  Uiso   1.00
H76    H     0.63266   0.21201   0.30120   0.00000  Uiso   1.00
H77    H     0.58641   0.15915   0.06876   0.00000  Uiso   1.00
H78    H     0.60136   0.11134   0.03045   0.00000  Uiso   1.00
H79    H     0.63807   0.15660   0.04382   0.00000  Uiso   1.00
H80    H     0.39861   0.22197   0.30291   0.00000  Uiso   1.00
H81    H     0.41364   0.17422   0.26457   0.00000  Uiso   1.00
H82    H     0.36196   0.17665   0.28948   0.00000  Uiso   1.00
H83    H     0.54709   0.29003   0.22036   0.00000  Uiso   1.00
H84    H     0.54709   0.04356   0.22036   0.00000  Uiso   1.00
H85    H     0.45290   0.28977   0.11297   0.00000  Uiso   1.00
H86    H     0.41905   0.10947   0.05056   0.00000  Uiso   1.00
H87    H     0.39684   0.16474   0.06597   0.00000  Uiso   1.00
H88    H     0.36739   0.12119   0.03211   0.00000  Uiso   1.00
H89    H     0.60302   0.16862   0.26731   0.00000  Uiso   1.00
H90    H     0.58100   0.22397   0.28285   0.00000  Uiso   1.00
N91    N     0.50000   0.28402   0.16667   0.00000  Uiso   1.00
N92    N     0.50000   0.04931   0.16667   0.00000  Uiso   1.00
O93    O     0.43988   0.20625   0.16666   0.00000  Uiso   1.00
O94    O     0.62423   0.22850   0.22779   0.00000  Uiso   1.00
O95    O     0.62448   0.10890   0.10075   0.00000  Uiso   1.00
O96    O     0.37552   0.22442   0.23260   0.00000  Uiso   1.00
O97    O     0.56012   0.12709   0.16667   0.00000  Uiso   1.00
O98    O     0.56012   0.20625   0.16667   0.00000  Uiso   1.00
O99    O     0.43988   0.12709   0.16666   0.00000  Uiso   1.00
O100   O     0.50000   0.20625   0.09613   0.00000  Uiso   1.00
O101   O     0.50000   0.12708   0.23720   0.00000  Uiso   1.00
O102   O     0.50000   0.20625   0.23720   0.00000  Uiso   1.00
O103   O     0.50000   0.12708   0.09613   0.00000  Uiso   1.00
O104   O     0.37577   0.10483   0.10555   0.00000  Uiso   1.00
C105   C     0.75413   0.16654   0.16689   0.00000  Uiso   1.00
C106   C     0.68812   0.19556   0.20003   0.00000  Uiso   1.00
C107   C     0.95716   0.16717   0.16601   0.00000  Uiso   1.00
C108   C     0.70951   0.16616   0.16732   0.00000  Uiso   1.00
C109   C     0.80719   0.02472   0.13687   0.00000  Uiso   1.00
C110   C     0.85948   0.30862   0.19646   0.00000  Uiso   1.00
C111   C     0.85948   0.02486   0.19646   0.00000  Uiso   1.00
C112   C     0.80719   0.30847   0.13687   0.00000  Uiso   1.00
C113   C     0.72335   0.12668   0.06204   0.00000  Uiso   1.00
C114   C     0.94331   0.20666   0.27129   0.00000  Uiso   1.00
C115   C     0.94563   0.13554   0.05950   0.00000  Uiso   1.00
C116   C     0.91254   0.16680   0.16645   0.00000  Uiso   1.00
C117   C     0.72105   0.19777   0.27384   0.00000  Uiso   1.00
C118   C     0.83307   0.16670   0.07355   0.00000  Uiso   1.00
C119   C     0.83360   0.16664   0.25979   0.00000  Uiso   1.00
C120   C     0.83324   0.16671   0.02185   0.00000  Uiso   1.00
C121   C     0.83343   0.16662   0.31149   0.00000  Uiso   1.00
C122   C     0.68818   0.13683   0.13442   0.00000  Uiso   1.00
C123   C     0.97848   0.19650   0.19892   0.00000  Uiso   1.00
C124   C     0.97855   0.13777   0.13331   0.00000  Uiso   1.00
Cu125  Cu    0.83333   0.21355   0.16667   0.00000  Uiso   1.00
Cu126  Cu    0.83333   0.11978   0.16667   0.00000  Uiso   1.00
H127   H     0.78624   0.04330   0.11297   0.00000  Uiso   1.00
H128   H     0.96599   0.21201   0.30120   0.00000  Uiso   1.00
H129   H     0.91974   0.15915   0.06876   0.00000  Uiso   1.00
H130   H     0.93469   0.11134   0.03045   0.00000  Uiso   1.00
H131   H     0.97141   0.15660   0.04382   0.00000  Uiso   1.00
H132   H     0.73194   0.22197   0.30291   0.00000  Uiso   1.00
H133   H     0.74697   0.17422   0.26457   0.00000  Uiso   1.00
H134   H     0.69529   0.17665   0.28948   0.00000  Uiso   1.00
H135   H     0.88043   0.29003   0.22036   0.00000  Uiso   1.00
H136   H     0.88043   0.04356   0.22036   0.00000  Uiso   1.00
H137   H     0.78624   0.28977   0.11297   0.00000  Uiso   1.00
H138   H     0.75239   0.10947   0.05056   0.00000  Uiso   1.00
H139   H     0.73018   0.16474   0.06597   0.00000  Uiso   1.00
H140   H     0.70073   0.12119   0.03211   0.00000  Uiso   1.00
H141   H     0.93635   0.16862   0.26731   0.00000  Uiso   1.00
H142   H     0.91434   0.22397   0.28285   0.00000  Uiso   1.00
N143   N     0.83333   0.28402   0.16667   0.00000  Uiso   1.00
N144   N     0.83333   0.04931   0.16667   0.00000  Uiso   1.00
O145   O     0.77321   0.20625   0.16666   0.00000  Uiso   1.00
O146   O     0.95756   0.22850   0.22779   0.00000  Uiso   1.00
O147   O     0.95781   0.10890   0.10075   0.00000  Uiso   1.00
O148   O     0.70885   0.22442   0.23260   0.00000  Uiso   1.00
O149   O     0.89345   0.12709   0.16667   0.00000  Uiso   1.00
O150   O     0.89345   0.20625   0.16667   0.00000  Uiso   1.00
O151   O     0.77321   0.12709   0.16666   0.00000  Uiso   1.00
O152   O     0.83333   0.20625   0.09613   0.00000  Uiso   1.00
O153   O     0.83333   0.12708   0.23720   0.00000  Uiso   1.00
O154   O     0.83333   0.20625   0.23720   0.00000  Uiso   1.00
O155   O     0.83333   0.12708   0.09613   0.00000  Uiso   1.00
O156   O     0.70910   0.10483   0.10555   0.00000  Uiso   1.00
C157   C     0.08746   0.49987   0.16689   0.00000  Uiso   1.00
C158   C     0.02145   0.52889   0.20003   0.00000  Uiso   1.00
C159   C     0.29049   0.50051   0.16601   0.00000  Uiso   1.00
C160   C     0.04284   0.49949   0.16732   0.00000  Uiso   1.00
C161   C     0.14052   0.35805   0.13687   0.00000  Uiso   1.00
C162   C     0.19281   0.64195   0.19646   0.00000  Uiso   1.00
C163   C     0.19281   0.35819   0.19646   0.00000  Uiso   1.00
C164   C     0.14052   0.64181   0.13687   0.00000  Uiso   1.00
C165   C     0.05668   0.46001   0.06204   0.00000  Uiso   1.00
C166   C     0.27664   0.53999   0.27129   0.00000  Uiso   1.00
C167   C     0.27896   0.46887   0.05950   0.00000  Uiso   1.00
C168   C     0.24587   0.50013   0.16645   0.00000  Uiso   1.00
C169   C     0.05439   0.53111   0.27384   0.00000  Uiso   1.00
C170   C     0.16641   0.50003   0.07355   0.00000  Uiso   1.00
C171   C     0.16693   0.49997   0.25979   0.00000  Uiso   1.00
C172   C     0.16657   0.50005   0.02185   0.00000  Uiso   1.00
C173   C     0.16677   0.49995   0.31149   0.00000  Uiso   1.00
C174   C     0.02152   0.47016   0.13442   0.00000  Uiso   1.00
C175   C     0.31181   0.52984   0.19892   0.00000  Uiso   1.00
C176   C     0.31188   0.47110   0.13331   0.00000  Uiso   1.00
Cu177  Cu    0.16667   0.54689   0.16667   0.00000  Uiso   1.00
Cu178  Cu    0.16667   0.45311   0.16667   0.00000  Uiso   1.00
H179   H     0.11957   0.37664   0.11297   0.00000  Uiso   1.00
H180   H     0.29932   0.54535   0.30120   0.00000  Uiso   1.00
H181   H     0.25308   0.49248   0.06876   0.00000  Uiso   1.00
H182   H     0.26802   0.44467   0.03045   0.00000  Uiso   1.00
H183   H     0.30474   0.48993   0.04382   0.00000  Uiso   1.00
H184   H     0.06528   0.55530   0.30291   0.00000  Uiso   1.00
H185   H     0.08031   0.50755   0.26457   0.00000  Uiso   1.00
H186   H     0.02863   0.50999   0.28948   0.00000  Uiso   1.00
H187   H     0.21376   0.62336   0.22036   0.00000  Uiso   1.00
H188   H     0.21376   0.37690   0.22036   0.00000  Uiso   1.00
H189   H     0.11957   0.62310   0.11297   0.00000  Uiso   1.00
H190   H     0.08572   0.44280   0.05056   0.00000  Uiso   1.00
H191   H     0.06351   0.49807   0.06597   0.00000  Uiso   1.00
H192   H     0.03406   0.45452   0.03211   0.00000  Uiso   1.00
H193   H     0.26968   0.50195   0.26731   0.00000  Uiso   1.00
H194   H     0.24767   0.55730   0.28285   0.00000  Uiso   1.00
N195   N     0.16667   0.61736   0.16667   0.00000  Uiso   1.00
N196   N     0.16667   0.38264   0.16667   0.00000  Uiso   1.00
O197   O     0.10655   0.53958   0.16666   0.00000  Uiso   1.00
O198   O     0.29089   0.56183   0.22779   0.00000  Uiso   1.00
O199   O     0.29114   0.44224   0.10075   0.00000  Uiso   1.00
O200   O     0.04219   0.55775   0.23260   0.00000  Uiso   1.00
O201   O     0.22679   0.46042   0.16667   0.00000  Uiso   1.00
O202   O     0.22679   0.53958   0.16667   0.00000  Uiso   1.00
O203   O     0.10655   0.46042   0.16666   0.00000  Uiso   1.00
O204   O     0.16667   0.53959   0.09613   0.00000  Uiso   1.00
O205   O     0.16667   0.46041   0.23720   0.00000  Uiso   1.00
O206   O     0.16667   0.53959   0.23720   0.00000  Uiso   1.00
O207   O     0.16667   0.46041   0.09613   0.00000  Uiso   1.00
O208   O     0.04244   0.43817   0.10555   0.00000  Uiso   1.00
C209   C     0.42080   0.49987   0.16689   0.00000  Uiso   1.00
C210   C     0.35479   0.52889   0.20003   0.00000  Uiso   1.00
C211   C     0.62382   0.50051   0.16601   0.00000  Uiso   1.00
C212   C     0.37618   0.49949   0.16732   0.00000  Uiso   1.00
C213   C     0.47386   0.35805   0.13687   0.00000  Uiso   1.00
C214   C     0.52614   0.64195   0.19646   0.00000  Uiso   1.00
C215   C     0.52614   0.35819   0.19646   0.00000  Uiso   1.00
C216   C     0.47386   0.64181   0.13687   0.00000  Uiso   1.00
C217   C     0.39002   0.46001   0.06204   0.00000  Uiso   1.00
C218   C     0.60997   0.53999   0.27129   0.00000  Uiso   1.00
C219   C     0.61229   0.46887   0.05950   0.00000  Uiso   1.00
C220   C     0.57920   0.50013   0.16645   0.00000  Uiso   1.00
C221   C     0.38772   0.53111   0.27384   0.00000  Uiso   1.00
C222   C     0.49974   0.50003   0.07355   0.00000  Uiso   1.00
C223   C     0.50027   0.49997   0.25979   0.00000  Uiso   1.00
C224   C     0.49990   0.50005   0.02185   0.00000  Uiso   1.00
C225   C     0.50010   0.49995   0.31149   0.00000  Uiso   1.00
C226   C     0.35485   0.47016   0.13442   0.00000  Uiso   1.00
C227   C     0.64515   0.52984   0.19892   0.00000  Uiso   1.00
C228   C     0.64521   0.47110   0.13331   0.00000  Uiso   1.00
Cu229  Cu    0.50000   0.54689   0.16667   0.00000  Uiso   1.00
Cu230  Cu    0.50000   0.45311   0.16667   0.00000  Uiso   1.00
H231   H     0.45291   0.37664   0.11297   0.00000  Uiso   1.00
H232   H     0.63266   0.54535   0.30120   0.00000  Uiso   1.00
H233   H     0.58641   0.49248   0.06876   0.00000  Uiso   1.00
H234   H     0.60136   0.44467   0.03045   0.00000  Uiso   1.00
H235   H     0.63807   0.48993   0.04382   0.00000  Uiso   1.00
H236   H     0.39861   0.55530   0.30291   0.00000  Uiso   1.00
H237   H     0.41364   0.50755   0.26457   0.00000  Uiso   1.00
H238   H     0.36196   0.50999   0.28948   0.00000  Uiso   1.00
H239   H     0.54709   0.62336   0.22036   0.00000  Uiso   1.00
H240   H     0.54709   0.37690   0.22036   0.00000  Uiso   1.00
H241   H     0.45290   0.62310   0.11297   0.00000  Uiso   1.00
H242   H     0.41905   0.44280   0.05056   0.00000  Uiso   1.00
H243   H     0.39684   0.49807   0.06597   0.00000  Uiso   1.00
H244   H     0.36739   0.45452   0.03211   0.00000  Uiso   1.00
H245   H     0.60302   0.50195   0.26731   0.00000  Uiso   1.00
H246   H     0.58100   0.55730   0.28285   0.00000  Uiso   1.00
N247   N     0.50000   0.61736   0.16667   0.00000  Uiso   1.00
N248   N     0.50000   0.38264   0.16667   0.00000  Uiso   1.00
O249   O     0.43988   0.53958   0.16666   0.00000  Uiso   1.00
O250   O     0.62423   0.56183   0.22779   0.00000  Uiso   1.00
O251   O     0.62448   0.44224   0.10075   0.00000  Uiso   1.00
O252   O     0.37552   0.55775   0.23260   0.00000  Uiso   1.00
O253   O     0.56012   0.46042   0.16667   0.00000  Uiso   1.00
O254   O     0.56012   0.53958   0.16667   0.00000  Uiso   1.00
O255   O     0.43988   0.46042   0.16666   0.00000  Uiso   1.00
O256   O     0.50000   0.53959   0.09613   0.00000  Uiso   1.00
O257   O     0.50000   0.46041   0.23720   0.00000  Uiso   1.00
O258   O     0.50000   0.53959   0.23720   0.00000  Uiso   1.00
O259   O     0.50000   0.46041   0.09613   0.00000  Uiso   1.00
O260   O     0.37577   0.43817   0.10555   0.00000  Uiso   1.00
C261   C     0.75413   0.49987   0.16689   0.00000  Uiso   1.00
C262   C     0.68812   0.52889   0.20003   0.00000  Uiso   1.00
C263   C     0.95716   0.50051   0.16601   0.00000  Uiso   1.00
C264   C     0.70951   0.49949   0.16732   0.00000  Uiso   1.00
C265   C     0.80719   0.35805   0.13687   0.00000  Uiso   1.00
C266   C     0.85948   0.64195   0.19646   0.00000  Uiso   1.00
C267   C     0.85948   0.35819   0.19646   0.00000  Uiso   1.00
C268   C     0.80719   0.64181   0.13687   0.00000  Uiso   1.00
C269   C     0.72335   0.46001   0.06204   0.00000  Uiso   1.00
C270   C     0.94331   0.53999   0.27129   0.00000  Uiso   1.00
C271   C     0.94563   0.46887   0.05950   0.00000  Uiso   1.00
C272   C     0.91254   0.50013   0.16645   0.00000  Uiso   1.00
C273   C     0.72105   0.53111   0.27384   0.00000  Uiso   1.00
C274   C     0.83307   0.50003   0.07355   0.00000  Uiso   1.00
C275   C     0.83360   0.49997   0.25979   0.00000  Uiso   1.00
C276   C     0.83324   0.50005   0.02185   0.00000  Uiso   1.00
C277   C     0.83343   0.49995   0.31149   0.00000  Uiso   1.00
C278   C     0.68818   0.47016   0.13442   0.00000  Uiso   1.00
C279   C     0.97848   0.52984   0.19892   0.00000  Uiso   1.00
C280   C     0.97855   0.47110   0.13331   0.00000  Uiso   1.00
Cu281  Cu    0.83333   0.54689   0.16667   0.00000  Uiso   1.00
Cu282  Cu    0.83333   0.45311   0.16667   0.00000  Uiso   1.00
H283   H     0.78624   0.37664   0.11297   0.00000  Uiso   1.00
H284   H     0.96599   0.54535   0.30120   0.00000  Uiso   1.00
H285   H     0.91974   0.49248   0.06876   0.00000  Uiso   1.00
H286   H     0.93469   0.44467   0.03045   0.00000  Uiso   1.00
H287   H     0.97141   0.48993   0.04382   0.00000  Uiso   1.00
H288   H     0.73194   0.55530   0.30291   0.00000  Uiso   1.00
H289   H     0.74697   0.50755   0.26457   0.00000  Uiso   1.00
H290   H     0.69529   0.50999   0.28948   0.00000  Uiso   1.00
H291   H     0.88043   0.62336   0.22036   0.00000  Uiso   1.00
H292   H     0.88043   0.37690   0.22036   0.00000  Uiso   1.00
H293   H     0.78624   0.62310   0.11297   0.00000  Uiso   1.00
H294   H     0.75239   0.44280   0.05056   0.00000  Uiso   1.00
H295   H     0.73018   0.49807   0.06597   0.00000  Uiso   1.00
H296   H     0.70073   0.45452   0.03211   0.00000  Uiso   1.00
H297   H     0.93635   0.50195   0.26731   0.00000  Uiso   1.00
H298   H     0.91434   0.55730   0.28285   0.00000  Uiso   1.00
N299   N     0.83333   0.61736   0.16667   0.00000  Uiso   1.00
N300   N     0.83333   0.38264   0.16667   0.00000  Uiso   1.00
O301   O     0.77321   0.53958   0.16666   0.00000  Uiso   1.00
O302   O     0.95756   0.56183   0.22779   0.00000  Uiso   1.00
O303   O     0.95781   0.44224   0.10075   0.00000  Uiso   1.00
O304   O     0.70885   0.55775   0.23260   0.00000  Uiso   1.00
O305   O     0.89345   0.46042   0.16667   0.00000  Uiso   1.00
O306   O     0.89345   0.53958   0.16667   0.00000  Uiso   1.00
O307   O     0.77321   0.46042   0.16666   0.00000  Uiso   1.00
O308   O     0.83333   0.53959   0.09613   0.00000  Uiso   1.00
O309   O     0.83333   0.46041   0.23720   0.00000  Uiso   1.00
O310   O     0.83333   0.53959   0.23720   0.00000  Uiso   1.00
O311   O     0.83333   0.46041   0.09613   0.00000  Uiso   1.00
O312   O     0.70910   0.43817   0.10555   0.00000  Uiso   1.00
C313   C     0.08746   0.83320   0.16689   0.00000  Uiso   1.00
C314   C     0.02145   0.86223   0.20003   0.00000  Uiso   1.00
C315   C     0.29049   0.83384   0.16601   0.00000  Uiso   1.00
C316   C     0.04284   0.83282   0.16732   0.00000  Uiso   1.00
C317   C     0.14052   0.69138   0.13687   0.00000  Uiso   1.00
C318   C     0.19281   0.97528   0.19646   0.00000  Uiso   1.00
C319   C     0.19281   0.69153   0.19646   0.00000  Uiso   1.00
C320   C     0.14052   0.97514   0.13687   0.00000  Uiso   1.00
C321   C     0.05668   0.79334   0.06204   0.00000  Uiso   1.00
C322   C     0.27664   0.87332   0.27129   0.00000  Uiso   1.00
C323   C     0.27896   0.80220   0.05950   0.00000  Uiso   1.00
C324   C     0.24587   0.83346   0.16645   0.00000  Uiso   1.00
C325   C     0.05439   0.86444   0.27384   0.00000  Uiso   1.00
C326   C     0.16641   0.83336   0.07355   0.00000  Uiso   1.00
C327   C     0.16693   0.83330   0.25979   0.00000  Uiso   1.00
C328   C     0.16657   0.83338   0.02185   0.00000  Uiso   1.00
C329   C     0.16677   0.83329   0.31149   0.00000  Uiso   1.00
C330   C     0.02152   0.80349   0.13442   0.00000  Uiso   1.00
C331   C     0.31181   0.86317   0.19892   0.00000  Uiso   1.00
C332   C     0.31188   0.80444   0.13331   0.00000  Uiso   1.00
Cu333  Cu    0.16667   0.88022   0.16667   0.00000  Uiso   1.00
Cu334  Cu    0.16667   0.78645   0.16667   0.00000  Uiso   1.00
H335   H     0.11957   0.70997   0.11297   0.00000  Uiso   1.00
H336   H     0.29932   0.87868   0.30120   0.00000  Uiso   1.00
H337   H     0.25308   0.82581   0.06876   0.00000  Uiso   1.00
H338   H     0.26802   0.77800   0.03045   0.00000  Uiso   1.00
H339   H     0.30474   0.82326   0.04382   0.00000  Uiso   1.00
H340   H     0.06528   0.88864   0.30291   0.00000  Uiso   1.00
H341   H     0.08031   0.84089   0.26457   0.00000  Uiso   1.00
H342   H     0.02863   0.84332   0.28948   0.00000  Uiso   1.00
H343   H     0.21376   0.95670   0.22036   0.00000  Uiso   1.00
H344   H     0.21376   0.71023   0.22036   0.00000  Uiso   1.00
H345   H     0.11957   0.95644   0.11297   0.00000  Uiso   1.00
H346   H     0.08572   0.77614   0.05056   0.00000  Uiso   1.00
H347   H     0.06351   0.83141   0.06597   0.00000  Uiso   1.00
H348   H     0.03406   0.78785   0.03211   0.00000  Uiso   1.00
H349   H     0.26968   0.83528   0.26731   0.00000  Uiso   1.00
H350   H     0.24767   0.89063   0.28285   0.00000  Uiso   1.00
N351   N     0.16667   0.95069   0.16667   0.00000  Uiso   1.00
N352   N     0.16667   0.71598   0.16667   0.00000  Uiso   1.00
O353   O     0.10655   0.87291   0.16666   0.00000  Uiso   1.00
O354   O     0.29089   0.89516   0.22779   0.00000  Uiso   1.00
O355   O     0.29114   0.77557   0.10075   0.00000  Uiso   1.00
O356   O     0.04219   0.89109   0.23260   0.00000  Uiso   1.00
O357   O     0.22679   0.79375   0.16667   0.00000  Uiso   1.00
O358   O     0.22679   0.87291   0.16667   0.00000  Uiso   1.00
O359   O     0.10655   0.79375   0.16666   0.00000  Uiso   1.00
O360   O     0.16667   0.87292   0.09613   0.00000  Uiso   1.00
O361   O     0.16667   0.79375   0.23720   0.00000  Uiso   1.00
O362   O     0.16667   0.87292   0.23720   0.00000  Uiso   1.00
O363   O     0.16667   0.79375   0.09613   0.00000  Uiso   1.00
O364   O     0.04244   0.77150   0.10555   0.00000  Uiso   1.00
C365   C     0.42080   0.83320   0.16689   0.00000  Uiso   1.00
C366   C     0.35479   0.86223   0.20003   0.00000  Uiso   1.00
C367   C     0.62382   0.83384   0.16601   0.00000  Uiso   1.00
C368   C     0.37618   0.83282   0.16732   0.00000  Uiso   1.00
C369   C     0.47386   0.69138   0.13687   0.00000  Uiso   1.00
C370   C     0.52614   0.97528   0.19646   0.00000  Uiso   1.00
C371   C     0.52614   0.69153   0.19646   0.00000  Uiso   1.00
C372   C     0.47386   0.97514   0.13687   0.00000  Uiso   1.00
C373   C     0.39002   0.79334   0.06204   0.00000  Uiso   1.00
C374   C     0.60997   0.87332   0.27129   0.00000  Uiso   1.00
C375   C     0.61229   0.80220   0.05950   0.00000  Uiso   1.00
C376   C     0.57920   0.83346   0.16645   0.00000  Uiso   1.00
C377   C     0.38772   0.86444   0.27384   0.00000  Uiso   1.00
C378   C     0.49974   0.83336   0.07355   0.00000  Uiso   1.00
C379   C     0.50027   0.83330   0.25979   0.00000  Uiso   1.00
C380   C     0.49990   0.83338   0.02185   0.00000  Uiso   1.00
C381   C     0.50010   0.83329   0.31149   0.00000  Uiso   1.00
C382   C     0.35485   0.80349   0.13442   0.00000  Uiso   1.00
C383   C     0.64515   0.86317   0.19892   0.00000  Uiso   1.00
C384   C     0.64521   0.80444   0.13331   0.00000  Uiso   1.00
Cu385  Cu    0.50000   0.88022   0.16667   0.00000  Uiso   1.00
Cu386  Cu    0.50000   0.78645   0.16667   0.00000  Uiso   1.00
H387   H     0.45291   0.70997   0.11297   0.00000  Uiso   1.00
H388   H     0.63266   0.87868   0.30120   0.00000  Uiso   1.00
H389   H     0.58641   0.82581   0.06876   0.00000  Uiso   1.00
H390   H     0.60136   0.77800   0.03045   0.00000  Uiso   1.00
H391   H     0.63807   0.82326   0.04382   0.00000  Uiso   1.00
H392   H     0.39861   0.88864   0.30291   0.00000  Uiso   1.00
H393   H     0.41364   0.84089   0.26457   0.00000  Uiso   1.00
H394   H     0.36196   0.84332   0.28948   0.00000  Uiso   1.00
H395   H     0.54709   0.95670   0.22036   0.00000  Uiso   1.00
H396   H     0.54709   0.71023   0.22036   0.00000  Uiso   1.00
H397   H     0.45290   0.95644   0.11297   0.00000  Uiso   1.00
H398   H     0.41905   0.77614   0.05056   0.00000  Uiso   1.00
H399   H     0.39684   0.83141   0.06597   0.00000  Uiso   1.00
H400   H     0.36739   0.78785   0.03211   0.00000  Uiso   1.00
H401   H     0.60302   0.83528   0.26731   0.00000  Uiso   1.00
H402   H     0.58100   0.89063   0.28285   0.00000  Uiso   1.00
N403   N     0.50000   0.95069   0.16667   0.00000  Uiso   1.00
N404   N     0.50000   0.71598   0.16667   0.00000  Uiso   1.00
O405   O     0.43988   0.87291   0.16666   0.00000  Uiso   1.00
O406   O     0.62423   0.89516   0.22779   0.00000  Uiso   1.00
O407   O     0.62448   0.77557   0.10075   0.00000  Uiso   1.00
O408   O     0.37552   0.89109   0.23260   0.00000  Uiso   1.00
O409   O     0.56012   0.79375   0.16667   0.00000  Uiso   1.00
O410   O     0.56012   0.87291   0.16667   0.00000  Uiso   1.00
O411   O     0.43988   0.79375   0.16666   0.00000  Uiso   1.00
O412   O     0.50000   0.87292   0.09613   0.00000  Uiso   1.00
O413   O     0.50000   0.79375   0.23720   0.00000  Uiso   1.00
O414   O     0.50000   0.87292   0.23720   0.00000  Uiso   1.00
O415   O     0.50000   0.79375   0.09613   0.00000  Uiso   1.00
O416   O     0.37577   0.77150   0.10555   0.00000  Uiso   1.00
C417   C     0.75413   0.83320   0.16689   0.00000  Uiso   1.00
C418   C     0.68812   0.86223   0.20003   0.00000  Uiso   1.00
C419   C     0.95716   0.83384   0.16601   0.00000  Uiso   1.00
C420   C     0.70951   0.83282   0.16732   0.00000  Uiso   1.00
C421   C     0.80719   0.69138   0.13687   0.00000  Uiso   1.00
C422   C     0.85948   0.97528   0.19646   0.00000  Uiso   1.00
C423   C     0.85948   0.69153   0.19646   0.00000  Uiso   1.00
C424   C     0.80719   0.97514   0.13687   0.00000  Uiso   1.00
C425   C     0.72335   0.79334   0.06204   0.00000  Uiso   1.00
C426   C     0.94331   0.87332   0.27129   0.00000  Uiso   1.00
C427   C     0.94563   0.80220   0.05950   0.00000  Uiso   1.00
C428   C     0.91254   0.83346   0.16645   0.00000  Uiso   1.00
C429   C     0.72105   0.86444   0.27384   0.00000  Uiso   1.00
C430   C     0.83307   0.83336   0.07355   0.00000  Uiso   1.00
C431   C     0.83360   0.83330   0.25979   0.00000  Uiso   1.00
C432   C     0.83324   0.83338   0.02185   0.00000  Uiso   1.00
C433   C     0.83343   0.83329   0.31149   0.00000  Uiso   1.00
C434   C     0.68818   0.80349   0.13442   0.00000  Uiso   1.00
C435   C     0.97848   0.86317   0.19892   0.00000  Uiso   1.00
C436   C     0.97855   0.80444   0.13331   0.00000  Uiso   1.00
Cu437  Cu    0.83333   0.88022   0.16667   0.00000  Uiso   1.00
Cu438  Cu    0.83333   0.78645   0.16667   0.00000  Uiso   1.00
H439   H     0.78624   0.70997   0.11297   0.00000  Uiso   1.00
H440   H     0.96599   0.87868   0.30120   0.00000  Uiso   1.00
H441   H     0.91974   0.82581   0.06876   0.00000  Uiso   1.00
H442   H     0.93469   0.77800   0.03045   0.00000  Uiso   1.00
H443   H     0.97141   0.82326   0.04382   0.00000  Uiso   1.00
H444   H     0.73194   0.88864   0.30291   0.00000  Uiso   1.00
H445   H     0.74697   0.84089   0.26457   0.00000  Uiso   1.00
H446   H     0.69529   0.84332   0.28948   0.00000  Uiso   1.00
H447   H     0.88043   0.95670   0.22036   0.00000  Uiso   1.00
H448   H     0.88043   0.71023   0.22036   0.00000  Uiso   1.00
H449   H     0.78624   0.95644   0.11297   0.00000  Uiso   1.00
H450   H     0.75239   0.77614   0.05056   0.00000  Uiso   1.00
H451   H     0.73018   0.83141   0.06597   0.00000  Uiso   1.00
H452   H     0.70073   0.78785   0.03211   0.00000  Uiso   1.00
H453   H     0.93635   0.83528   0.26731   0.00000  Uiso   1.00
H454   H     0.91434   0.89063   0.28285   0.00000  Uiso   1.00
N455   N     0.83333   0.95069   0.16667   0.00000  Uiso   1.00
N456   N     0.83333   0.71598   0.16667   0.00000  Uiso   1.00
O457   O     0.77321   0.87291   0.16666   0.00000  Uiso   1.00
O458   O     0.95756   0.89516   0.22779   0.00000  Uiso   1.00
O459   O     0.95781   0.77557   0.10075   0.00000  Uiso   1.00
O460   O     0.70885   0.89109   0.23260   0.00000  Uiso   1.00
O461   O     0.89345   0.79375   0.16667   0.00000  Uiso   1.00
O462   O     0.89345   0.87291   0.16667   0.00000  Uiso   1.00
O463   O     0.77321   0.79375   0.16666   0.00000  Uiso   1.00
O464   O     0.83333   0.87292   0.09613   0.00000  Uiso   1.00
O465   O     0.83333   0.79375   0.23720   0.00000  Uiso   1.00
O466   O     0.83333   0.87292   0.23720   0.00000  Uiso   1.00
O467   O     0.83333   0.79375   0.09613   0.00000  Uiso   1.00
O468   O     0.70910   0.77150   0.10555   0.00000  Uiso   1.00
C469   C     0.08746   0.16654   0.50022   0.00000  Uiso   1.00
C470   C     0.02145   0.19556   0.53336   0.00000  Uiso   1.00
C471   C     0.29049   0.16717   0.49935   0.00000  Uiso   1.00
C472   C     0.04284   0.16616   0.50066   0.00000  Uiso   1.00
C473   C     0.14052   0.02472   0.47020   0.00000  Uiso   1.00
C474   C     0.19281   0.30862   0.52980   0.00000  Uiso   1.00
C475   C     0.19281   0.02486   0.52980   0.00000  Uiso   1.00
C476   C     0.14052   0.30847   0.47020   0.00000  Uiso   1.00
C477   C     0.05668   0.12668   0.39538   0.00000  Uiso   1.00
C478   C     0.27664   0.20666   0.60462   0.00000  Uiso   1.00
C479   C     0.27896   0.13554   0.39283   0.00000  Uiso   1.00
C480   C     0.24587   0.16680   0.49978   0.00000  Uiso   1.00
C481   C     0.05439   0.19777   0.60717   0.00000  Uiso   1.00
C482   C     0.16641   0.16670   0.40688   0.00000  Uiso   1.00
C483   C     0.16693   0.16664   0.59312   0.00000  Uiso   1.00
C484   C     0.16657   0.16671   0.35518   0.00000  Uiso   1.00
C485   C     0.16677   0.16662   0.64482   0.00000  Uiso   1.00
C486   C     0.02152   0.13683   0.46775   0.00000  Uiso   1.00
C487   C     0.31181   0.19650   0.53226   0.00000  Uiso   1.00
C488   C     0.31188   0.13777   0.46664   0.00000  Uiso   1.00
Cu489  Cu    0.16667   0.21355   0.50000   0.00000  Uiso   1.00
Cu490  Cu    0.16667   0.11978   0.50000   0.00000  Uiso   1.00
H491   H     0.11957   0.04330   0.44631   0.00000  Uiso   1.00
H492   H     0.29932   0.21201   0.63453   0.00000  Uiso   1.00
H493   H     0.25308   0.15915   0.40209   0.00000  Uiso   1.00
H494   H     0.26802   0.11134   0.36379   0.00000  Uiso   1.00
H495   H     0.30474   0.15660   0.37716   0.00000  Uiso   1.00
H496   H     0.06528   0.22197   0.63624   0.00000  Uiso   1.00
H497   H     0.08031   0.17422   0.59791   0.00000  Uiso   1.00
H498   H     0.02863   0.17665   0.62281   0.00000  Uiso   1.00
H499   H     0.21376   0.29003   0.55369   0.00000  Uiso   1.00
H500   H     0.21376   0.04356   0.55370   0.00000  Uiso   1.00
H501   H     0.11957   0.28977   0.44630   0.00000  Uiso   1.00
H502   H     0.08572   0.10947   0.38390   0.00000  Uiso   1.00
H503   H     0.06351   0.16474   0.39930   0.00000  Uiso   1.00
H504   H     0.03406   0.12119   0.36544   0.00000  Uiso   1.00
H505   H     0.26968   0.16862   0.60064   0.00000  Uiso   1.00
H506   H     0.24767   0.22397   0.61619   0.00000  Uiso   1.00
N507   N     0.16667   0.28402   0.50000   0.00000  Uiso   1.00
N508   N     0.16667   0.04931   0.50000   0.00000  Uiso   1.00
O509   O     0.10655   0.20625   0.50000   0.00000  Uiso   1.00
O510   O     0.29089   0.22850   0.56112   0.00000  Uiso   1.00
O511   O     0.29114   0.10890   0.43409   0.00000  Uiso   1.00
O512   O     0.04219   0.22442   0.56593   0.00000  Uiso   1.00
O513   O     0.22679   0.12709   0.50000   0.00000  Uiso   1.00
O514   O     0.22679   0.20625   0.50000   0.00000  Uiso   1.00
O515   O     0.10655   0.12709   0.50000   0.00000  Uiso   1.00
O516   O     0.16667   0.20625   0.42946   0.00000  Uiso   1.00
O517   O     0.16667   0.12708   0.57054   0.00000  Uiso   1.00
O518   O     0.16667   0.20625   0.57054   0.00000  Uiso   1.00
O519   O     0.16667   0.12708   0.42946   0.00000  Uiso   1.00
O520   O     0.04244   0.10483   0.43888   0.00000  Uiso   1.00
C521   C     0.42080   0.16654   0.50022   0.00000  Uiso   1.00
C522   C     0.35479   0.19556   0.53336   0.00000  Uiso   1.00
C523   C     0.62382   0.16717   0.49935   0.00000  Uiso   1.00
C524   C     0.37618   0.16616   0.50066   0.00000  Uiso   1.00
C525   C     0.47386   0.02472   0.47020   0.00000  Uiso   1.00
C526   C     0.52614   0.30862   0.52980   0.00000  Uiso   1.00
C527   C     0.52614   0.02486   0.52980   0.00000  Uiso   1.00
C528   C     0.47386   0.30847   0.47020   0.00000  Uiso   1.00
C529   C     0.39002   0.12668   0.39538   0.00000  Uiso   1.00
C530   C     0.60997   0.20666   0.60462   0.00000  Uiso   1.00
C531   C     0.61229   0.13554   0.39283   0.00000  Uiso   1.00
C532   C     0.57920   0.16680   0.49978   0.00000  Uiso   1.00
C533   C     0.38772   0.19777   0.60717   0.00000  Uiso   1.00
C534   C     0.49974   0.16670   0.40688   0.00000  Uiso   1.00
C535   C     0.50027   0.16664   0.59312   0.00000  Uiso   1.00
C536   C     0.49990   0.16671   0.35518   0.00000  Uiso   1.00
C537   C     0.50010   0.16662   0.64482   0.00000  Uiso   1.00
C538   C     0.35485   0.13683   0.46775   0.00000  Uiso   1.00
C539   C     0.64515   0.19650   0.53226   0.00000  Uiso   1.00
C540   C     0.64521   0.13777   0.46664   0.00000  Uiso   1.00
Cu541  Cu    0.50000   0.21355   0.50000   0.00000  Uiso   1.00
Cu542  Cu    0.50000   0.11978   0.50000   0.00000  Uiso   1.00
H543   H     0.45291   0.04330   0.44631   0.00000  Uiso   1.00
H544   H     0.63266   0.21201   0.63453   0.00000  Uiso   1.00
H545   H     0.58641   0.15915   0.40209   0.00000  Uiso   1.00
H546   H     0.60136   0.11134   0.36379   0.00000  Uiso   1.00
H547   H     0.63807   0.15660   0.37716   0.00000  Uiso   1.00
H548   H     0.39861   0.22197   0.63624   0.00000  Uiso   1.00
H549   H     0.41364   0.17422   0.59791   0.00000  Uiso   1.00
H550   H     0.36196   0.17665   0.62281   0.00000  Uiso   1.00
H551   H     0.54709   0.29003   0.55369   0.00000  Uiso   1.00
H552   H     0.54709   0.04356   0.55370   0.00000  Uiso   1.00
H553   H     0.45290   0.28977   0.44630   0.00000  Uiso   1.00
H554   H     0.41905   0.10947   0.38390   0.00000  Uiso   1.00
H555   H     0.39684   0.16474   0.39930   0.00000  Uiso   1.00
H556   H     0.36739   0.12119   0.36544   0.00000  Uiso   1.00
H557   H     0.60302   0.16862   0.60064   0.00000  Uiso   1.00
H558   H     0.58100   0.22397   0.61619   0.00000  Uiso   1.00
N559   N     0.50000   0.28402   0.50000   0.00000  Uiso   1.00
N560   N     0.50000   0.04931   0.50000   0.00000  Uiso   1.00
O561   O     0.43988   0.20625   0.50000   0.00000  Uiso   1.00
O562   O     0.62423   0.22850   0.56112   0.00000  Uiso   1.00
O563   O     0.62448   0.10890   0.43409   0.00000  Uiso   1.00
O564   O     0.37552   0.22442   0.56593   0.00000  Uiso   1.00
O565   O     0.56012   0.12709   0.50000   0.00000  Uiso   1.00
O566   O     0.56012   0.20625   0.50000   0.00000  Uiso   1.00
O567   O     0.43988   0.12709   0.50000   0.00000  Uiso   1.00
O568   O     0.50000   0.20625   0.42946   0.00000  Uiso   1.00
O569   O     0.50000   0.12708   0.57054   0.00000  Uiso   1.00
O570   O     0.50000   0.20625   0.57054   0.00000  Uiso   1.00
O571   O     0.50000   0.12708   0.42946   0.00000  Uiso   1.00
O572   O     0.37577   0.10483   0.43888   0.00000  Uiso   1.00
C573   C     0.75413   0.16654   0.50022   0.00000  Uiso   1.00
C574   C     0.68812   0.19556   0.53336   0.00000  Uiso   1.00
C575   C     0.95716   0.16717   0.49935   0.00000  Uiso   1.00
C576   C     0.70951   0.16616   0.50066   0.00000  Uiso   1.00
C577   C     0.80719   0.02472   0.47020   0.00000  Uiso   1.00
C578   C     0.85948   0.30862   0.52980   0.00000  Uiso   1.00
C579   C     0.85948   0.02486   0.52980   0.00000  Uiso   1.00
C580   C     0.80719   0.30847   0.47020   0.00000  Uiso   1.00
C581   C     0.72335   0.12668   0.39538   0.00000  Uiso   1.00
C582   C     0.94331   0.20666   0.60462   0.00000  Uiso   1.00
C583   C     0.94563   0.13554   0.39283   0.00000  Uiso   1.00
C584   C     0.91254   0.16680   0.49978   0.00000  Uiso   1.00
C585   C     0.72105   0.19777   0.60717   0.00000  Uiso   1.00
C586   C     0.83307   0.16670   0.40688   0.00000  Uiso   1.00
C587   C     0.83360   0.16664   0.59312   0.00000  Uiso   1.00
C588   C     0.83324   0.16671   0.35518   0.00000  Uiso   1.00
C589   C     0.83343   0.16662   0.64482   0.00000  Uiso   1.00
C590   C     0.68818   0.13683   0.46775   0.00000  Uiso   1.00
C591   C     0.97848   0.19650   0.53226   0.00000  Uiso   1.00
C592   C     0.97855   0.13777   0.46664   0.00000  Uiso   1.00
Cu593  Cu    0.83333   0.21355   0.50000   0.00000  Uiso   1.00
Cu594  Cu    0.83333   0.11978   0.50000   0.00000  Uiso   1.00
H595   H     0.78624   0.04330   0.44631   0.00000  Uiso   1.00
H596   H     0.96599   0.21201   0.63453   0.00000  Uiso   1.00
H597   H     0.91974   0.15915   0.40209   0.00000  Uiso   1.00
H598   H     0.93469   0.11134   0.36379   0.00000  Uiso   1.00
H599   H     0.97141   0.15660   0.37716   0.00000  Uiso   1.00
H600   H     0.73194   0.22197   0.63624   0.00000  Uiso   1.00
H601   H     0.74697   0.17422   0.59791   0.00000  Uiso   1.00
H602   H     0.69529   0.17665   0.62281   0.00000  Uiso   1.00
H603   H     0.88043   0.29003   0.55369   0.00000  Uiso   1.00
H604   H     0.88043   0.04356   0.55370   0.00000  Uiso   1.00
H605   H     0.78624   0.28977   0.44630   0.00000  Uiso   1.00
H606   H     0.75239   0.10947   0.38390   0.00000  Uiso   1.00
H607   H     0.73018   0.16474   0.39930   0.00000  Uiso   1.00
H608   H     0.70073   0.12119   0.36544   0.00000  Uiso   1.00
H609   H     0.93635   0.16862   0.60064   0.00000  Uiso   1.00
H610   H     0.91434   0.22397   0.61619   0.00000  Uiso   1.00
N611   N     0.83333   0.28402   0.50000   0.00000  Uiso   1.00
N612   N     0.83333   0.04931   0.50000   0.00000  Uiso   1.00
O613   O     0.77321   0.20625   0.50000   0.00000  Uiso   1.00
O614   O     0.95756   0.22850   0.56112   0.00000  Uiso   1.00
O615   O     0.95781   0.10890   0.43409   0.00000  Uiso   1.00
O616   O     0.70885   0.22442   0.56593   0.00000  Uiso   1.00
O617   O     0.89345   0.12709   0.50000   0.00000  Uiso   1.00
O618   O     0.89345   0.20625   0.50000   0.00000  Uiso   1.00
O619   O     0.77321   0.12709   0.50000   0.00000  Uiso   1.00
O620   O     0.83333   0.20625   0.42946   0.00000  Uiso   1.00
O621   O     0.83333   0.12708   0.57054   0.00000  Uiso   1.00
O622   O     0.83333   0.20625   0.57054   0.00000  Uiso   1.00
O623   O     0.83333   0.12708   0.42946   0.00000  Uiso   1.00
O624   O     0.70910   0.10483   0.43888   0.00000  Uiso   1.00
C625   C     0.08746   0.49987   0.50022   0.00000  Uiso   1.00
C626   C     0.02145   0.52889   0.53336   0.00000  Uiso   1.00
C627   C     0.29049   0.50051   0.49935   0.00000  Uiso   1.00
C628   C     0.04284   0.49949   0.50066   0.00000  Uiso   1.00
C629   C     0.14052   0.35805   0.47020   0.00000  Uiso   1.00
C630   C     0.19281   0.64195   0.52980   0.00000  Uiso   1.00
C631   C     0.19281   0.35819   0.52980   0.00000  Uiso   1.00
C632   C     0.14052   0.64181   0.47020   0.00000  Uiso   1.00
C633   C     0.05668   0.46001   0.39538   0.00000  Uiso   1.00
C634   C     0.27664   0.53999   0.60462   0.00000  Uiso   1.00
C635   C     0.27896   0.46887   0.39283   0.00000  Uiso   1.00
C636   C     0.24587   0.50013   0.49978   0.00000  Uiso   1.00
C637   C     0.05439   0.53111   0.60717   0.00000  Uiso   1.00
C638   C     0.16641   0.50003   0.40688   0.00000  Uiso   1.00
C639   C     0.16693   0.49997   0.59312   0.00000  Uiso   1.00
C640   C     0.16657   0.50005   0.35518   0.00000  Uiso   1.00
C641   C     0.16677   0.49995   0.64482   0.00000  Uiso   1.00
C642   C     0.02152   0.47016   0.46775   0.00000  Uiso   1.00
C643   C     0.31181   0.52984   0.53226   0.00000  Uiso   1.00
C644   C     0.31188   0.47110   0.46664   0.00000  Uiso   1.00
Cu645  Cu    0.16667   0.54689   0.50000   0.00000  Uiso   1.00
Cu646  Cu    0.16667   0.45311   0.50000   0.00000  Uiso   1.00
H647   H     0.11957   0.37664   0.44631   0.00000  Uiso   1.00
H648   H     0.29932   0.54535   0.63453   0.00000  Uiso   1.00
H649   H     0.25308   0.49248   0.40209   0.00000  Uiso   1.00
H650   H     0.26802   0.44467   0.36379   0.00000  Uiso   1.00
H651   H     0.30474   0.48993   0.37716   0.00000  Uiso   1.00
H652   H     0.06528   0.55530   0.63624   0.00000  Uiso   1.00
H653   H     0.08031   0.50755   0.59791   0.00000  Uiso   1.00
H654   H     0.02863   0.50999   0.62281   0.00000  Uiso   1.00
H655   H     0.21376   0.62336   0.55369   0.00000  Uiso   1.00
H656   H     0.21376   0.37690   0.55370   0.00000  Uiso   1.00
H657   H     0.11957   0.62310   0.44630   0.00000  Uiso   1.00
H658   H     0.08572   0.44280   0.38390   0.00000  Uiso   1.00
H659   H     0.06351   0.49807   0.39930   0.00000  Uiso   1.00
H660   H     0.03406   0.45452   0.36544   0.00000  Uiso   1.00
H661   H     0.26968   0.50195   0.60064   0.00000  Uiso   1.00
H662   H     0.24767   0.55730   0.61619   0.00000  Uiso   1.00
N663   N     0.16667   0.61736   0.50000   0.00000  Uiso   1.00
N664   N     0.16667   0.38264   0.50000   0.00000  Uiso   1.00
O665   O     0.10655   0.53958   0.50000   0.00000  Uiso   1.00
O666   O     0.29089   0.56183   0.56112   0.00000  Uiso   1.00
O667   O     0.29114   0.44224   0.43409   0.00000  Uiso   1.00
O668   O     0.04219   0.55775   0.56593   0.00000  Uiso   1.00
O669   O     0.22679   0.46042   0.50000   0.00000  Uiso   1.00
O670   O     0.22679   0.53958   0.50000   0.00000  Uiso   1.00
O671   O     0.10655   0.46042   0.50000   0.00000  Uiso   1.00
O672   O     0.16667   0.53959   0.42946   0.00000  Uiso   1.00
O673   O     0.16667   0.46041   0.57054   0.00000  Uiso   1.00
O674   O     0.16667   0.53959   0.57054   0.00000  Uiso   1.00
O675   O     0.16667   0.46041   0.42946   0.00000  Uiso   1.00
O676   O     0.04244   0.43817   0.43888   0.00000  Uiso   1.00
C677   C     0.42080   0.49987   0.50022   0.00000  Uiso   1.00
C678   C     0.35479   0.52889   0.53336   0.00000  Uiso   1.00
C679   C     0.62382   0.50051   0.49935   0.00000  Uiso   1.00
C680   C     0.37618   0.49949   0.50066   0.00000  Uiso   1.00
C681   C     0.47386   0.35805   0.47020   0.00000  Uiso   1.00
C682   C     0.52614   0.64195   0.52980   0.00000  Uiso   1.00
C683   C     0.52614   0.35819   0.52980   0.00000  Uiso   1.00
C684   C     0.47386   0.64181   0.47020   0.00000  Uiso   1.00
C685   C     0.39002   0.46001   0.39538   0.00000  Uiso   1.00
C686   C     0.60997   0.53999   0.60462   0.00000  Uiso   1.00
C687   C     0.61229   0.46887   0.39283   0.00000  Uiso   1.00
C688   C     0.57920   0.50013   0.49978   0.00000  Uiso   1.00
C689   C     0.38772   0.53111   0.60717   0.00000  Uiso   1.00
C690   C     0.49974   0.50003   0.40688   0.00000  Uiso   1.00
C691   C     0.50027   0.49997   0.59312   0.00000  Uiso   1.00
C692   C     0.49990   0.50005   0.35518   0.00000  Uiso   1.00
C693   C     0.50010   0.49995   0.64482   0.00000  Uiso   1.00
C694   C     0.35485   0.47016   0.46775   0.00000  Uiso   1.00
C695   C     0.64515   0.52984   0.53226   0.00000  Uiso   1.00
C696   C     0.64521   0.47110   0.46664   0.00000  Uiso   1.00
Cu697  Cu    0.50000   0.54689   0.50000   0.00000  Uiso   1.00
Cu698  Cu    0.50000   0.45311   0.50000   0.00000  Uiso   1.00
H699   H     0.45291   0.37664   0.44631   0.00000  Uiso   1.00
H700   H     0.63266   0.54535   0.63453   0.00000  Uiso   1.00
H701   H     0.58641   0.49248   0.40209   0.00000  Uiso   1.00
H702   H     0.60136   0.44467   0.36379   0.00000  Uiso   1.00
H703   H     0.63807   0.48993   0.37716   0.00000  Uiso   1.00
H704   H     0.39861   0.55530   0.63624   0.00000  Uiso   1.00
H705   H     0.41364   0.50755   0.59791   0.00000  Uiso   1.00
H706   H     0.36196   0.50999   0.62281   0.00000  Uiso   1.00
H707   H     0.54709   0.62336   0.55369   0.00000  Uiso   1.00
H708   H     0.54709   0.37690   0.55370   0.00000  Uiso   1.00
H709   H     0.45290   0.62310   0.44630   0.00000  Uiso   1.00
H710   H     0.41905   0.44280   0.38390   0.00000  Uiso   1.00
H711   H     0.39684   0.49807   0.39930   0.00000  Uiso   1.00
H712   H     0.36739   0.45452   0.36544   0.00000  Uiso   1.00
H713   H     0.60302   0.50195   0.60064   0.00000  Uiso   1.00
H714   H     0.58100   0.55730   0.61619   0.00000  Uiso   1.00
N715   N     0.50000   0.61736   0.50000   0.00000  Uiso   1.00
N716   N     0.50000   0.38264   0.50000   0.00000  Uiso   1.00
O717   O     0.43988   0.53958   0.50000   0.00000  Uiso   1.00
O718   O     0.62423   0.56183   0.56112   0.00000  Uiso   1.00
O719   O     0.62448   0.44224   0.43409   0.00000  Uiso   1.00
O720   O     0.37552   0.55775   0.56593   0.00000  Uiso   1.00
O721   O     0.56012   0.46042   0.50000   0.00000  Uiso   1.00
O722   O     0.56012   0.53958   0.50000   0.00000  Uiso   1.00
O723   O     0.43988   0.46042   0.50000   0.00000  Uiso   1.00
O724   O     0.50000   0.53959   0.42946   0.00000  Uiso   1.00
O725   O     0.50000   0.46041   0.57054   0.00000  Uiso   1.00
O726   O     0.50000   0.53959   0.57054   0.00000  Uiso   1.00
O727   O     0.50000   0.46041   0.42946   0.00000  Uiso   1.00
O728   O     0.37577   0.43817   0.43888   0.00000  Uiso   1.00
C729   C     0.75413   0.49987   0.50022   0.00000  Uiso   1.00
C730   C     0.68812   0.52889   0.53336   0.00000  Uiso   1.00
C731   C     0.95716   0.50051   0.49935   0.00000  Uiso   1.00
C732   C     0.70951   0.49949   0.50066   0.00000  Uiso   1.00
C733   C     0.80719   0.35805   0.47020   0.00000  Uiso   1.00
C734   C     0.85948   0.64195   0.52980   0.00000  Uiso   1.00
C735   C     0.85948   0.35819   0.52980   0.00000  Uiso   1.00
C736   C     0.80719   0.64181   0.47020   0.00000  Uiso   1.00
C737   C     0.72335   0.46001   0.39538   0.00000  Uiso   1.00
C738   C     0.94331   0.53999   0.60462   0.00000  Uiso   1.00
C739   C     0.94563   0.46887   0.39283   0.00000  Uiso   1.00
C740   C     0.91254   0.50013   0.49978   0.00000  Uiso   1.00
C741   C     0.72105   0.53111   0.60717   0.00000  Uiso   1.00
C742   C     0.83307   0.50003   0.40688   0.00000  Uiso   1.00
C743   C     0.83360   0.49997   0.59312   0.00000  Uiso   1.00
C744   C     0.83324   0.50005   0.35518   0.00000  Uiso   1.00
C745   C     0.83343   0.49995   0.64482   0.00000  Uiso   1.00
C746   C     0.68818   0.47016   0.46775   0.00000  Uiso   1.00
C747   C     0.97848   0.52984   0.53226   0.00000  Uiso   1.00
C748   C     0.97855   0.47110   0.46664   0.00000  Uiso   1.00
Cu749  Cu    0.83333   0.54689   0.50000   0.00000  Uiso   1.00
Cu750  Cu    0.83333   0.45311   0.50000   0.00000  Uiso   1.00
H751   H     0.78624   0.37664   0.44631   0.00000  Uiso   1.00
H752   H     0.96599   0.54535   0.63453   0.00000  Uiso   1.00
H753   H     0.91974   0.49248   0.40209   0.00000  Uiso   1.00
H754   H     0.93469   0.44467   0.36379   0.00000  Uiso   1.00
H755   H     0.97141   0.48993   0.37716   0.00000  Uiso   1.00
H756   H     0.73194   0.55530   0.63624   0.00000  Uiso   1.00
H757   H     0.74697   0.50755   0.59791   0.00000  Uiso   1.00
H758   H     0.69529   0.50999   0.62281   0.00000  Uiso   1.00
H759   H     0.88043   0.62336   0.55369   0.00000  Uiso   1.00
H760   H     0.88043   0.37690   0.55370   0.00000  Uiso   1.00
H761   H     0.78624   0.62310   0.44630   0.00000  Uiso   1.00
H762   H     0.75239   0.44280   0.38390   0.00000  Uiso   1.00
H763   H     0.73018   0.49807   0.39930   0.00000  Uiso   1.00
H764   H     0.70073   0.45452   0.36544   0.00000  Uiso   1.00
H765   H     0.93635   0.50195   0.60064   0.00000  Uiso   1.00
H766   H     0.91434   0.55730   0.61619   0.00000  Uiso   1.00
N767   N     0.83333   0.61736   0.50000   0.00000  Uiso   1.00
N768   N     0.83333   0.38264   0.50000   0.00000  Uiso   1.00
O769   O     0.77321   0.53958   0.50000   0.00000  Uiso   1.00
O770   O     0.95756   0.56183   0.56112   0.00000  Uiso   1.00
O771   O     0.95781   0.44224   0.43409   0.00000  Uiso   1.00
O772   O     0.70885   0.55775   0.56593   0.00000  Uiso   1.00
O773   O     0.89345   0.46042   0.50000   0.00000  Uiso   1.00
O774   O     0.89345   0.53958   0.50000   0.00000  Uiso   1.00
O775   O     0.77321   0.46042   0.50000   0.00000  Uiso   1.00
O776   O     0.83333   0.53959   0.42946   0.00000  Uiso   1.00
O777   O     0.83333   0.46041   0.57054   0.00000  Uiso   1.00
O778   O     0.83333   0.53959   0.57054   0.00000  Uiso   1.00
O779   O     0.83333   0.46041   0.42946   0.00000  Uiso   1.00
O780   O     0.70910   0.43817   0.43888   0.00000  Uiso   1.00
C781   C     0.08746   0.83320   0.50022   0.00000  Uiso   1.00
C782   C     0.02145   0.86223   0.53336   0.00000  Uiso   1.00
C783   C     0.29049   0.83384   0.49935   0.00000  Uiso   1.00
C784   C     0.04284   0.83282   0.50066   0.00000  Uiso   1.00
C785   C     0.14052   0.69138   0.47020   0.00000  Uiso   1.00
C786   C     0.19281   0.97528   0.52980   0.00000  Uiso   1.00
C787   C     0.19281   0.69153   0.52980   0.00000  Uiso   1.00
C788   C     0.14052   0.97514   0.47020   0.00000  Uiso   1.00
C789   C     0.05668   0.79334   0.39538   0.00000  Uiso   1.00
C790   C     0.27664   0.87332   0.60462   0.00000  Uiso   1.00
C791   C     0.27896   0.80220   0.39283   0.00000  Uiso   1.00
C792   C     0.24587   0.83346   0.49978   0.00000  Uiso   1.00
C793   C     0.05439   0.86444   0.60717   0.00000  Uiso   1.00
C794   C     0.16641   0.83336   0.40688   0.00000  Uiso   1.00
C795   C     0.16693   0.83330   0.59312   0.00000  Uiso   1.00
C796   C     0.16657   0.83338   0.35518   0.00000  Uiso   1.00
C797   C     0.16677   0.83329   0.64482   0.00000  Uiso   1.00
C798   C     0.02152   0.80349   0.46775   0.00000  Uiso   1.00
C799   C     0.31181   0.86317   0.53226   0.00000  Uiso   1.00
C800   C     0.31188   0.80444   0.46664   0.00000  Uiso   1.00
Cu801  Cu    0.16667   0.88022   0.50000   0.00000  Uiso   1.00
Cu802  Cu    0.16667   0.78645   0.50000   0.00000  Uiso   1.00
H803   H     0.11957   0.70997   0.44631   0.00000  Uiso   1.00
H804   H     0.29932   0.87868   0.63453   0.00000  Uiso   1.00
H805   H     0.25308   0.82581   0.40209   0.00000  Uiso   1.00
H806   H     0.26802   0.77800   0.36379   0.00000  Uiso   1.00
H807   H     0.30474   0.82326   0.37716   0.00000  Uiso   1.00
H808   H     0.06528   0.88864   0.63624   0.00000  Uiso   1.00
H809   H     0.08031   0.84089   0.59791   0.00000  Uiso   1.00
H810   H     0.02863   0.84332   0.62281   0.00000  Uiso   1.00
H811   H     0.21376   0.95670   0.55369   0.00000  Uiso   1.00
H812   H     0.21376   0.71023   0.55370   0.00000  Uiso   1.00
H813   H     0.11957   0.95644   0.44630   0.00000  Uiso   1.00
H814   H     0.08572   0.77614   0.38390   0.00000  Uiso   1.00
H815   H     0.06351   0.83141   0.39930   0.00000  Uiso   1.00
H816   H     0.03406   0.78785   0.36544   0.00000  Uiso   1.00
H817   H     0.26968   0.83528   0.60064   0.00000  Uiso   1.00
H818   H     0.24767   0.89063   0.61619   0.00000  Uiso   1.00
N819   N     0.16667   0.95069   0.50000   0.00000  Uiso   1.00
N820   N     0.16667   0.71598   0.50000   0.00000  Uiso   1.00
O821   O     0.10655   0.87291   0.50000   0.00000  Uiso   1.00
O822   O     0.29089   0.89516   0.56112   0.00000  Uiso   1.00
O823   O     0.29114   0.77557   0.43409   0.00000  Uiso   1.00
O824   O     0.04219   0.89109   0.56593   0.00000  Uiso   1.00
O825   O     0.22679   0.79375   0.50000   0.00000  Uiso   1.00
O826   O     0.22679   0.87291   0.50000   0.00000  Uiso   1.00
O827   O     0.10655   0.79375   0.50000   0.00000  Uiso   1.00
O828   O     0.16667   0.87292   0.42946   0.00000  Uiso   1.00
O829   O     0.16667   0.79375   0.57054   0.00000  Uiso   1.00
O830   O     0.16667   0.87292   0.57054   0.00000  Uiso   1.00
O831   O     0.16667   0.79375   0.42946   0.00000  Uiso   1.00
O832   O     0.04244   0.77150   0.43888   0.00000  Uiso   1.00
C833   C     0.42080   0.83320   0.50022   0.00000  Uiso   1.00
C834   C     0.35479   0.86223   0.53336   0.00000  Uiso   1.00
C835   C     0.62382   0.83384   0.49935   0.00000  Uiso   1.00
C836   C     0.37618   0.83282   0.50066   0.00000  Uiso   1.00
C837   C     0.47386   0.69138   0.47020   0.00000  Uiso   1.00
C838   C     0.52614   0.97528   0.52980   0.00000  Uiso   1.00
C839   C     0.52614   0.69153   0.52980   0.00000  Uiso   1.00
C840   C     0.47386   0.97514   0.47020   0.00000  Uiso   1.00
C841   C     0.39002   0.79334   0.39538   0.00000  Uiso   1.00
C842   C     0.60997   0.87332   0.60462   0.00000  Uiso   1.00
C843   C     0.61229   0.80220   0.39283   0.00000  Uiso   1.00
C844   C     0.57920   0.83346   0.49978   0.00000  Uiso   1.00
C845   C     0.38772   0.86444   0.60717   0.00000  Uiso   1.00
C846   C     0.49974   0.83336   0.40688   0.00000  Uiso   1.00
C847   C     0.50027   0.83330   0.59312   0.00000  Uiso   1.00
C848   C     0.49990   0.83338   0.35518   0.00000  Uiso   1.00
C849   C     0.50010   0.83329   0.64482   0.00000  Uiso   1.00
C850   C     0.35485   0.80349   0.46775   0.00000  Uiso   1.00
C851   C     0.64515   0.86317   0.53226   0.00000  Uiso   1.00
C852   C     0.64521   0.80444   0.46664   0.00000  Uiso   1.00
Cu853  Cu    0.50000   0.88022   0.50000   0.00000  Uiso   1.00
Cu854  Cu    0.50000   0.78645   0.50000   0.00000  Uiso   1.00
H855   H     0.45291   0.70997   0.44631   0.00000  Uiso   1.00
H856   H     0.63266   0.87868   0.63453   0.00000  Uiso   1.00
H857   H     0.58641   0.82581   0.40209   0.00000  Uiso   1.00
H858   H     0.60136   0.77800   0.36379   0.00000  Uiso   1.00
H859   H     0.63807   0.82326   0.37716   0.00000  Uiso   1.00
H860   H     0.39861   0.88864   0.63624   0.00000  Uiso   1.00
H861   H     0.41364   0.84089   0.59791   0.00000  Uiso   1.00
H862   H     0.36196   0.84332   0.62281   0.00000  Uiso   1.00
H863   H     0.54709   0.95670   0.55369   0.00000  Uiso   1.00
H864   H     0.54709   0.71023   0.55370   0.00000  Uiso   1.00
H865   H     0.45290   0.95644   0.44630   0.00000  Uiso   1.00
H866   H     0.41905   0.77614   0.38390   0.00000  Uiso   1.00
H867   H     0.39684   0.83141   0.39930   0.00000  Uiso   1.00
H868   H     0.36739   0.78785   0.36544   0.00000  Uiso   1.00
H869   H     0.60302   0.83528   0.60064   0.00000  Uiso   1.00
H870   H     0.58100   0.89063   0.61619   0.00000  Uiso   1.00
N871   N     0.50000   0.95069   0.50000   0.00000  Uiso   1.00
N872   N     0.50000   0.71598   0.50000   0.00000  Uiso   1.00
O873   O     0.43988   0.87291   0.50000   0.00000  Uiso   1.00
O874   O     0.62423   0.89516   0.56112   0.00000  Uiso   1.00
O875   O     0.62448   0.77557   0.43409   0.00000  Uiso   1.00
O876   O     0.37552   0.89109   0.56593   0.00000  Uiso   1.00
O877   O     0.56012   0.79375   0.50000   0.00000  Uiso   1.00
O878   O     0.56012   0.87291   0.50000   0.00000  Uiso   1.00
O879   O     0.43988   0.79375   0.50000   0.00000  Uiso   1.00
O880   O     0.50000   0.87292   0.42946   0.00000  Uiso   1.00
O881   O     0.50000   0.79375   0.57054   0.00000  Uiso   1.00
O882   O     0.50000   0.87292   0.57054   0.00000  Uiso   1.00
O883   O     0.50000   0.79375   0.42946   0.00000  Uiso   1.00
O884   O     0.37577   0.77150   0.43888   0.00000  Uiso   1.00
C885   C     0.75413   0.83320   0.50022   0.00000  Uiso   1.00
C886   C     0.68812   0.86223   0.53336   0.00000  Uiso   1.00
C887   C     0.95716   0.83384   0.49935   0.00000  Uiso   1.00
C888   C     0.70951   0.83282   0.50066   0.00000  Uiso   1.00
C889   C     0.80719   0.69138   0.47020   0.00000  Uiso   1.00
C890   C     0.85948   0.97528   0.52980   0.00000  Uiso   1.00
C891   C     0.85948   0.69153   0.52980   0.00000  Uiso   1.00
C892   C     0.80719   0.97514   0.47020   0.00000  Uiso   1.00
C893   C     0.72335   0.79334   0.39538   0.00000  Uiso   1.00
C894   C     0.94331   0.87332   0.60462   0.00000  Uiso   1.00
C895   C     0.94563   0.80220   0.39283   0.00000  Uiso   1.00
C896   C     0.91254   0.83346   0.49978   0.00000  Uiso   1.00
C897   C     0.72105   0.86444   0.60717   0.00000  Uiso   1.00
C898   C     0.83307   0.83336   0.40688   0.00000  Uiso   1.00
C899   C     0.83360   0.83330   0.59312   0.00000  Uiso   1.00
C900   C     0.83324   0.83338   0.35518   0.00000  Uiso   1.00
C901   C     0.83343   0.83329   0.64482   0.00000  Uiso   1.00
C902   C     0.68818   0.80349   0.46775   0.00000  Uiso   1.00
C903   C     0.97848   0.86317   0.53226   0.00000  Uiso   1.00
C904   C     0.97855   0.80444   0.46664   0.00000  Uiso   1.00
Cu905  Cu    0.83333   0.88022   0.50000   0.00000  Uiso   1.00
Cu906  Cu    0.83333   0.78645   0.50000   0.00000  Uiso   1.00
H907   H     0.78624   0.70997   0.44631   0.00000  Uiso   1.00
H908   H     0.96599   0.87868   0.63453   0.00000  Uiso   1.00
H909   H     0.91974   0.82581   0.40209   0.00000  Uiso   1.00
H910   H     0.93469   0.77800   0.36379   0.00000  Uiso   1.00
H911   H     0.97141   0.82326   0.37716   0.00000  Uiso   1.00
H912   H     0.73194   0.88864   0.63624   0.00000  Uiso   1.00
H913   H     0.74697   0.84089   0.59791   0.00000  Uiso   1.00
H914   H     0.69529   0.84332   0.62281   0.00000  Uiso   1.00
H915   H     0.88043   0.95670   0.55369   0.00000  Uiso   1.00
H916   H     0.88043   0.71023   0.55370   0.00000  Uiso   1.00
H917   H     0.78624   0.95644   0.44630   0.00000  Uiso   1.00
H918   H     0.75239   0.77614   0.38390   0.00000  Uiso   1.00
H919   H     0.73018   0.83141   0.39930   0.00000  Uiso   1.00
H920   H     0.70073   0.78785   0.36544   0.00000  Uiso   1.00
H921   H     0.93635   0.83528   0.60064   0.00000  Uiso   1.00
H922   H     0.91434   0.89063   0.61619   0.00000  Uiso   1.00
N923   N     0.83333   0.95069   0.50000   0.00000  Uiso   1.00
N924   N     0.83333   0.71598   0.50000   0.00000  Uiso   1.00
O925   O     0.77321   0.87291   0.50000   0.00000  Uiso   1.00
O926   O     0.95756   0.89516   0.56112   0.00000  Uiso   1.00
O927   O     0.95781   0.77557   0.43409   0.00000  Uiso   1.00
O928   O     0.70885   0.89109   0.56593   0.00000  Uiso   1.00
O929   O     0.89345   0.79375   0.50000   0.00000  Uiso   1.00
O930   O     0.89345   0.87291   0.50000   0.00000  Uiso   1.00
O931   O     0.77321   0.79375   0.50000   0.00000  Uiso   1.00
O932   O     0.83333   0.87292   0.42946   0.00000  Uiso   1.00
O933   O     0.83333   0.79375   0.57054   0.00000  Uiso   1.00
O934   O     0.83333   0.87292   0.57054   0.00000  Uiso   1.00
O935   O     0.83333   0.79375   0.42946   0.00000  Uiso   1.00
O936   O     0.70910   0.77150   0.43888   0.00000  Uiso   1.00
C937   C     0.08746   0.16654   0.83355   0.00000  Uiso   1.00
C938   C     0.02145   0.19556   0.86670   0.00000  Uiso   1.00
C939   C     0.29049   0.16717   0.83268   0.00000  Uiso   1.00
C940   C     0.04284   0.16616   0.83399   0.00000  Uiso   1.00
C941   C     0.14052   0.02472   0.80354   0.00000  Uiso   1.00
C942   C     0.19281   0.30862   0.86313   0.00000  Uiso   1.00
C943   C     0.19281   0.02486   0.86313   0.00000  Uiso   1.00
C944   C     0.14052   0.30847   0.80354   0.00000  Uiso   1.00
C945   C     0.05668   0.12668   0.72871   0.00000  Uiso   1.00
C946   C     0.27664   0.20666   0.93796   0.00000  Uiso   1.00
C947   C     0.27896   0.13554   0.72616   0.00000  Uiso   1.00
C948   C     0.24587   0.16680   0.83311   0.00000  Uiso   1.00
C949   C     0.05439   0.19777   0.94050   0.00000  Uiso   1.00
C950   C     0.16641   0.16670   0.74021   0.00000  Uiso   1.00
C951   C     0.16693   0.16664   0.92645   0.00000  Uiso   1.00
C952   C     0.16657   0.16671   0.68851   0.00000  Uiso   1.00
C953   C     0.16677   0.16662   0.97815   0.00000  Uiso   1.00
C954   C     0.02152   0.13683   0.80109   0.00000  Uiso   1.00
C955   C     0.31181   0.19650   0.86559   0.00000  Uiso   1.00
C956   C     0.31188   0.13777   0.79998   0.00000  Uiso   1.00
Cu957  Cu    0.16667   0.21355   0.83333   0.00000  Uiso   1.00
Cu958  Cu    0.16667   0.11978   0.83333   0.00000  Uiso   1.00
H959   H     0.11957   0.04330   0.77964   0.00000  Uiso   1.00
H960   H     0.29932   0.21201   0.96786   0.00000  Uiso   1.00
H961   H     0.25308   0.15915   0.73542   0.00000  Uiso   1.00
H962   H     0.26802   0.11134   0.69712   0.00000  Uiso   1.00
H963   H     0.30474   0.15660   0.71049   0.00000  Uiso   1.00
H964   H     0.06528   0.22197   0.96958   0.00000  Uiso   1.00
H965   H     0.08031   0.17422   0.93124   0.00000  Uiso   1.00
H966   H     0.02863   0.17665   0.95615   0.00000  Uiso   1.00
H967   H     0.21376   0.29003   0.88703   0.00000  Uiso   1.00
H968   H     0.21376   0.04356   0.88703   0.00000  Uiso   1.00
H969   H     0.11957   0.28977   0.77964   0.00000  Uiso   1.00
H970   H     0.08572   0.10947   0.71723   0.00000  Uiso   1.00
H971   H     0.06351   0.16474   0.73263   0.00000  Uiso   1.00
H972   H     0.03406   0.12119   0.69878   0.00000  Uiso   1.00
H973   H     0.26968   0.16862   0.93397   0.00000  Uiso   1.00
H974   H     0.24767   0.22397   0.94952   0.00000  Uiso   1.00
N975   N     0.16667   0.28402   0.83333   0.00000  Uiso   1.00
N976   N     0.16667   0.04931   0.83333   0.00000  Uiso   1.00
O977   O     0.10655   0.20625   0.83333   0.00000  Uiso   1.00
O978   O     0.29089   0.22850   0.89446   0.00000  Uiso   1.00
O979   O     0.29114   0.10890   0.76742   0.00000  Uiso   1.00
O980   O     0.04219   0.22442   0.89926   0.00000  Uiso   1.00
O981   O     0.22679   0.12709   0.83334   0.00000  Uiso   1.00
O982   O     0.22679   0.20625   0.83334   0.00000  Uiso   1.00
O983   O     0.10655   0.12709   0.83333   0.00000  Uiso   1.00
O984   O     0.16667   0.20625   0.76280   0.00000  Uiso   1.00
O985   O     0.16667   0.12708   0.90387   0.00000  Uiso   1.00
O986   O     0.16667   0.20625   0.90387   0.00000  Uiso   1.00
O987   O     0.16667   0.12708   0.76280   0.00000  Uiso   1.00
O988   O     0.04244   0.10483   0.77222   0.00000  Uiso   1.00
C989   C     0.42080   0.16654   0.83355   0.00000  Uiso   1.00
C990   C     0.35479   0.19556   0.86670   0.00000  Uiso   1.00
C991   C     0.62382   0.16717   0.83268   0.00000  Uiso   1.00
C992   C     0.37618   0.16616   0.83399   0.00000  Uiso   1.00
C993   C     0.47386   0.02472   0.80354   0.00000  Uiso   1.00
C994   C     0.52614   0.30862   0.86313   0.00000  Uiso   1.00
C995   C     0.52614   0.02486   0.86313   0.00000  Uiso   1.00
C996   C     0.47386   0.30847   0.80354   0.00000  Uiso   1.00
C997   C     0.39002   0.12668   0.72871   0.00000  Uiso   1.00
C998   C     0.60997   0.20666   0.93796   0.00000  Uiso   1.00
C999   C     0.61229   0.13554   0.72616   0.00000  Uiso   1.00
C1000  C     0.57920   0.16680   0.83311   0.00000  Uiso   1.00
C1001  C     0.38772   0.19777   0.94050   0.00000  Uiso   1.00
C1002  C     0.49974   0.16670   0.74021   0.00000  Uiso   1.00
C1003  C     0.50027   0.16664   0.92645   0.00000  Uiso   1.00
C1004  C     0.49990   0.16671   0.68851   0.00000  Uiso   1.00
C1005  C     0.50010   0.16662   0.97815   0.00000  Uiso   1.00
C1006  C     0.35485   0.13683   0.80109   0.00000  Uiso   1.00
C1007  C     0.64515   0.19650   0.86559   0.00000  Uiso   1.00
C1008  C     0.64521   0.13777   0.79998   0.00000  Uiso   1.00
Cu1009 Cu    0.50000   0.21355   0.83333   0.00000  Uiso   1.00
Cu1010 Cu    0.50000   0.11978   0.83333   0.00000  Uiso   1.00
H1011  H     0.45291   0.04330   0.77964   0.00000  Uiso   1.00
H1012  H     0.63266   0.21201   0.96786   0.00000  Uiso   1.00
H1013  H     0.58641   0.15915   0.73542   0.00000  Uiso   1.00
H1014  H     0.60136   0.11134   0.69712   0.00000  Uiso   1.00
H1015  H     0.63807   0.15660   0.71049   0.00000  Uiso   1.00
H1016  H     0.39861   0.22197   0.96958   0.00000  Uiso   1.00
H1017  H     0.41364   0.17422   0.93124   0.00000  Uiso   1.00
H1018  H     0.36196   0.17665   0.95615   0.00000  Uiso   1.00
H1019  H     0.54709   0.29003   0.88703   0.00000  Uiso   1.00
H1020  H     0.54709   0.04356   0.88703   0.00000  Uiso   1.00
H1021  H     0.45290   0.28977   0.77964   0.00000  Uiso   1.00
H1022  H     0.41905   0.10947   0.71723   0.00000  Uiso   1.00
H1023  H     0.39684   0.16474   0.73263   0.00000  Uiso   1.00
H1024  H     0.36739   0.12119   0.69878   0.00000  Uiso   1.00
H1025  H     0.60302   0.16862   0.93397   0.00000  Uiso   1.00
H1026  H     0.58100   0.22397   0.94952   0.00000  Uiso   1.00
N1027  N     0.50000   0.28402   0.83333   0.00000  Uiso   1.00
N1028  N     0.50000   0.04931   0.83333   0.00000  Uiso   1.00
O1029  O     0.43988   0.20625   0.83333   0.00000  Uiso   1.00
O1030  O     0.62423   0.22850   0.89446   0.00000  Uiso   1.00
O1031  O     0.62448   0.10890   0.76742   0.00000  Uiso   1.00
O1032  O     0.37552   0.22442   0.89926   0.00000  Uiso   1.00
O1033  O     0.56012   0.12709   0.83334   0.00000  Uiso   1.00
O1034  O     0.56012   0.20625   0.83334   0.00000  Uiso   1.00
O1035  O     0.43988   0.12709   0.83333   0.00000  Uiso   1.00
O1036  O     0.50000   0.20625   0.76280   0.00000  Uiso   1.00
O1037  O     0.50000   0.12708   0.90387   0.00000  Uiso   1.00
O1038  O     0.50000   0.20625   0.90387   0.00000  Uiso   1.00
O1039  O     0.50000   0.12708   0.76280   0.00000  Uiso   1.00
O1040  O     0.37577   0.10483   0.77222   0.00000  Uiso   1.00
C1041  C     0.75413   0.16654   0.83355   0.00000  Uiso   1.00
C1042  C     0.68812   0.19556   0.86670   0.00000  Uiso   1.00
C1043  C     0.95716   0.16717   0.83268   0.00000  Uiso   1.00
C1044  C     0.70951   0.16616   0.83399   0.00000  Uiso   1.00
C1045  C     0.80719   0.02472   0.80354   0.00000  Uiso   1.00
C1046  C     0.85948   0.30862   0.86313   0.00000  Uiso   1.00
C1047  C     0.85948   0.02486   0.86313   0.00000  Uiso   1.00
C1048  C     0.80719   0.30847   0.80354   0.00000  Uiso   1.00
C1049  C     0.72335   0.12668   0.72871   0.00000  Uiso   1.00
C1050  C     0.94331   0.20666   0.93796   0.00000  Uiso   1.00
C1051  C     0.94563   0.13554   0.72616   0.00000  Uiso   1.00
C1052  C     0.91254   0.16680   0.83311   0.00000  Uiso   1.00
C1053  C     0.72105   0.19777   0.94050   0.00000  Uiso   1.00
C1054  C     0.83307   0.16670   0.74021   0.00000  Uiso   1.00
C1055  C     0.83360   0.16664   0.92645   0.00000  Uiso   1.00
C1056  C     0.83324   0.16671   0.68851   0.00000  Uiso   1.00
C1057  C     0.83343   0.16662   0.97815   0.00000  Uiso   1.00
C1058  C     0.68818   0.13683   0.80109   0.00000  Uiso   1.00
C1059  C     0.97848   0.19650   0.86559   0.00000  Uiso   1.00
C1060  C     0.97855   0.13777   0.79998   0.00000  Uiso   1.00
Cu1061 Cu    0.83333   0.21355   0.83333   0.00000  Uiso   1.00
Cu1062 Cu    0.83333   0.11978   0.83333   0.00000  Uiso   1.00
H1063  H     0.78624   0.04330   0.77964   0.00000  Uiso   1.00
H1064  H     0.96599   0.21201   0.96786   0.00000  Uiso   1.00
H1065  H     0.91974   0.15915   0.73542   0.00000  Uiso   1.00
H1066  H     0.93469   0.11134   0.69712   0.00000  Uiso   1.00
H1067  H     0.97141   0.15660   0.71049   0.00000  Uiso   1.00
H1068  H     0.73194   0.22197   0.96958   0.00000  Uiso   1.00
H1069  H     0.74697   0.17422   0.93124   0.00000  Uiso   1.00
H1070  H     0.69529   0.17665   0.95615   0.00000  Uiso   1.00
H1071  H     0.88043   0.29003   0.88703   0.00000  Uiso   1.00
H1072  H     0.88043   0.04356   0.88703   0.00000  Uiso   1.00
H1073  H     0.78624   0.28977   0.77964   0.00000  Uiso   1.00
H1074  H     0.75239   0.10947   0.71723   0.00000  Uiso   1.00
H1075  H     0.73018   0.16474   0.73263   0.00000  Uiso   1.00
H1076  H     0.70073   0.12119   0.69878   0.00000  Uiso   1.00
H1077  H     0.93635   0.16862   0.93397   0.00000  Uiso   1.00
H1078  H     0.91434   0.22397   0.94952   0.00000  Uiso   1.00
N1079  N     0.83333   0.28402   0.83333   0.00000  Uiso   1.00
N1080  N     0.83333   0.04931   0.83333   0.00000  Uiso   1.00
O1081  O     0.77321   0.20625   0.83333   0.00000  Uiso   1.00
O1082  O     0.95756   0.22850   0.89446   0.00000  Uiso   1.00
O1083  O     0.95781   0.10890   0.76742   0.00000  Uiso   1.00
O1084  O     0.70885   0.22442   0.89926   0.00000  Uiso   1.00
O1085  O     0.89345   0.12709   0.83334   0.00000  Uiso   1.00
O1086  O     0.89345   0.20625   0.83334   0.00000  Uiso   1.00
O1087  O     0.77321   0.12709   0.83333   0.00000  Uiso   1.00
O1088  O     0.83333   0.20625   0.76280   0.00000  Uiso   1.00
O1089  O     0.83333   0.12708   0.90387   0.00000  Uiso   1.00
O1090  O     0.83333   0.20625   0.90387   0.00000  Uiso   1.00
O1091  O     0.83333   0.12708   0.76280   0.00000  Uiso   1.00
O1092  O     0.70910   0.10483   0.77222   0.00000  Uiso   1.00
C1093  C     0.08746   0.49987   0.83355   0.00000  Uiso   1.00
C1094  C     0.02145   0.52889   0.86670   0.00000  Uiso   1.00
C1095  C     0.29049   0.50051   0.83268   0.00000  Uiso   1.00
C1096  C     0.04284   0.49949   0.83399   0.00000  Uiso   1.00
C1097  C     0.14052   0.35805   0.80354   0.00000  Uiso   1.00
C1098  C     0.19281   0.64195   0.86313   0.00000  Uiso   1.00
C1099  C     0.19281   0.35819   0.86313   0.00000  Uiso   1.00
C1100  C     0.14052   0.64181   0.80354   0.00000  Uiso   1.00
C1101  C     0.05668   0.46001   0.72871   0.00000  Uiso   1.00
C1102  C     0.27664   0.53999   0.93796   0.00000  Uiso   1.00
C1103  C     0.27896   0.46887   0.72616   0.00000  Uiso   1.00
C1104  C     0.24587   0.50013   0.83311   0.00000  Uiso   1.00
C1105  C     0.05439   0.53111   0.94050   0.00000  Uiso   1.00
C1106  C     0.16641   0.50003   0.74021   0.00000  Uiso   1.00
C1107  C     0.16693   0.49997   0.92645   0.00000  Uiso   1.00
C1108  C     0.16657   0.50005   0.68851   0.00000  Uiso   1.00
C1109  C     0.16677   0.49995   0.97815   0.00000  Uiso   1.00
C1110  C     0.02152   0.47016   0.80109   0.00000  Uiso   1.00
C1111  C     0.31181   0.52984   0.86559   0.00000  Uiso   1.00
C1112  C     0.31188   0.47110   0.79998   0.00000  Uiso   1.00
Cu1113 Cu    0.16667   0.54689   0.83333   0.00000  Uiso   1.00
Cu1114 Cu    0.16667   0.45311   0.83333   0.00000  Uiso   1.00
H1115  H     0.11957   0.37664   0.77964   0.00000  Uiso   1.00
H1116  H     0.29932   0.54535   0.96786   0.00000  Uiso   1.00
H1117  H     0.25308   0.49248   0.73542   0.00000  Uiso   1.00
H1118  H     0.26802   0.44467   0.69712   0.00000  Uiso   1.00
H1119  H     0.30474   0.48993   0.71049   0.00000  Uiso   1.00
H1120  H     0.06528   0.55530   0.96958   0.00000  Uiso   1.00
H1121  H     0.08031   0.50755   0.93124   0.00000  Uiso   1.00
H1122  H     0.02863   0.50999   0.95615   0.00000  Uiso   1.00
H1123  H     0.21376   0.62336   0.88703   0.00000  Uiso   1.00
H1124  H     0.21376   0.37690   0.88703   0.00000  Uiso   1.00
H1125  H     0.11957   0.62310   0.77964   0.00000  Uiso   1.00
H1126  H     0.08572   0.44280   0.71723   0.00000  Uiso   1.00
H1127  H     0.06351   0.49807   0.73263   0.00000  Uiso   1.00
H1128  H     0.03406   0.45452   0.69878   0.00000  Uiso   1.00
H1129  H     0.26968   0.50195   0.93397   0.00000  Uiso   1.00
H1130  H     0.24767   0.55730   0.94952   0.00000  Uiso   1.00
N1131  N     0.16667   0.61736   0.83333   0.00000  Uiso   1.00
N1132  N     0.16667   0.38264   0.83333   0.00000  Uiso   1.00
O1133  O     0.10655   0.53958   0.83333   0.00000  Uiso   1.00
O1134  O     0.29089   0.56183   0.89446   0.00000  Uiso   1.00
O1135  O     0.29114   0.44224   0.76742   0.00000  Uiso   1.00
O1136  O     0.04219   0.55775   0.89926   0.00000  Uiso   1.00
O1137  O     0.22679   0.46042   0.83334   0.00000  Uiso   1.00
O1138  O     0.22679   0.53958   0.83334   0.00000  Uiso   1.00
O1139  O     0.10655   0.46042   0.83333   0.00000  Uiso   1.00
O1140  O     0.16667   0.53959   0.76280   0.00000  Uiso   1.00
O1141  O     0.16667   0.46041   0.90387   0.00000  Uiso   1.00
O1142  O     0.16667   0.53959   0.90387   0.00000  Uiso   1.00
O1143  O     0.16667   0.46041   0.76280   0.00000  Uiso   1.00
O1144  O     0.04244   0.43817   0.77222   0.00000  Uiso   1.00
C1145  C     0.42080   0.49987   0.83355   0.00000  Uiso   1.00
C1146  C     0.35479   0.52889   0.86670   0.00000  Uiso   1.00
C1147  C     0.62382   0.50051   0.83268   0.00000  Uiso   1.00
C1148  C     0.37618   0.49949   0.83399   0.00000  Uiso   1.00
C1149  C     0.47386   0.35805   0.80354   0.00000  Uiso   1.00
C1150  C     0.52614   0.64195   0.86313   0.00000  Uiso   1.00
C1151  C     0.52614   0.35819   0.86313   0.00000  Uiso   1.00
C1152  C     0.47386   0.64181   0.80354   0.00000  Uiso   1.00
C1153  C     0.39002   0.46001   0.72871   0.00000  Uiso   1.00
C1154  C     0.60997   0.53999   0.93796   0.00000  Uiso   1.00
C1155  C     0.61229   0.46887   0.72616   0.00000  Uiso   1.00
C1156  C     0.57920   0.50013   0.83311   0.00000  Uiso   1.00
C1157  C     0.38772   0.53111   0.94050   0.00000  Uiso   1.00
C1158  C     0.49974   0.50003   0.74021   0.00000  Uiso   1.00
C1159  C     0.50027   0.49997   0.92645   0.00000  Uiso   1.00
C1160  C     0.49990   0.50005   0.68851   0.00000  Uiso   1.00
C1161  C     0.50010   0.49995   0.97815   0.00000  Uiso   1.00
C1162  C     0.35485   0.47016   0.80109   0.00000  Uiso   1.00
C1163  C     0.64515   0.52984   0.86559   0.00000  Uiso   1.00
C1164  C     0.64521   0.47110   0.79998   0.00000  Uiso   1.00
Cu1165 Cu    0.50000   0.54689   0.83333   0.00000  Uiso   1.00
Cu1166 Cu    0.50000   0.45311   0.83333   0.00000  Uiso   1.00
H1167  H     0.45291   0.37664   0.77964   0.00000  Uiso   1.00
H1168  H     0.63266   0.54535   0.96786   0.00000  Uiso   1.00
H1169  H     0.58641   0.49248   0.73542   0.00000  Uiso   1.00
H1170  H     0.60136   0.44467   0.69712   0.00000  Uiso   1.00
H1171  H     0.63807   0.48993   0.71049   0.00000  Uiso   1.00
H1172  H     0.39861   0.55530   0.96958   0.00000  Uiso   1.00
H1173  H     0.41364   0.50755   0.93124   0.00000  Uiso   1.00
H1174  H     0.36196   0.50999   0.95615   0.00000  Uiso   1.00
H1175  H     0.54709   0.62336   0.88703   0.00000  Uiso   1.00
H1176  H     0.54709   0.37690   0.88703   0.00000  Uiso   1.00
H1177  H     0.45290   0.62310   0.77964   0.00000  Uiso   1.00
H1178  H     0.41905   0.44280   0.71723   0.00000  Uiso   1.00
H1179  H     0.39684   0.49807   0.73263   0.00000  Uiso   1.00
H1180  H     0.36739   0.45452   0.69878   0.00000  Uiso   1.00
H1181  H     0.60302   0.50195   0.93397   0.00000  Uiso   1.00
H1182  H     0.58100   0.55730   0.94952   0.00000  Uiso   1.00
N1183  N     0.50000   0.61736   0.83333   0.00000  Uiso   1.00
N1184  N     0.50000   0.38264   0.83333   0.00000  Uiso   1.00
O1185  O     0.43988   0.53958   0.83333   0.00000  Uiso   1.00
O1186  O     0.62423   0.56183   0.89446   0.00000  Uiso   1.00
O1187  O     0.62448   0.44224   0.76742   0.00000  Uiso   1.00
O1188  O     0.37552   0.55775   0.89926   0.00000  Uiso   1.00
O1189  O     0.56012   0.46042   0.83334   0.00000  Uiso   1.00
O1190  O     0.56012   0.53958   0.83334   0.00000  Uiso   1.00
O1191  O     0.43988   0.46042   0.83333   0.00000  Uiso   1.00
O1192  O     0.50000   0.53959   0.76280   0.00000  Uiso   1.00
O1193  O     0.50000   0.46041   0.90387   0.00000  Uiso   1.00
O1194  O     0.50000   0.53959   0.90387   0.00000  Uiso   1.00
O1195  O     0.50000   0.46041   0.76280   0.00000  Uiso   1.00
O1196  O     0.37577   0.43817   0.77222   0.00000  Uiso   1.00
C1197  C     0.75413   0.49987   0.83355   0.00000  Uiso   1.00
C1198  C     0.68812   0.52889   0.86670   0.00000  Uiso   1.00
C1199  C     0.95716   0.50051   0.83268   0.00000  Uiso   1.00
C1200  C     0.70951   0.49949   0.83399   0.00000  Uiso   1.00
C1201  C     0.80719   0.35805   0.80354   0.00000  Uiso   1.00
C1202  C     0.85948   0.64195   0.86313   0.00000  Uiso   1.00
C1203  C     0.85948   0.35819   0.86313   0.00000  Uiso   1.00
C1204  C     0.80719   0.64181   0.80354   0.00000  Uiso   1.00
C1205  C     0.72335   0.46001   0.72871   0.00000  Uiso   1.00
C1206  C     0.94331   0.53999   0.93796   0.00000  Uiso   1.00
C1207  C     0.94563   0.46887   0.72616   0.00000  Uiso   1.00
C1208  C     0.91254   0.50013   0.83311   0.00000  Uiso   1.00
C1209  C     0.72105   0.53111   0.94050   0.00000  Uiso   1.00
C1210  C     0.83307   0.50003   0.74021   0.00000  Uiso   1.00
C1211  C     0.83360   0.49997   0.92645   0.00000  Uiso   1.00
C1212  C     0.83324   0.50005   0.68851   0.00000  Uiso   1.00
C1213  C     0.83343   0.49995   0.97815   0.00000  Uiso   1.00
C1214  C     0.68818   0.47016   0.80109   0.00000  Uiso   1.00
C1215  C     0.97848   0.52984   0.86559   0.00000  Uiso   1.00
C1216  C     0.97855   0.47110   0.79998   0.00000  Uiso   1.00
Cu1217 Cu    0.83333   0.54689   0.83333   0.00000  Uiso   1.00
Cu1218 Cu    0.83333   0.45311   0.83333   0.00000  Uiso   1.00
H1219  H     0.78624   0.37664   0.77964   0.00000  Uiso   1.00
H1220  H     0.96599   0.54535   0.96786   0.00000  Uiso   1.00
H1221  H     0.91974   0.49248   0.73542   0.00000  Uiso   1.00
H1222  H     0.93469   0.44467   0.69712   0.00000  Uiso   1.00
H1223  H     0.97141   0.48993   0.71049   0.00000  Uiso   1.00
H1224  H     0.73194   0.55530   0.96958   0.00000  Uiso   1.00
H1225  H     0.74697   0.50755   0.93124   0.00000  Uiso   1.00
H1226  H     0.69529   0.50999   0.95615   0.00000  Uiso   1.00
H1227  H     0.88043   0.62336   0.88703   0.00000  Uiso   1.00
H1228  H     0.88043   0.37690   0.88703   0.00000  Uiso   1.00
H1229  H     0.78624   0.62310   0.77964   0.00000  Uiso   1.00
H1230  H     0.75239   0.44280   0.71723   0.00000  Uiso   1.00
H1231  H     0.73018   0.49807   0.73263   0.00000  Uiso   1.00
H1232  H     0.70073   0.45452   0.69878   0.00000  Uiso   1.00
H1233  H     0.93635   0.50195   0.93397   0.00000  Uiso   1.00
H1234  H     0.91434   0.55730   0.94952   0.00000  Uiso   1.00
N1235  N     0.83333   0.61736   0.83333   0.00000  Uiso   1.00
N1236  N     0.83333   0.38264   0.83333   0.00000  Uiso   1.00
O1237  O     0.77321   0.53958   0.83333   0.00000  Uiso   1.00
O1238  O     0.95756   0.56183   0.89446   0.00000  Uiso   1.00
O1239  O     0.95781   0.44224   0.76742   0.00000  Uiso   1.00
O1240  O     0.70885   0.55775   0.89926   0.00000  Uiso   1.00
O1241  O     0.89345   0.46042   0.83334   0.00000  Uiso   1.00
O1242  O     0.89345   0.53958   0.83334   0.00000  Uiso   1.00
O1243  O     0.77321   0.46042   0.83333   0.00000  Uiso   1.00
O1244  O     0.83333   0.53959   0.76280   0.00000  Uiso   1.00
O1245  O     0.83333   0.46041   0.90387   0.00000  Uiso   1.00
O1246  O     0.83333   0.53959   0.90387   0.00000  Uiso   1.00
O1247  O     0.83333   0.46041   0.76280   0.00000  Uiso   1.00
O1248  O     0.70910   0.43817   0.77222   0.00000  Uiso   1.00
C1249  C     0.08746   0.83320   0.83355   0.00000  Uiso   1.00
C1250  C     0.02145   0.86223   0.86670   0.00000  Uiso   1.00
C1251  C     0.29049   0.83384   0.83268   0.00000  Uiso   1.00
C1252  C     0.04284   0.83282   0.83399   0.00000  Uiso   1.00
C1253  C     0.14052   0.69138   0.80354   0.00000  Uiso   1.00
C1254  C     0.19281   0.97528   0.86313   0.00000  Uiso   1.00
C1255  C     0.19281   0.69153   0.86313   0.00000  Uiso   1.00
C1256  C     0.14052   0.97514   0.80354   0.00000  Uiso   1.00
C1257  C     0.05668   0.79334   0.72871   0.00000  Uiso   1.00
C1258  C     0.27664   0.87332   0.93796   0.00000  Uiso   1.00
C1259  C     0.27896   0.80220   0.72616   0.00000  Uiso   1.00
C1260  C     0.24587   0.83346   0.83311   0.00000  Uiso   1.00
C1261  C     0.05439   0.86444   0.94050   0.00000  Uiso   1.00
C1262  C     0.16641   0.83336   0.74021   0.00000  Uiso   1.00
C1263  C     0.16693   0.83330   0.92645   0.00000  Uiso   1.00
C1264  C     0.16657   0.83338   0.68851   0.00000  Uiso   1.00
C1265  C     0.16677   0.83329   0.97815   0.00000  Uiso   1.00
C1266  C     0.02152   0.80349   0.80109   0.00000  Uiso   1.00
C1267  C     0.31181   0.86317   0.86559   0.00000  Uiso   1.00
C1268  C     0.31188   0.80444   0.79998   0.00000  Uiso   1.00
Cu1269 Cu    0.16667   0.88022   0.83333   0.00000  Uiso   1.00
Cu1270 Cu    0.16667   0.78645   0.83333   0.00000  Uiso   1.00
H1271  H     0.11957   0.70997   0.77964   0.00000  Uiso   1.00
H1272  H     0.29932   0.87868   0.96786   0.00000  Uiso   1.00
H1273  H     0.25308   0.82581   0.73542   0.00000  Uiso   1.00
H1274  H     0.26802   0.77800   0.69712   0.00000  Uiso   1.00
H1275  H     0.30474   0.82326   0.71049   0.00000  Uiso   1.00
H1276  H     0.06528   0.88864   0.96958   0.00000  Uiso   1.00
H1277  H     0.08031   0.84089   0.93124   0.00000  Uiso   1.00
H1278  H     0.02863   0.84332   0.95615   0.00000  Uiso   1.00
H1279  H     0.21376   0.95670   0.88703   0.00000  Uiso   1.00
H1280  H     0.21376   0.71023   0.88703   0.00000  Uiso   1.00
H1281  H     0.11957   0.95644   0.77964   0.00000  Uiso   1.00
H1282  H     0.08572   0.77614   0.71723   0.00000  Uiso   1.00
H1283  H     0.06351   0.83141   0.73263   0.00000  Uiso   1.00
H1284  H     0.03406   0.78785   0.69878   0.00000  Uiso   1.00
H1285  H     0.26968   0.83528   0.93397   0.00000  Uiso   1.00
H1286  H     0.24767   0.89063   0.94952   0.00000  Uiso   1.00
N1287  N     0.16667   0.95069   0.83333   0.00000  Uiso   1.00
N1288  N     0.16667   0.71598   0.83333   0.00000  Uiso   1.00
O1289  O     0.10655   0.87291   0.83333   0.00000  Uiso   1.00
O1290  O     0.29089   0.89516   0.89446   0.00000  Uiso   1.00
O1291  O     0.29114   0.77557   0.76742   0.00000  Uiso   1.00
O1292  O     0.04219   0.89109   0.89926   0.00000  Uiso   1.00
O1293  O     0.22679   0.79375   0.83334   0.00000  Uiso   1.00
O1294  O     0.22679   0.87291   0.83334   0.00000  Uiso   1.00
O1295  O     0.10655   0.79375   0.83333   0.00000  Uiso   1.00
O1296  O     0.16667   0.87292   0.76280   0.00000  Uiso   1.00
O1297  O     0.16667   0.79375   0.90387   0.00000  Uiso   1.00
O1298  O     0.16667   0.87292   0.90387   0.00000  Uiso   1.00
O1299  O     0.16667   0.79375   0.76280   0.00000  Uiso   1.00
O1300  O     0.04244   0.77150   0.77222   0.00000  Uiso   1.00
C1301  C     0.42080   0.83320   0.83355   0.00000  Uiso   1.00
C1302  C     0.35479   0.86223   0.86670   0.00000  Uiso   1.00
C1303  C     0.62382   0.83384   0.83268   0.00000  Uiso   1.00
C1304  C     0.37618   0.83282   0.83399   0.00000  Uiso   1.00
C1305  C     0.47386   0.69138   0.80354   0.00000  Uiso   1.00
C1306  C     0.52614   0.97528   0.86313   0.00000  Uiso   1.00
C1307  C     0.52614   0.69153   0.86313   0.00000  Uiso   1.00
C1308  C     0.47386   0.97514   0.80354   0.00000  Uiso   1.00
C1309  C     0.39002   0.79334   0.72871   0.00000  Uiso   1.00
C1310  C     0.60997   0.87332   0.93796   0.00000  Uiso   1.00
C1311  C     0.61229   0.80220   0.72616   0.00000  Uiso   1.00
C1312  C     0.57920   0.83346   0.83311   0.00000  Uiso   1.00
C1313  C     0.38772   0.86444   0.94050   0.00000  Uiso   1.00
C1314  C     0.49974   0.83336   0.74021   0.00000  Uiso   1.00
C1315  C     0.50027   0.83330   0.92645   0.00000  Uiso   1.00
C1316  C     0.49990   0.83338   0.68851   0.00000  Uiso   1.00
C1317  C     0.50010   0.83329   0.97815   0.00000  Uiso   1.00
C1318  C     0.35485   0.80349   0.80109   0.00000  Uiso   1.00
C1319  C     0.64515   0.86317   0.86559   0.00000  Uiso   1.00
C1320  C     0.64521   0.80444   0.79998   0.00000  Uiso   1.00
Cu1321 Cu    0.50000   0.88022   0.83333   0.00000  Uiso   1.00
Cu1322 Cu    0.50000   0.78645   0.83333   0.00000  Uiso   1.00
H1323  H     0.45291   0.70997   0.77964   0.00000  Uiso   1.00
H1324  H     0.63266   0.87868   0.96786   0.00000  Uiso   1.00
H1325  H     0.58641   0.82581   0.73542   0.00000  Uiso   1.00
H1326  H     0.60136   0.77800   0.69712   0.00000  Uiso   1.00
H1327  H     0.63807   0.82326   0.71049   0.00000  Uiso   1.00
H1328  H     0.39861   0.88864   0.96958   0.00000  Uiso   1.00
H1329  H     0.41364   0.84089   0.93124   0.00000  Uiso   1.00
H1330  H     0.36196   0.84332   0.95615   0.00000  Uiso   1.00
H1331  H     0.54709   0.95670   0.88703   0.00000  Uiso   1.00
H1332  H     0.54709   0.71023   0.88703   0.00000  Uiso   1.00
H1333  H     0.45290   0.95644   0.77964   0.00000  Uiso   1.00
H1334  H     0.41905   0.77614   0.71723   0.00000  Uiso   1.00
H1335  H     0.39684   0.83141   0.73263   0.00000  Uiso   1.00
H1336  H     0.36739   0.78785   0.69878   0.00000  Uiso   1.00
H1337  H     0.60302   0.83528   0.93397   0.00000  Uiso   1.00
H1338  H     0.58100   0.89063   0.94952   0.00000  Uiso   1.00
N1339  N     0.50000   0.95069   0.83333   0.00000  Uiso   1.00
N1340  N     0.50000   0.71598   0.83333   0.00000  Uiso   1.00
O1341  O     0.43988   0.87291   0.83333   0.00000  Uiso   1.00
O1342  O     0.62423   0.89516   0.89446   0.00000  Uiso   1.00
O1343  O     0.62448   0.77557   0.76742   0.00000  Uiso   1.00
O1344  O     0.37552   0.89109   0.89926   0.00000  Uiso   1.00
O1345  O     0.56012   0.79375   0.83334   0.00000  Uiso   1.00
O1346  O     0.56012   0.87291   0.83334   0.00000  Uiso   1.00
O1347  O     0.43988   0.79375   0.83333   0.00000  Uiso   1.00
O1348  O     0.50000   0.87292   0.76280   0.00000  Uiso   1.00
O1349  O     0.50000   0.79375   0.90387   0.00000  Uiso   1.00
O1350  O     0.50000   0.87292   0.90387   0.00000  Uiso   1.00
O1351  O     0.50000   0.79375   0.76280   0.00000  Uiso   1.00
O1352  O     0.37577   0.77150   0.77222   0.00000  Uiso   1.00
C1353  C     0.75413   0.83320   0.83355   0.00000  Uiso   1.00
C1354  C     0.68812   0.86223   0.86670   0.00000  Uiso   1.00
C1355  C     0.95716   0.83384   0.83268   0.00000  Uiso   1.00
C1356  C     0.70951   0.83282   0.83399   0.00000  Uiso   1.00
C1357  C     0.80719   0.69138   0.80354   0.00000  Uiso   1.00
C1358  C     0.85948   0.97528   0.86313   0.00000  Uiso   1.00
C1359  C     0.85948   0.69153   0.86313   0.00000  Uiso   1.00
C1360  C     0.80719   0.97514   0.80354   0.00000  Uiso   1.00
C1361  C     0.72335   0.79334   0.72871   0.00000  Uiso   1.00
C1362  C     0.94331   0.87332   0.93796   0.00000  Uiso   1.00
C1363  C     0.94563   0.80220   0.72616   0.00000  Uiso   1.00
C1364  C     0.91254   0.83346   0.83311   0.00000  Uiso   1.00
C1365  C     0.72105   0.86444   0.94050   0.00000  Uiso   1.00
C1366  C     0.83307   0.83336   0.74021   0.00000  Uiso   1.00
C1367  C     0.83360   0.83330   0.92645   0.00000  Uiso   1.00
C1368  C     0.83324   0.83338   0.68851   0.00000  Uiso   1.00
C1369  C     0.83343   0.83329   0.97815   0.00000  Uiso   1.00
C1370  C     0.68818   0.80349   0.80109   0.00000  Uiso   1.00
C1371  C     0.97848   0.86317   0.86559   0.00000  Uiso   1.00
C1372  C     0.97855   0.80444   0.79998   0.00000  Uiso   1.00
Cu1373 Cu    0.83333   0.88022   0.83333   0.00000  Uiso   1.00
Cu1374 Cu    0.83333   0.78645   0.83333   0.00000  Uiso   1.00
H1375  H     0.78624   0.70997   0.77964   0.00000  Uiso   1.00
H1376  H     0.96599   0.87868   0.96786   0.00000  Uiso   1.00
H1377  H     0.91974   0.82581   0.73542   0.00000  Uiso   1.00
H1378  H     0.93469   0.77800   0.69712   0.00000  Uiso   1.00
H1379  H     0.97141   0.82326   0.71049   0.00000  Uiso   1.00
H1380  H     0.73194   0.88864   0.96958   0.00000  Uiso   1.00
H1381  H     0.74697   0.84089   0.93124   0.00000  Uiso   1.00
H1382  H     0.69529   0.84332   0.95615   0.00000  Uiso   1.00
H1383  H     0.88043   0.95670   0.88703   0.00000  Uiso   1.00
H1384  H     0.88043   0.71023   0.88703   0.00000  Uiso   1.00
H1385  H     0.78624   0.95644   0.77964   0.00000  Uiso   1.00
H1386  H     0.75239   0.77614   0.71723   0.00000  Uiso   1.00
H1387  H     0.73018   0.83141   0.73263   0.00000  Uiso   1.00
H1388  H     0.70073   0.78785   0.69878   0.00000  Uiso   1.00
H1389  H     0.93635   0.83528   0.93397   0.00000  Uiso   1.00
H1390  H     0.91434   0.89063   0.94952   0.00000  Uiso   1.00
N1391  N     0.83333   0.95069   0.83333   0.00000  Uiso   1.00
N1392  N     0.83333   0.71598   0.83333   0.00000  Uiso   1.00
O1393  O     0.77321   0.87291   0.83333   0.00000  Uiso   1.00
O1394  O     0.95756   0.89516   0.89446   0.00000  Uiso   1.00
O1395  O     0.95781   0.77557   0.76742   0.00000  Uiso   1.00
O1396  O     0.70885   0.89109   0.89926   0.00000  Uiso   1.00
O1397  O     0.89345   0.79375   0.83334   0.00000  Uiso   1.00
O1398  O     0.89345   0.87291   0.83334   0.00000  Uiso   1.00
O1399  O     0.77321   0.79375   0.83333   0.00000  Uiso   1.00
O1400  O     0.83333   0.87292   0.76280   0.00000  Uiso   1.00
O1401  O     0.83333   0.79375   0.90387   0.00000  Uiso   1.00
O1402  O     0.83333   0.87292   0.90387   0.00000  Uiso   1.00
O1403  O     0.83333   0.79375   0.76280   0.00000  Uiso   1.00
O1404  O     0.70910   0.77150   0.77222   0.00000  Uiso   1.00
loop_
_geom_bond_atom_site_label_1
_geom_bond_atom_site_label_2
_geom_bond_distance
_geom_bond_site_symmetry_2
_ccdc_geom_bond_type
C1     C4      1.447   .     S
C1     O47     1.289   .     A
C1     O41     1.291   .     A
C2     C4      1.409   .     A
C2     O44     1.385   .     S
C2     C123    1.394   1_455 S
C3     C20     1.409   .     A
C3     C19     1.408   .     A
C3     C12     1.447   .     S
C4     C18     1.408   .     A
C5     N40     1.367   .     A
C5     H23     1.082   .     S
C5     C320    1.418   1_545 S
C6     H31     1.082   .     S
C6     N39     1.367   .     A
C6     C163    1.418   .     S
C7     N40     1.368   .     A
C7     H32     1.082   .     S
C7     C318    1.418   1_545 S
C8     N39     1.368   .     A
C8     H33     1.082   .     S
C8     C161    1.418   .     S
C9     H36     1.108   .     S
C9     O52     1.413   .     S
C9     H34     1.109   .     S
C9     H35     1.115   .     S
C10    O42     1.413   .     S
C10    H38     1.109   .     S
C10    H37     1.116   .     S
C10    H24     1.108   .     S
C11    O43     1.413   .     S
C11    H27     1.112   .     S
C11    H25     1.108   .     S
C11    H26     1.109   .     S
C12    O45     1.291   .     A
C12    O46     1.289   .     A
C13    H28     1.109   .     S
C13    H29     1.108   .     S
C13    H30     1.112   .     S
C13    O44     1.413   .     S
C14    O51     1.288   .     A
C14    C16     1.407   .     S
C14    O48     1.288   .     A
C15    O49     1.288   .     A
C15    C17     1.407   .     S
C15    O50     1.288   .     A
C16    C953    1.189   1_554 S
C17    C484    1.189   .     S
C18    O52     1.386   .     S
C18    C124    1.394   1_455 S
C19    O42     1.386   .     S
C19    C54     1.394   .     S
C20    O43     1.385   .     S
C20    C70     1.394   .     S
Cu21   N39     2.015   .     S
Cu21   O48     1.931   .     S
Cu21   Cu22    2.682   .     S
Cu21   O41     1.959   .     S
Cu21   O50     1.930   .     S
Cu21   O46     1.961   .     S
Cu22   N40     2.015   .     S
Cu22   O47     1.961   .     S
Cu22   O51     1.930   .     S
Cu22   O45     1.959   .     S
Cu22   O49     1.931   .     S
C53    C56     1.447   .     S
C53    O99     1.289   .     A
C53    O93     1.291   .     A
C54    C56     1.409   .     A
C54    O96     1.385   .     S
C55    C72     1.409   .     A
C55    C71     1.408   .     A
C55    C64     1.447   .     S
C56    C70     1.408   .     A
C57    N92     1.367   .     A
C57    H75     1.082   .     S
C57    C372    1.418   1_545 S
C58    H83     1.082   .     S
C58    N91     1.367   .     A
C58    C215    1.418   .     S
C59    N92     1.368   .     A
C59    H84     1.082   .     S
C59    C370    1.418   1_545 S
C60    N91     1.368   .     A
C60    H85     1.082   .     S
C60    C213    1.418   .     S
C61    H88     1.108   .     S
C61    O104    1.413   .     S
C61    H86     1.109   .     S
C61    H87     1.115   .     S
C62    O94     1.413   .     S
C62    H90     1.109   .     S
C62    H89     1.116   .     S
C62    H76     1.108   .     S
C63    O95     1.413   .     S
C63    H79     1.112   .     S
C63    H77     1.108   .     S
C63    H78     1.109   .     S
C64    O97     1.291   .     A
C64    O98     1.289   .     A
C65    H80     1.109   .     S
C65    H81     1.108   .     S
C65    H82     1.112   .     S
C65    O96     1.413   .     S
C66    O103    1.288   .     A
C66    C68     1.407   .     S
C66    O100    1.288   .     A
C67    O101    1.288   .     A
C67    C69     1.407   .     S
C67    O102    1.288   .     A
C68    C1005   1.189   1_554 S
C69    C536    1.189   .     S
C70    O104    1.386   .     S
C71    O94     1.386   .     S
C71    C106    1.394   .     S
C72    O95     1.385   .     S
C72    C122    1.394   .     S
Cu73   N91     2.015   .     S
Cu73   O100    1.931   .     S
Cu73   Cu74    2.682   .     S
Cu73   O93     1.959   .     S
Cu73   O102    1.930   .     S
Cu73   O98     1.961   .     S
Cu74   N92     2.015   .     S
Cu74   O99     1.961   .     S
Cu74   O103    1.930   .     S
Cu74   O97     1.959   .     S
Cu74   O101    1.931   .     S
C105   C108    1.447   .     S
C105   O151    1.289   .     A
C105   O145    1.291   .     A
C106   C108    1.409   .     A
C106   O148    1.385   .     S
C107   C124    1.409   .     A
C107   C123    1.408   .     A
C107   C116    1.447   .     S
C108   C122    1.408   .     A
C109   N144    1.367   .     A
C109   H127    1.082   .     S
C109   C424    1.418   1_545 S
C110   H135    1.082   .     S
C110   N143    1.367   .     A
C110   C267    1.418   .     S
C111   N144    1.368   .     A
C111   H136    1.082   .     S
C111   C422    1.418   1_545 S
C112   N143    1.368   .     A
C112   H137    1.082   .     S
C112   C265    1.418   .     S
C113   H140    1.108   .     S
C113   O156    1.413   .     S
C113   H138    1.109   .     S
C113   H139    1.115   .     S
C114   O146    1.413   .     S
C114   H142    1.109   .     S
C114   H141    1.116   .     S
C114   H128    1.108   .     S
C115   O147    1.413   .     S
C115   H131    1.112   .     S
C115   H129    1.108   .     S
C115   H130    1.109   .     S
C116   O149    1.291   .     A
C116   O150    1.289   .     A
C117   H132    1.109   .     S
C117   H133    1.108   .     S
C117   H134    1.112   .     S
C117   O148    1.413   .     S
C118   O155    1.288   .     A
C118   C120    1.407   .     S
C118   O152    1.288   .     A
C119   O153    1.288   .     A
C119   C121    1.407   .     S
C119   O154    1.288   .     A
C120   C1057   1.189   1_554 S
C121   C588    1.189   .     S
C122   O156    1.386   .     S
C123   O146    1.386   .     S
C123   C2      1.394   1_655 S
C124   O147    1.385   .     S
C124   C18     1.394   1_655 S
Cu125  N143    2.015   .     S
Cu125  O152    1.931   .     S
Cu125  Cu126   2.682   .     S
Cu125  O145    1.959   .     S
Cu125  O154    1.930   .     S
Cu125  O150    1.961   .     S
Cu126  N144    2.015   .     S
Cu126  O151    1.961   .     S
Cu126  O155    1.930   .     S
Cu126  O149    1.959   .     S
Cu126  O153    1.931   .     S
C157   C160    1.447   .     S
C157   O203    1.289   .     A
C157   O197    1.291   .     A
C158   C160    1.409   .     A
C158   O200    1.385   .     S
C158   C279    1.394   1_455 S
C159   C176    1.409   .     A
C159   C175    1.408   .     A
C159   C168    1.447   .     S
C160   C174    1.408   .     A
C161   N196    1.367   .     A
C161   H179    1.082   .     S
C162   H187    1.082   .     S
C162   N195    1.367   .     A
C162   C319    1.418   .     S
C163   N196    1.368   .     A
C163   H188    1.082   .     S
C164   N195    1.368   .     A
C164   H189    1.082   .     S
C164   C317    1.418   .     S
C165   H192    1.108   .     S
C165   O208    1.413   .     S
C165   H190    1.109   .     S
C165   H191    1.115   .     S
C166   O198    1.413   .     S
C166   H194    1.109   .     S
C166   H193    1.116   .     S
C166   H180    1.108   .     S
C167   O199    1.413   .     S
C167   H183    1.112   .     S
C167   H181    1.108   .     S
C167   H182    1.109   .     S
C168   O201    1.291   .     A
C168   O202    1.289   .     A
C169   H184    1.109   .     S
C169   H185    1.108   .     S
C169   H186    1.112   .     S
C169   O200    1.413   .     S
C170   O207    1.288   .     A
C170   C172    1.407   .     S
C170   O204    1.288   .     A
C171   O205    1.288   .     A
C171   C173    1.407   .     S
C171   O206    1.288   .     A
C172   C1109   1.189   1_554 S
C173   C640    1.189   .     S
C174   O208    1.386   .     S
C174   C280    1.394   1_455 S
C175   O198    1.386   .     S
C175   C210    1.394   .     S
C176   O199    1.385   .     S
C176   C226    1.394   .     S
Cu177  N195    2.015   .     S
Cu177  O204    1.931   .     S
Cu177  Cu178   2.682   .     S
Cu177  O197    1.959   .     S
Cu177  O206    1.930   .     S
Cu177  O202    1.961   .     S
Cu178  N196    2.015   .     S
Cu178  O203    1.961   .     S
Cu178  O207    1.930   .     S
Cu178  O201    1.959   .     S
Cu178  O205    1.931   .     S
C209   C212    1.447   .     S
C209   O255    1.289   .     A
C209   O249    1.291   .     A
C210   C212    1.409   .     A
C210   O252    1.385   .     S
C211   C228    1.409   .     A
C211   C227    1.408   .     A
C211   C220    1.447   .     S
C212   C226    1.408   .     A
C213   N248    1.367   .     A
C213   H231    1.082   .     S
C214   H239    1.082   .     S
C214   N247    1.367   .     A
C214   C371    1.418   .     S
C215   N248    1.368   .     A
C215   H240    1.082   .     S
C216   N247    1.368   .     A
C216   H241    1.082   .     S
C216   C369    1.418   .     S
C217   H244    1.108   .     S
C217   O260    1.413   .     S
C217   H242    1.109   .     S
C217   H243    1.115   .     S
C218   O250    1.413   .     S
C218   H246    1.109   .     S
C218   H245    1.116   .     S
C218   H232    1.108   .     S
C219   O251    1.413   .     S
C219   H235    1.112   .     S
C219   H233    1.108   .     S
C219   H234    1.109   .     S
C220   O253    1.291   .     A
C220   O254    1.289   .     A
C221   H236    1.109   .     S
C221   H237    1.108   .     S
C221   H238    1.112   .     S
C221   O252    1.413   .     S
C222   O259    1.288   .     A
C222   C224    1.407   .     S
C222   O256    1.288   .     A
C223   O257    1.288   .     A
C223   C225    1.407   .     S
C223   O258    1.288   .     A
C224   C1161   1.189   1_554 S
C225   C692    1.189   .     S
C226   O260    1.386   .     S
C227   O250    1.386   .     S
C227   C262    1.394   .     S
C228   O251    1.385   .     S
C228   C278    1.394   .     S
Cu229  N247    2.015   .     S
Cu229  O256    1.931   .     S
Cu229  Cu230   2.682   .     S
Cu229  O249    1.959   .     S
Cu229  O258    1.930   .     S
Cu229  O254    1.961   .     S
Cu230  N248    2.015   .     S
Cu230  O255    1.961   .     S
Cu230  O259    1.930   .     S
Cu230  O253    1.959   .     S
Cu230  O257    1.931   .     S
C261   C264    1.447   .     S
C261   O307    1.289   .     A
C261   O301    1.291   .     A
C262   C264    1.409   .     A
C262   O304    1.385   .     S
C263   C280    1.409   .     A
C263   C279    1.408   .     A
C263   C272    1.447   .     S
C264   C278    1.408   .     A
C265   N300    1.367   .     A
C265   H283    1.082   .     S
C266   H291    1.082   .     S
C266   N299    1.367   .     A
C266   C423    1.418   .     S
C267   N300    1.368   .     A
C267   H292    1.082   .     S
C268   N299    1.368   .     A
C268   H293    1.082   .     S
C268   C421    1.418   .     S
C269   H296    1.108   .     S
C269   O312    1.413   .     S
C269   H294    1.109   .     S
C269   H295    1.115   .     S
C270   O302    1.413   .     S
C270   H298    1.109   .     S
C270   H297    1.116   .     S
C270   H284    1.108   .     S
C271   O303    1.413   .     S
C271   H287    1.112   .     S
C271   H285    1.108   .     S
C271   H286    1.109   .     S
C272   O305    1.291   .     A
C272   O306    1.289   .     A
C273   H288    1.109   .     S
C273   H289    1.108   .     S
C273   H290    1.112   .     S
C273   O304    1.413   .     S
C274   O311    1.288   .     A
C274   C276    1.407   .     S
C274   O308    1.288   .     A
C275   O309    1.288   .     A
C275   C277    1.407   .     S
C275   O310    1.288   .     A
C276   C1213   1.189   1_554 S
C277   C744    1.189   .     S
C278   O312    1.386   .     S
C279   O302    1.386   .     S
C279   C158    1.394   1_655 S
C280   O303    1.385   .     S
C280   C174    1.394   1_655 S
Cu281  N299    2.015   .     S
Cu281  O308    1.931   .     S
Cu281  Cu282   2.682   .     S
Cu281  O301    1.959   .     S
Cu281  O310    1.930   .     S
Cu281  O306    1.961   .     S
Cu282  N300    2.015   .     S
Cu282  O307    1.961   .     S
Cu282  O311    1.930   .     S
Cu282  O305    1.959   .     S
Cu282  O309    1.931   .     S
C313   C316    1.447   .     S
C313   O359    1.289   .     A
C313   O353    1.291   .     A
C314   C316    1.409   .     A
C314   O356    1.385   .     S
C314   C435    1.394   1_455 S
C315   C332    1.409   .     A
C315   C331    1.408   .     A
C315   C324    1.447   .     S
C316   C330    1.408   .     A
C317   N352    1.367   .     A
C317   H335    1.082   .     S
C318   H343    1.082   .     S
C318   N351    1.367   .     A
C318   C7      1.418   1_565 S
C319   N352    1.368   .     A
C319   H344    1.082   .     S
C320   N351    1.368   .     A
C320   H345    1.082   .     S
C320   C5      1.418   1_565 S
C321   H348    1.108   .     S
C321   O364    1.413   .     S
C321   H346    1.109   .     S
C321   H347    1.115   .     S
C322   O354    1.413   .     S
C322   H350    1.109   .     S
C322   H349    1.116   .     S
C322   H336    1.108   .     S
C323   O355    1.413   .     S
C323   H339    1.112   .     S
C323   H337    1.108   .     S
C323   H338    1.109   .     S
C324   O357    1.291   .     A
C324   O358    1.289   .     A
C325   H340    1.109   .     S
C325   H341    1.108   .     S
C325   H342    1.112   .     S
C325   O356    1.413   .     S
C326   O363    1.288   .     A
C326   C328    1.407   .     S
C326   O360    1.288   .     A
C327   O361    1.288   .     A
C327   C329    1.407   .     S
C327   O362    1.288   .     A
C328   C1265   1.189   1_554 S
C329   C796    1.189   .     S
C330   O364    1.386   .     S
C330   C436    1.394   1_455 S
C331   O354    1.386   .     S
C331   C366    1.394   .     S
C332   O355    1.385   .     S
C332   C382    1.394   .     S
Cu333  N351    2.015   .     S
Cu333  O360    1.931   .     S
Cu333  Cu334   2.682   .     S
Cu333  O353    1.959   .     S
Cu333  O362    1.930   .     S
Cu333  O358    1.961   .     S
Cu334  N352    2.015   .     S
Cu334  O359    1.961   .     S
Cu334  O363    1.930   .     S
Cu334  O357    1.959   .     S
Cu334  O361    1.931   .     S
C365   C368    1.447   .     S
C365   O411    1.289   .     A
C365   O405    1.291   .     A
C366   C368    1.409   .     A
C366   O408    1.385   .     S
C367   C384    1.409   .     A
C367   C383    1.408   .     A
C367   C376    1.447   .     S
C368   C382    1.408   .     A
C369   N404    1.367   .     A
C369   H387    1.082   .     S
C370   H395    1.082   .     S
C370   N403    1.367   .     A
C370   C59     1.418   1_565 S
C371   N404    1.368   .     A
C371   H396    1.082   .     S
C372   N403    1.368   .     A
C372   H397    1.082   .     S
C372   C57     1.418   1_565 S
C373   H400    1.108   .     S
C373   O416    1.413   .     S
C373   H398    1.109   .     S
C373   H399    1.115   .     S
C374   O406    1.413   .     S
C374   H402    1.109   .     S
C374   H401    1.116   .     S
C374   H388    1.108   .     S
C375   O407    1.413   .     S
C375   H391    1.112   .     S
C375   H389    1.108   .     S
C375   H390    1.109   .     S
C376   O409    1.291   .     A
C376   O410    1.289   .     A
C377   H392    1.109   .     S
C377   H393    1.108   .     S
C377   H394    1.112   .     S
C377   O408    1.413   .     S
C378   O415    1.288   .     A
C378   C380    1.407   .     S
C378   O412    1.288   .     A
C379   O413    1.288   .     A
C379   C381    1.407   .     S
C379   O414    1.288   .     A
C380   C1317   1.189   1_554 S
C381   C848    1.189   .     S
C382   O416    1.386   .     S
C383   O406    1.386   .     S
C383   C418    1.394   .     S
C384   O407    1.385   .     S
C384   C434    1.394   .     S
Cu385  N403    2.015   .     S
Cu385  O412    1.931   .     S
Cu385  Cu386   2.682   .     S
Cu385  O405    1.959   .     S
Cu385  O414    1.930   .     S
Cu385  O410    1.961   .     S
Cu386  N404    2.015   .     S
Cu386  O411    1.961   .     S
Cu386  O415    1.930   .     S
Cu386  O409    1.959   .     S
Cu386  O413    1.931   .     S
C417   C420    1.447   .     S
C417   O463    1.289   .     A
C417   O457    1.291   .     A
C418   C420    1.409   .     A
C418   O460    1.385   .     S
C419   C436    1.409   .     A
C419   C435    1.408   .     A
C419   C428    1.447   .     S
C420   C434    1.408   .     A
C421   N456    1.367   .     A
C421   H439    1.082   .     S
C422   H447    1.082   .     S
C422   N455    1.367   .     A
C422   C111    1.418   1_565 S
C423   N456    1.368   .     A
C423   H448    1.082   .     S
C424   N455    1.368   .     A
C424   H449    1.082   .     S
C424   C109    1.418   1_565 S
C425   H452    1.108   .     S
C425   O468    1.413   .     S
C425   H450    1.109   .     S
C425   H451    1.115   .     S
C426   O458    1.413   .     S
C426   H454    1.109   .     S
C426   H453    1.116   .     S
C426   H440    1.108   .     S
C427   O459    1.413   .     S
C427   H443    1.112   .     S
C427   H441    1.108   .     S
C427   H442    1.109   .     S
C428   O461    1.291   .     A
C428   O462    1.289   .     A
C429   H444    1.109   .     S
C429   H445    1.108   .     S
C429   H446    1.112   .     S
C429   O460    1.413   .     S
C430   O467    1.288   .     A
C430   C432    1.407   .     S
C430   O464    1.288   .     A
C431   O465    1.288   .     A
C431   C433    1.407   .     S
C431   O466    1.288   .     A
C432   C1369   1.189   1_554 S
C433   C900    1.189   .     S
C434   O468    1.386   .     S
C435   O458    1.386   .     S
C435   C314    1.394   1_655 S
C436   O459    1.385   .     S
C436   C330    1.394   1_655 S
Cu437  N455    2.015   .     S
Cu437  O464    1.931   .     S
Cu437  Cu438   2.682   .     S
Cu437  O457    1.959   .     S
Cu437  O466    1.930   .     S
Cu437  O462    1.961   .     S
Cu438  N456    2.015   .     S
Cu438  O463    1.961   .     S
Cu438  O467    1.930   .     S
Cu438  O461    1.959   .     S
Cu438  O465    1.931   .     S
C469   C472    1.447   .     S
C469   O515    1.289   .     A
C469   O509    1.291   .     A
C470   C472    1.409   .     A
C470   O512    1.385   .     S
C470   C591    1.394   1_455 S
C471   C488    1.409   .     A
C471   C487    1.408   .     A
C471   C480    1.447   .     S
C472   C486    1.408   .     A
C473   N508    1.367   .     A
C473   H491    1.082   .     S
C473   C788    1.418   1_545 S
C474   H499    1.082   .     S
C474   N507    1.367   .     A
C474   C631    1.418   .     S
C475   N508    1.368   .     A
C475   H500    1.082   .     S
C475   C786    1.418   1_545 S
C476   N507    1.368   .     A
C476   H501    1.082   .     S
C476   C629    1.418   .     S
C477   H504    1.108   .     S
C477   O520    1.413   .     S
C477   H502    1.109   .     S
C477   H503    1.115   .     S
C478   O510    1.413   .     S
C478   H506    1.109   .     S
C478   H505    1.116   .     S
C478   H492    1.108   .     S
C479   O511    1.413   .     S
C479   H495    1.112   .     S
C479   H493    1.108   .     S
C479   H494    1.109   .     S
C480   O513    1.291   .     A
C480   O514    1.289   .     A
C481   H496    1.109   .     S
C481   H497    1.108   .     S
C481   H498    1.112   .     S
C481   O512    1.413   .     S
C482   O519    1.288   .     A
C482   C484    1.407   .     S
C482   O516    1.288   .     A
C483   O517    1.288   .     A
C483   C485    1.407   .     S
C483   O518    1.288   .     A
C485   C952    1.189   .     S
C486   O520    1.386   .     S
C486   C592    1.394   1_455 S
C487   O510    1.386   .     S
C487   C522    1.394   .     S
C488   O511    1.385   .     S
C488   C538    1.394   .     S
Cu489  N507    2.015   .     S
Cu489  O516    1.931   .     S
Cu489  Cu490   2.682   .     S
Cu489  O509    1.959   .     S
Cu489  O518    1.930   .     S
Cu489  O514    1.961   .     S
Cu490  N508    2.015   .     S
Cu490  O515    1.961   .     S
Cu490  O519    1.930   .     S
Cu490  O513    1.959   .     S
Cu490  O517    1.931   .     S
C521   C524    1.447   .     S
C521   O567    1.289   .     A
C521   O561    1.291   .     A
C522   C524    1.409   .     A
C522   O564    1.385   .     S
C523   C540    1.409   .     A
C523   C539    1.408   .     A
C523   C532    1.447   .     S
C524   C538    1.408   .     A
C525   N560    1.367   .     A
C525   H543    1.082   .     S
C525   C840    1.418   1_545 S
C526   H551    1.082   .     S
C526   N559    1.367   .     A
C526   C683    1.418   .     S
C527   N560    1.368   .     A
C527   H552    1.082   .     S
C527   C838    1.418   1_545 S
C528   N559    1.368   .     A
C528   H553    1.082   .     S
C528   C681    1.418   .     S
C529   H556    1.108   .     S
C529   O572    1.413   .     S
C529   H554    1.109   .     S
C529   H555    1.115   .     S
C530   O562    1.413   .     S
C530   H558    1.109   .     S
C530   H557    1.116   .     S
C530   H544    1.108   .     S
C531   O563    1.413   .     S
C531   H547    1.112   .     S
C531   H545    1.108   .     S
C531   H546    1.109   .     S
C532   O565    1.291   .     A
C532   O566    1.289   .     A
C533   H548    1.109   .     S
C533   H549    1.108   .     S
C533   H550    1.112   .     S
C533   O564    1.413   .     S
C534   O571    1.288   .     A
C534   C536    1.407   .     S
C534   O568    1.288   .     A
C535   O569    1.288   .     A
C535   C537    1.407   .     S
C535   O570    1.288   .     A
C537   C1004   1.189   .     S
C538   O572    1.386   .     S
C539   O562    1.386   .     S
C539   C574    1.394   .     S
C540   O563    1.385   .     S
C540   C590    1.394   .     S
Cu541  N559    2.015   .     S
Cu541  O568    1.931   .     S
Cu541  Cu542   2.682   .     S
Cu541  O561    1.959   .     S
Cu541  O570    1.930   .     S
Cu541  O566    1.961   .     S
Cu542  N560    2.015   .     S
Cu542  O567    1.961   .     S
Cu542  O571    1.930   .     S
Cu542  O565    1.959   .     S
Cu542  O569    1.931   .     S
C573   C576    1.447   .     S
C573   O619    1.289   .     A
C573   O613    1.291   .     A
C574   C576    1.409   .     A
C574   O616    1.385   .     S
C575   C592    1.409   .     A
C575   C591    1.408   .     A
C575   C584    1.447   .     S
C576   C590    1.408   .     A
C577   N612    1.367   .     A
C577   H595    1.082   .     S
C577   C892    1.418   1_545 S
C578   H603    1.082   .     S
C578   N611    1.367   .     A
C578   C735    1.418   .     S
C579   N612    1.368   .     A
C579   H604    1.082   .     S
C579   C890    1.418   1_545 S
C580   N611    1.368   .     A
C580   H605    1.082   .     S
C580   C733    1.418   .     S
C581   H608    1.108   .     S
C581   O624    1.413   .     S
C581   H606    1.109   .     S
C581   H607    1.115   .     S
C582   O614    1.413   .     S
C582   H610    1.109   .     S
C582   H609    1.116   .     S
C582   H596    1.108   .     S
C583   O615    1.413   .     S
C583   H599    1.112   .     S
C583   H597    1.108   .     S
C583   H598    1.109   .     S
C584   O617    1.291   .     A
C584   O618    1.289   .     A
C585   H600    1.109   .     S
C585   H601    1.108   .     S
C585   H602    1.112   .     S
C585   O616    1.413   .     S
C586   O623    1.288   .     A
C586   C588    1.407   .     S
C586   O620    1.288   .     A
C587   O621    1.288   .     A
C587   C589    1.407   .     S
C587   O622    1.288   .     A
C589   C1056   1.189   .     S
C590   O624    1.386   .     S
C591   O614    1.386   .     S
C591   C470    1.394   1_655 S
C592   O615    1.385   .     S
C592   C486    1.394   1_655 S
Cu593  N611    2.015   .     S
Cu593  O620    1.931   .     S
Cu593  Cu594   2.682   .     S
Cu593  O613    1.959   .     S
Cu593  O622    1.930   .     S
Cu593  O618    1.961   .     S
Cu594  N612    2.015   .     S
Cu594  O619    1.961   .     S
Cu594  O623    1.930   .     S
Cu594  O617    1.959   .     S
Cu594  O621    1.931   .     S
C625   C628    1.447   .     S
C625   O671    1.289   .     A
C625   O665    1.291   .     A
C626   C628    1.409   .     A
C626   O668    1.385   .     S
C626   C747    1.394   1_455 S
C627   C644    1.409   .     A
C627   C643    1.408   .     A
C627   C636    1.447   .     S
C628   C642    1.408   .     A
C629   N664    1.367   .     A
C629   H647    1.082   .     S
C630   H655    1.082   .     S
C630   N663    1.367   .     A
C630   C787    1.418   .     S
C631   N664    1.368   .     A
C631   H656    1.082   .     S
C632   N663    1.368   .     A
C632   H657    1.082   .     S
C632   C785    1.418   .     S
C633   H660    1.108   .     S
C633   O676    1.413   .     S
C633   H658    1.109   .     S
C633   H659    1.115   .     S
C634   O666    1.413   .     S
C634   H662    1.109   .     S
C634   H661    1.116   .     S
C634   H648    1.108   .     S
C635   O667    1.413   .     S
C635   H651    1.112   .     S
C635   H649    1.108   .     S
C635   H650    1.109   .     S
C636   O669    1.291   .     A
C636   O670    1.289   .     A
C637   H652    1.109   .     S
C637   H653    1.108   .     S
C637   H654    1.112   .     S
C637   O668    1.413   .     S
C638   O675    1.288   .     A
C638   C640    1.407   .     S
C638   O672    1.288   .     A
C639   O673    1.288   .     A
C639   C641    1.407   .     S
C639   O674    1.288   .     A
C641   C1108   1.189   .     S
C642   O676    1.386   .     S
C642   C748    1.394   1_455 S
C643   O666    1.386   .     S
C643   C678    1.394   .     S
C644   O667    1.385   .     S
C644   C694    1.394   .     S
Cu645  N663    2.015   .     S
Cu645  O672    1.931   .     S
Cu645  Cu646   2.682   .     S
Cu645  O665    1.959   .     S
Cu645  O674    1.930   .     S
Cu645  O670    1.961   .     S
Cu646  N664    2.015   .     S
Cu646  O671    1.961   .     S
Cu646  O675    1.930   .     S
Cu646  O669    1.959   .     S
Cu646  O673    1.931   .     S
C677   C680    1.447   .     S
C677   O723    1.289   .     A
C677   O717    1.291   .     A
C678   C680    1.409   .     A
C678   O720    1.385   .     S
C679   C696    1.409   .     A
C679   C695    1.408   .     A
C679   C688    1.447   .     S
C680   C694    1.408   .     A
C681   N716    1.367   .     A
C681   H699    1.082   .     S
C682   H707    1.082   .     S
C682   N715    1.367   .     A
C682   C839    1.418   .     S
C683   N716    1.368   .     A
C683   H708    1.082   .     S
C684   N715    1.368   .     A
C684   H709    1.082   .     S
C684   C837    1.418   .     S
C685   H712    1.108   .     S
C685   O728    1.413   .     S
C685   H710    1.109   .     S
C685   H711    1.115   .     S
C686   O718    1.413   .     S
C686   H714    1.109   .     S
C686   H713    1.116   .     S
C686   H700    1.108   .     S
C687   O719    1.413   .     S
C687   H703    1.112   .     S
C687   H701    1.108   .     S
C687   H702    1.109   .     S
C688   O721    1.291   .     A
C688   O722    1.289   .     A
C689   H704    1.109   .     S
C689   H705    1.108   .     S
C689   H706    1.112   .     S
C689   O720    1.413   .     S
C690   O727    1.288   .     A
C690   C692    1.407   .     S
C690   O724    1.288   .     A
C691   O725    1.288   .     A
C691   C693    1.407   .     S
C691   O726    1.288   .     A
C693   C1160   1.189   .     S
C694   O728    1.386   .     S
C695   O718    1.386   .     S
C695   C730    1.394   .     S
C696   O719    1.385   .     S
C696   C746    1.394   .     S
Cu697  N715    2.015   .     S
Cu697  O724    1.931   .     S
Cu697  Cu698   2.682   .     S
Cu697  O717    1.959   .     S
Cu697  O726    1.930   .     S
Cu697  O722    1.961   .     S
Cu698  N716    2.015   .     S
Cu698  O723    1.961   .     S
Cu698  O727    1.930   .     S
Cu698  O721    1.959   .     S
Cu698  O725    1.931   .     S
C729   C732    1.447   .     S
C729   O775    1.289   .     A
C729   O769    1.291   .     A
C730   C732    1.409   .     A
C730   O772    1.385   .     S
C731   C748    1.409   .     A
C731   C747    1.408   .     A
C731   C740    1.447   .     S
C732   C746    1.408   .     A
C733   N768    1.367   .     A
C733   H751    1.082   .     S
C734   H759    1.082   .     S
C734   N767    1.367   .     A
C734   C891    1.418   .     S
C735   N768    1.368   .     A
C735   H760    1.082   .     S
C736   N767    1.368   .     A
C736   H761    1.082   .     S
C736   C889    1.418   .     S
C737   H764    1.108   .     S
C737   O780    1.413   .     S
C737   H762    1.109   .     S
C737   H763    1.115   .     S
C738   O770    1.413   .     S
C738   H766    1.109   .     S
C738   H765    1.116   .     S
C738   H752    1.108   .     S
C739   O771    1.413   .     S
C739   H755    1.112   .     S
C739   H753    1.108   .     S
C739   H754    1.109   .     S
C740   O773    1.291   .     A
C740   O774    1.289   .     A
C741   H756    1.109   .     S
C741   H757    1.108   .     S
C741   H758    1.112   .     S
C741   O772    1.413   .     S
C742   O779    1.288   .     A
C742   C744    1.407   .     S
C742   O776    1.288   .     A
C743   O777    1.288   .     A
C743   C745    1.407   .     S
C743   O778    1.288   .     A
C745   C1212   1.189   .     S
C746   O780    1.386   .     S
C747   O770    1.386   .     S
C747   C626    1.394   1_655 S
C748   O771    1.385   .     S
C748   C642    1.394   1_655 S
Cu749  N767    2.015   .     S
Cu749  O776    1.931   .     S
Cu749  Cu750   2.682   .     S
Cu749  O769    1.959   .     S
Cu749  O778    1.930   .     S
Cu749  O774    1.961   .     S
Cu750  N768    2.015   .     S
Cu750  O775    1.961   .     S
Cu750  O779    1.930   .     S
Cu750  O773    1.959   .     S
Cu750  O777    1.931   .     S
C781   C784    1.447   .     S
C781   O827    1.289   .     A
C781   O821    1.291   .     A
C782   C784    1.409   .     A
C782   O824    1.385   .     S
C782   C903    1.394   1_455 S
C783   C800    1.409   .     A
C783   C799    1.408   .     A
C783   C792    1.447   .     S
C784   C798    1.408   .     A
C785   N820    1.367   .     A
C785   H803    1.082   .     S
C786   H811    1.082   .     S
C786   N819    1.367   .     A
C786   C475    1.418   1_565 S
C787   N820    1.368   .     A
C787   H812    1.082   .     S
C788   N819    1.368   .     A
C788   H813    1.082   .     S
C788   C473    1.418   1_565 S
C789   H816    1.108   .     S
C789   O832    1.413   .     S
C789   H814    1.109   .     S
C789   H815    1.115   .     S
C790   O822    1.413   .     S
C790   H818    1.109   .     S
C790   H817    1.116   .     S
C790   H804    1.108   .     S
C791   O823    1.413   .     S
C791   H807    1.112   .     S
C791   H805    1.108   .     S
C791   H806    1.109   .     S
C792   O825    1.291   .     A
C792   O826    1.289   .     A
C793   H808    1.109   .     S
C793   H809    1.108   .     S
C793   H810    1.112   .     S
C793   O824    1.413   .     S
C794   O831    1.288   .     A
C794   C796    1.407   .     S
C794   O828    1.288   .     A
C795   O829    1.288   .     A
C795   C797    1.407   .     S
C795   O830    1.288   .     A
C797   C1264   1.189   .     S
C798   O832    1.386   .     S
C798   C904    1.394   1_455 S
C799   O822    1.386   .     S
C799   C834    1.394   .     S
C800   O823    1.385   .     S
C800   C850    1.394   .     S
Cu801  N819    2.015   .     S
Cu801  O828    1.931   .     S
Cu801  Cu802   2.682   .     S
Cu801  O821    1.959   .     S
Cu801  O830    1.930   .     S
Cu801  O826    1.961   .     S
Cu802  N820    2.015   .     S
Cu802  O827    1.961   .     S
Cu802  O831    1.930   .     S
Cu802  O825    1.959   .     S
Cu802  O829    1.931   .     S
C833   C836    1.447   .     S
C833   O879    1.289   .     A
C833   O873    1.291   .     A
C834   C836    1.409   .     A
C834   O876    1.385   .     S
C835   C852    1.409   .     A
C835   C851    1.408   .     A
C835   C844    1.447   .     S
C836   C850    1.408   .     A
C837   N872    1.367   .     A
C837   H855    1.082   .     S
C838   H863    1.082   .     S
C838   N871    1.367   .     A
C838   C527    1.418   1_565 S
C839   N872    1.368   .     A
C839   H864    1.082   .     S
C840   N871    1.368   .     A
C840   H865    1.082   .     S
C840   C525    1.418   1_565 S
C841   H868    1.108   .     S
C841   O884    1.413   .     S
C841   H866    1.109   .     S
C841   H867    1.115   .     S
C842   O874    1.413   .     S
C842   H870    1.109   .     S
C842   H869    1.116   .     S
C842   H856    1.108   .     S
C843   O875    1.413   .     S
C843   H859    1.112   .     S
C843   H857    1.108   .     S
C843   H858    1.109   .     S
C844   O877    1.291   .     A
C844   O878    1.289   .     A
C845   H860    1.109   .     S
C845   H861    1.108   .     S
C845   H862    1.112   .     S
C845   O876    1.413   .     S
C846   O883    1.288   .     A
C846   C848    1.407   .     S
C846   O880    1.288   .     A
C847   O881    1.288   .     A
C847   C849    1.407   .     S
C847   O882    1.288   .     A
C849   C1316   1.189   .     S
C850   O884    1.386   .     S
C851   O874    1.386   .     S
C851   C886    1.394   .     S
C852   O875    1.385   .     S
C852   C902    1.394   .     S
Cu853  N871    2.015   .     S
Cu853  O880    1.931   .     S
Cu853  Cu854   2.682   .     S
Cu853  O873    1.959   .     S
Cu853  O882    1.930   .     S
Cu853  O878    1.961   .     S
Cu854  N872    2.015   .     S
Cu854  O879    1.961   .     S
Cu854  O883    1.930   .     S
Cu854  O877    1.959   .     S
Cu854  O881    1.931   .     S
C885   C888    1.447   .     S
C885   O931    1.289   .     A
C885   O925    1.291   .     A
C886   C888    1.409   .     A
C886   O928    1.385   .     S
C887   C904    1.409   .     A
C887   C903    1.408   .     A
C887   C896    1.447   .     S
C888   C902    1.408   .     A
C889   N924    1.367   .     A
C889   H907    1.082   .     S
C890   H915    1.082   .     S
C890   N923    1.367   .     A
C890   C579    1.418   1_565 S
C891   N924    1.368   .     A
C891   H916    1.082   .     S
C892   N923    1.368   .     A
C892   H917    1.082   .     S
C892   C577    1.418   1_565 S
C893   H920    1.108   .     S
C893   O936    1.413   .     S
C893   H918    1.109   .     S
C893   H919    1.115   .     S
C894   O926    1.413   .     S
C894   H922    1.109   .     S
C894   H921    1.116   .     S
C894   H908    1.108   .     S
C895   O927    1.413   .     S
C895   H911    1.112   .     S
C895   H909    1.108   .     S
C895   H910    1.109   .     S
C896   O929    1.291   .     A
C896   O930    1.289   .     A
C897   H912    1.109   .     S
C897   H913    1.108   .     S
C897   H914    1.112   .     S
C897   O928    1.413   .     S
C898   O935    1.288   .     A
C898   C900    1.407   .     S
C898   O932    1.288   .     A
C899   O933    1.288   .     A
C899   C901    1.407   .     S
C899   O934    1.288   .     A
C901   C1368   1.189   .     S
C902   O936    1.386   .     S
C903   O926    1.386   .     S
C903   C782    1.394   1_655 S
C904   O927    1.385   .     S
C904   C798    1.394   1_655 S
Cu905  N923    2.015   .     S
Cu905  O932    1.931   .     S
Cu905  Cu906   2.682   .     S
Cu905  O925    1.959   .     S
Cu905  O934    1.930   .     S
Cu905  O930    1.961   .     S
Cu906  N924    2.015   .     S
Cu906  O931    1.961   .     S
Cu906  O935    1.930   .     S
Cu906  O929    1.959   .     S
Cu906  O933    1.931   .     S
C937   C940    1.447   .     S
C937   O983    1.289   .     A
C937   O977    1.291   .     A
C938   C940    1.409   .     A
C938   O980    1.385   .     S
C938   C1059   1.394   1_455 S
C939   C956    1.409   .     A
C939   C955    1.408   .     A
C939   C948    1.447   .     S
C940   C954    1.408   .     A
C941   N976    1.367   .     A
C941   H959    1.082   .     S
C941   C1256   1.418   1_545 S
C942   H967    1.082   .     S
C942   N975    1.367   .     A
C942   C1099   1.418   .     S
C943   N976    1.368   .     A
C943   H968    1.082   .     S
C943   C1254   1.418   1_545 S
C944   N975    1.368   .     A
C944   H969    1.082   .     S
C944   C1097   1.418   .     S
C945   H972    1.108   .     S
C945   O988    1.413   .     S
C945   H970    1.109   .     S
C945   H971    1.115   .     S
C946   O978    1.413   .     S
C946   H974    1.109   .     S
C946   H973    1.116   .     S
C946   H960    1.108   .     S
C947   O979    1.413   .     S
C947   H963    1.112   .     S
C947   H961    1.108   .     S
C947   H962    1.109   .     S
C948   O981    1.291   .     A
C948   O982    1.289   .     A
C949   H964    1.109   .     S
C949   H965    1.108   .     S
C949   H966    1.112   .     S
C949   O980    1.413   .     S
C950   O987    1.288   .     A
C950   C952    1.407   .     S
C950   O984    1.288   .     A
C951   O985    1.288   .     A
C951   C953    1.407   .     S
C951   O986    1.288   .     A
C953   C16     1.189   1_556 S
C954   O988    1.386   .     S
C954   C1060   1.394   1_455 S
C955   O978    1.386   .     S
C955   C990    1.394   .     S
C956   O979    1.385   .     S
C956   C1006   1.394   .     S
Cu957  N975    2.015   .     S
Cu957  O984    1.931   .     S
Cu957  Cu958   2.682   .     S
Cu957  O977    1.959   .     S
Cu957  O986    1.930   .     S
Cu957  O982    1.961   .     S
Cu958  N976    2.015   .     S
Cu958  O983    1.961   .     S
Cu958  O987    1.930   .     S
Cu958  O981    1.959   .     S
Cu958  O985    1.931   .     S
C989   C992    1.447   .     S
C989   O1035   1.289   .     A
C989   O1029   1.291   .     A
C990   C992    1.409   .     A
C990   O1032   1.385   .     S
C991   C1008   1.409   .     A
C991   C1007   1.408   .     A
C991   C1000   1.447   .     S
C992   C1006   1.408   .     A
C993   N1028   1.367   .     A
C993   H1011   1.082   .     S
C993   C1308   1.418   1_545 S
C994   H1019   1.082   .     S
C994   N1027   1.367   .     A
C994   C1151   1.418   .     S
C995   N1028   1.368   .     A
C995   H1020   1.082   .     S
C995   C1306   1.418   1_545 S
C996   N1027   1.368   .     A
C996   H1021   1.082   .     S
C996   C1149   1.418   .     S
C997   H1024   1.108   .     S
C997   O1040   1.413   .     S
C997   H1022   1.109   .     S
C997   H1023   1.115   .     S
C998   O1030   1.413   .     S
C998   H1026   1.109   .     S
C998   H1025   1.116   .     S
C998   H1012   1.108   .     S
C999   O1031   1.413   .     S
C999   H1015   1.112   .     S
C999   H1013   1.108   .     S
C999   H1014   1.109   .     S
C1000  O1033   1.291   .     A
C1000  O1034   1.289   .     A
C1001  H1016   1.109   .     S
C1001  H1017   1.108   .     S
C1001  H1018   1.112   .     S
C1001  O1032   1.413   .     S
C1002  O1039   1.288   .     A
C1002  C1004   1.407   .     S
C1002  O1036   1.288   .     A
C1003  O1037   1.288   .     A
C1003  C1005   1.407   .     S
C1003  O1038   1.288   .     A
C1005  C68     1.189   1_556 S
C1006  O1040   1.386   .     S
C1007  O1030   1.386   .     S
C1007  C1042   1.394   .     S
C1008  O1031   1.385   .     S
C1008  C1058   1.394   .     S
Cu1009 N1027   2.015   .     S
Cu1009 O1036   1.931   .     S
Cu1009 Cu1010  2.682   .     S
Cu1009 O1029   1.959   .     S
Cu1009 O1038   1.930   .     S
Cu1009 O1034   1.961   .     S
Cu1010 N1028   2.015   .     S
Cu1010 O1035   1.961   .     S
Cu1010 O1039   1.930   .     S
Cu1010 O1033   1.959   .     S
Cu1010 O1037   1.931   .     S
C1041  C1044   1.447   .     S
C1041  O1087   1.289   .     A
C1041  O1081   1.291   .     A
C1042  C1044   1.409   .     A
C1042  O1084   1.385   .     S
C1043  C1060   1.409   .     A
C1043  C1059   1.408   .     A
C1043  C1052   1.447   .     S
C1044  C1058   1.408   .     A
C1045  N1080   1.367   .     A
C1045  H1063   1.082   .     S
C1045  C1360   1.418   1_545 S
C1046  H1071   1.082   .     S
C1046  N1079   1.367   .     A
C1046  C1203   1.418   .     S
C1047  N1080   1.368   .     A
C1047  H1072   1.082   .     S
C1047  C1358   1.418   1_545 S
C1048  N1079   1.368   .     A
C1048  H1073   1.082   .     S
C1048  C1201   1.418   .     S
C1049  H1076   1.108   .     S
C1049  O1092   1.413   .     S
C1049  H1074   1.109   .     S
C1049  H1075   1.115   .     S
C1050  O1082   1.413   .     S
C1050  H1078   1.109   .     S
C1050  H1077   1.116   .     S
C1050  H1064   1.108   .     S
C1051  O1083   1.413   .     S
C1051  H1067   1.112   .     S
C1051  H1065   1.108   .     S
C1051  H1066   1.109   .     S
C1052  O1085   1.291   .     A
C1052  O1086   1.289   .     A
C1053  H1068   1.109   .     S
C1053  H1069   1.108   .     S
C1053  H1070   1.112   .     S
C1053  O1084   1.413   .     S
C1054  O1091   1.288   .     A
C1054  C1056   1.407   .     S
C1054  O1088   1.288   .     A
C1055  O1089   1.288   .     A
C1055  C1057   1.407   .     S
C1055  O1090   1.288   .     A
C1057  C120    1.189   1_556 S
C1058  O1092   1.386   .     S
C1059  O1082   1.386   .     S
C1059  C938    1.394   1_655 S
C1060  O1083   1.385   .     S
C1060  C954    1.394   1_655 S
Cu1061 N1079   2.015   .     S
Cu1061 O1088   1.931   .     S
Cu1061 Cu1062  2.682   .     S
Cu1061 O1081   1.959   .     S
Cu1061 O1090   1.930   .     S
Cu1061 O1086   1.961   .     S
Cu1062 N1080   2.015   .     S
Cu1062 O1087   1.961   .     S
Cu1062 O1091   1.930   .     S
Cu1062 O1085   1.959   .     S
Cu1062 O1089   1.931   .     S
C1093  C1096   1.447   .     S
C1093  O1139   1.289   .     A
C1093  O1133   1.291   .     A
C1094  C1096   1.409   .     A
C1094  O1136   1.385   .     S
C1094  C1215   1.394   1_455 S
C1095  C1112   1.409   .     A
C1095  C1111   1.408   .     A
C1095  C1104   1.447   .     S
C1096  C1110   1.408   .     A
C1097  N1132   1.367   .     A
C1097  H1115   1.082   .     S
C1098  H1123   1.082   .     S
C1098  N1131   1.367   .     A
C1098  C1255   1.418   .     S
C1099  N1132   1.368   .     A
C1099  H1124   1.082   .     S
C1100  N1131   1.368   .     A
C1100  H1125   1.082   .     S
C1100  C1253   1.418   .     S
C1101  H1128   1.108   .     S
C1101  O1144   1.413   .     S
C1101  H1126   1.109   .     S
C1101  H1127   1.115   .     S
C1102  O1134   1.413   .     S
C1102  H1130   1.109   .     S
C1102  H1129   1.116   .     S
C1102  H1116   1.108   .     S
C1103  O1135   1.413   .     S
C1103  H1119   1.112   .     S
C1103  H1117   1.108   .     S
C1103  H1118   1.109   .     S
C1104  O1137   1.291   .     A
C1104  O1138   1.289   .     A
C1105  H1120   1.109   .     S
C1105  H1121   1.108   .     S
C1105  H1122   1.112   .     S
C1105  O1136   1.413   .     S
C1106  O1143   1.288   .     A
C1106  C1108   1.407   .     S
C1106  O1140   1.288   .     A
C1107  O1141   1.288   .     A
C1107  C1109   1.407   .     S
C1107  O1142   1.288   .     A
C1109  C172    1.189   1_556 S
C1110  O1144   1.386   .     S
C1110  C1216   1.394   1_455 S
C1111  O1134   1.386   .     S
C1111  C1146   1.394   .     S
C1112  O1135   1.385   .     S
C1112  C1162   1.394   .     S
Cu1113 N1131   2.015   .     S
Cu1113 O1140   1.931   .     S
Cu1113 Cu1114  2.682   .     S
Cu1113 O1133   1.959   .     S
Cu1113 O1142   1.930   .     S
Cu1113 O1138   1.961   .     S
Cu1114 N1132   2.015   .     S
Cu1114 O1139   1.961   .     S
Cu1114 O1143   1.930   .     S
Cu1114 O1137   1.959   .     S
Cu1114 O1141   1.931   .     S
C1145  C1148   1.447   .     S
C1145  O1191   1.289   .     A
C1145  O1185   1.291   .     A
C1146  C1148   1.409   .     A
C1146  O1188   1.385   .     S
C1147  C1164   1.409   .     A
C1147  C1163   1.408   .     A
C1147  C1156   1.447   .     S
C1148  C1162   1.408   .     A
C1149  N1184   1.367   .     A
C1149  H1167   1.082   .     S
C1150  H1175   1.082   .     S
C1150  N1183   1.367   .     A
C1150  C1307   1.418   .     S
C1151  N1184   1.368   .     A
C1151  H1176   1.082   .     S
C1152  N1183   1.368   .     A
C1152  H1177   1.082   .     S
C1152  C1305   1.418   .     S
C1153  H1180   1.108   .     S
C1153  O1196   1.413   .     S
C1153  H1178   1.109   .     S
C1153  H1179   1.115   .     S
C1154  O1186   1.413   .     S
C1154  H1182   1.109   .     S
C1154  H1181   1.116   .     S
C1154  H1168   1.108   .     S
C1155  O1187   1.413   .     S
C1155  H1171   1.112   .     S
C1155  H1169   1.108   .     S
C1155  H1170   1.109   .     S
C1156  O1189   1.291   .     A
C1156  O1190   1.289   .     A
C1157  H1172   1.109   .     S
C1157  H1173   1.108   .     S
C1157  H1174   1.112   .     S
C1157  O1188   1.413   .     S
C1158  O1195   1.288   .     A
C1158  C1160   1.407   .     S
C1158  O1192   1.288   .     A
C1159  O1193   1.288   .     A
C1159  C1161   1.407   .     S
C1159  O1194   1.288   .     A
C1161  C224    1.189   1_556 S
C1162  O1196   1.386   .     S
C1163  O1186   1.386   .     S
C1163  C1198   1.394   .     S
C1164  O1187   1.385   .     S
C1164  C1214   1.394   .     S
Cu1165 N1183   2.015   .     S
Cu1165 O1192   1.931   .     S
Cu1165 Cu1166  2.682   .     S
Cu1165 O1185   1.959   .     S
Cu1165 O1194   1.930   .     S
Cu1165 O1190   1.961   .     S
Cu1166 N1184   2.015   .     S
Cu1166 O1191   1.961   .     S
Cu1166 O1195   1.930   .     S
Cu1166 O1189   1.959   .     S
Cu1166 O1193   1.931   .     S
C1197  C1200   1.447   .     S
C1197  O1243   1.289   .     A
C1197  O1237   1.291   .     A
C1198  C1200   1.409   .     A
C1198  O1240   1.385   .     S
C1199  C1216   1.409   .     A
C1199  C1215   1.408   .     A
C1199  C1208   1.447   .     S
C1200  C1214   1.408   .     A
C1201  N1236   1.367   .     A
C1201  H1219   1.082   .     S
C1202  H1227   1.082   .     S
C1202  N1235   1.367   .     A
C1202  C1359   1.418   .     S
C1203  N1236   1.368   .     A
C1203  H1228   1.082   .     S
C1204  N1235   1.368   .     A
C1204  H1229   1.082   .     S
C1204  C1357   1.418   .     S
C1205  H1232   1.108   .     S
C1205  O1248   1.413   .     S
C1205  H1230   1.109   .     S
C1205  H1231   1.115   .     S
C1206  O1238   1.413   .     S
C1206  H1234   1.109   .     S
C1206  H1233   1.116   .     S
C1206  H1220   1.108   .     S
C1207  O1239   1.413   .     S
C1207  H1223   1.112   .     S
C1207  H1221   1.108   .     S
C1207  H1222   1.109   .     S
C1208  O1241   1.291   .     A
C1208  O1242   1.289   .     A
C1209  H1224   1.109   .     S
C1209  H1225   1.108   .     S
C1209  H1226   1.112   .     S
C1209  O1240   1.413   .     S
C1210  O1247   1.288   .     A
C1210  C1212   1.407   .     S
C1210  O1244   1.288   .     A
C1211  O1245   1.288   .     A
C1211  C1213   1.407   .     S
C1211  O1246   1.288   .     A
C1213  C276    1.189   1_556 S
C1214  O1248   1.386   .     S
C1215  O1238   1.386   .     S
C1215  C1094   1.394   1_655 S
C1216  O1239   1.385   .     S
C1216  C1110   1.394   1_655 S
Cu1217 N1235   2.015   .     S
Cu1217 O1244   1.931   .     S
Cu1217 Cu1218  2.682   .     S
Cu1217 O1237   1.959   .     S
Cu1217 O1246   1.930   .     S
Cu1217 O1242   1.961   .     S
Cu1218 N1236   2.015   .     S
Cu1218 O1243   1.961   .     S
Cu1218 O1247   1.930   .     S
Cu1218 O1241   1.959   .     S
Cu1218 O1245   1.931   .     S
C1249  C1252   1.447   .     S
C1249  O1295   1.289   .     A
C1249  O1289   1.291   .     A
C1250  C1252   1.409   .     A
C1250  O1292   1.385   .     S
C1250  C1371   1.394   1_455 S
C1251  C1268   1.409   .     A
C1251  C1267   1.408   .     A
C1251  C1260   1.447   .     S
C1252  C1266   1.408   .     A
C1253  N1288   1.367   .     A
C1253  H1271   1.082   .     S
C1254  H1279   1.082   .     S
C1254  N1287   1.367   .     A
C1254  C943    1.418   1_565 S
C1255  N1288   1.368   .     A
C1255  H1280   1.082   .     S
C1256  N1287   1.368   .     A
C1256  H1281   1.082   .     S
C1256  C941    1.418   1_565 S
C1257  H1284   1.108   .     S
C1257  O1300   1.413   .     S
C1257  H1282   1.109   .     S
C1257  H1283   1.115   .     S
C1258  O1290   1.413   .     S
C1258  H1286   1.109   .     S
C1258  H1285   1.116   .     S
C1258  H1272   1.108   .     S
C1259  O1291   1.413   .     S
C1259  H1275   1.112   .     S
C1259  H1273   1.108   .     S
C1259  H1274   1.109   .     S
C1260  O1293   1.291   .     A
C1260  O1294   1.289   .     A
C1261  H1276   1.109   .     S
C1261  H1277   1.108   .     S
C1261  H1278   1.112   .     S
C1261  O1292   1.413   .     S
C1262  O1299   1.288   .     A
C1262  C1264   1.407   .     S
C1262  O1296   1.288   .     A
C1263  O1297   1.288   .     A
C1263  C1265   1.407   .     S
C1263  O1298   1.288   .     A
C1265  C328    1.189   1_556 S
C1266  O1300   1.386   .     S
C1266  C1372   1.394   1_455 S
C1267  O1290   1.386   .     S
C1267  C1302   1.394   .     S
C1268  O1291   1.385   .     S
C1268  C1318   1.394   .     S
Cu1269 N1287   2.015   .     S
Cu1269 O1296   1.931   .     S
Cu1269 Cu1270  2.682   .     S
Cu1269 O1289   1.959   .     S
Cu1269 O1298   1.930   .     S
Cu1269 O1294   1.961   .     S
Cu1270 N1288   2.015   .     S
Cu1270 O1295   1.961   .     S
Cu1270 O1299   1.930   .     S
Cu1270 O1293   1.959   .     S
Cu1270 O1297   1.931   .     S
C1301  C1304   1.447   .     S
C1301  O1347   1.289   .     A
C1301  O1341   1.291   .     A
C1302  C1304   1.409   .     A
C1302  O1344   1.385   .     S
C1303  C1320   1.409   .     A
C1303  C1319   1.408   .     A
C1303  C1312   1.447   .     S
C1304  C1318   1.408   .     A
C1305  N1340   1.367   .     A
C1305  H1323   1.082   .     S
C1306  H1331   1.082   .     S
C1306  N1339   1.367   .     A
C1306  C995    1.418   1_565 S
C1307  N1340   1.368   .     A
C1307  H1332   1.082   .     S
C1308  N1339   1.368   .     A
C1308  H1333   1.082   .     S
C1308  C993    1.418   1_565 S
C1309  H1336   1.108   .     S
C1309  O1352   1.413   .     S
C1309  H1334   1.109   .     S
C1309  H1335   1.115   .     S
C1310  O1342   1.413   .     S
C1310  H1338   1.109   .     S
C1310  H1337   1.116   .     S
C1310  H1324   1.108   .     S
C1311  O1343   1.413   .     S
C1311  H1327   1.112   .     S
C1311  H1325   1.108   .     S
C1311  H1326   1.109   .     S
C1312  O1345   1.291   .     A
C1312  O1346   1.289   .     A
C1313  H1328   1.109   .     S
C1313  H1329   1.108   .     S
C1313  H1330   1.112   .     S
C1313  O1344   1.413   .     S
C1314  O1351   1.288   .     A
C1314  C1316   1.407   .     S
C1314  O1348   1.288   .     A
C1315  O1349   1.288   .     A
C1315  C1317   1.407   .     S
C1315  O1350   1.288   .     A
C1317  C380    1.189   1_556 S
C1318  O1352   1.386   .     S
C1319  O1342   1.386   .     S
C1319  C1354   1.394   .     S
C1320  O1343   1.385   .     S
C1320  C1370   1.394   .     S
Cu1321 N1339   2.015   .     S
Cu1321 O1348   1.931   .     S
Cu1321 Cu1322  2.682   .     S
Cu1321 O1341   1.959   .     S
Cu1321 O1350   1.930   .     S
Cu1321 O1346   1.961   .     S
Cu1322 N1340   2.015   .     S
Cu1322 O1347   1.961   .     S
Cu1322 O1351   1.930   .     S
Cu1322 O1345   1.959   .     S
Cu1322 O1349   1.931   .     S
C1353  C1356   1.447   .     S
C1353  O1399   1.289   .     A
C1353  O1393   1.291   .     A
C1354  C1356   1.409   .     A
C1354  O1396   1.385   .     S
C1355  C1372   1.409   .     A
C1355  C1371   1.408   .     A
C1355  C1364   1.447   .     S
C1356  C1370   1.408   .     A
C1357  N1392   1.367   .     A
C1357  H1375   1.082   .     S
C1358  H1383   1.082   .     S
C1358  N1391   1.367   .     A
C1358  C1047   1.418   1_565 S
C1359  N1392   1.368   .     A
C1359  H1384   1.082   .     S
C1360  N1391   1.368   .     A
C1360  H1385   1.082   .     S
C1360  C1045   1.418   1_565 S
C1361  H1388   1.108   .     S
C1361  O1404   1.413   .     S
C1361  H1386   1.109   .     S
C1361  H1387   1.115   .     S
C1362  O1394   1.413   .     S
C1362  H1390   1.109   .     S
C1362  H1389   1.116   .     S
C1362  H1376   1.108   .     S
C1363  O1395   1.413   .     S
C1363  H1379   1.112   .     S
C1363  H1377   1.108   .     S
C1363  H1378   1.109   .     S
C1364  O1397   1.291   .     A
C1364  O1398   1.289   .     A
C1365  H1380   1.109   .     S
C1365  H1381   1.108   .     S
C1365  H1382   1.112   .     S
C1365  O1396   1.413   .     S
C1366  O1403   1.288   .     A
C1366  C1368   1.407   .     S
C1366  O1400   1.288   .     A
C1367  O1401   1.288   .     A
C1367  C1369   1.407   .     S
C1367  O1402   1.288   .     A
C1369  C432    1.189   1_556 S
C1370  O1404   1.386   .     S
C1371  O1394   1.386   .     S
C1371  C1250   1.394   1_655 S
C1372  O1395   1.385   .     S
C1372  C1266   1.394   1_655 S
Cu1373 N1391   2.015   .     S
Cu1373 O1400   1.931   .     S
Cu1373 Cu1374  2.682   .     S
Cu1373 O1393   1.959   .     S
Cu1373 O1402   1.930   .     S
Cu1373 O1398   1.961   .     S
Cu1374 N1392   2.015   .     S
Cu1374 O1399   1.961   .     S
Cu1374 O1403   1.930   .     S
Cu1374 O1397   1.959   .     S
Cu1374 O1401   1.931   .     S
