data_str_m1_o10_o18_pcu_sym.90
_audit_creation_date              2020-01-03
_audit_creation_method            'Materials Studio'
_symmetry_space_group_name_H-M    'P1'
_symmetry_Int_Tables_number       1
_symmetry_cell_setting            triclinic
loop_
_symmetry_equiv_pos_as_xyz
  x,y,z
_cell_length_a                    32.5580
_cell_length_b                    32.7350
_cell_length_c                    35.5692
_cell_angle_alpha                 98.5003
_cell_angle_beta                  72.6428
_cell_angle_gamma                 98.5886
loop_
_atom_site_label
_atom_site_type_symbol
_atom_site_fract_x
_atom_site_fract_y
_atom_site_fract_z
_atom_site_U_iso_or_equiv
_atom_site_adp_type
_atom_site_occupancy
Zn1    Zn    0.19244   0.14090   0.28278   0.00000  Uiso   1.00
Zn2    Zn    0.13459   0.12378   0.22258   0.00000  Uiso   1.00
Zn3    Zn    0.21166   0.19664   0.21188   0.00000  Uiso   1.00
Zn4    Zn    0.12798   0.20535   0.28277   0.00000  Uiso   1.00
O5     O     0.16667   0.16667   0.25000   0.00000  Uiso   1.00
O6     O     0.06990   0.18960   0.27820   0.00000  Uiso   1.00
O7     O     0.25440   0.15277   0.26768   0.00000  Uiso   1.00
O8     O     0.13800   0.06903   0.23607   0.00000  Uiso   1.00
O9     O     0.20437   0.25527   0.21805   0.00000  Uiso   1.00
O10    O     0.15693   0.12393   0.16625   0.00000  Uiso   1.00
O11    O     0.12687   0.20646   0.33749   0.00000  Uiso   1.00
O12    O     0.21088   0.17493   0.15877   0.00000  Uiso   1.00
O13    O     0.17198   0.16135   0.33749   0.00000  Uiso   1.00
O14    O     0.17849   0.08101   0.27821   0.00000  Uiso   1.00
O15    O     0.14581   0.26136   0.26767   0.00000  Uiso   1.00
O16    O     0.07452   0.13251   0.23607   0.00000  Uiso   1.00
O17    O     0.26785   0.19179   0.21806   0.00000  Uiso   1.00
C18    C     0.05237   0.15953   0.25924   0.00000  Uiso   1.00
C19    C     0.28111   0.17426   0.24145   0.00000  Uiso   1.00
C20    C     0.15674   0.05629   0.25816   0.00000  Uiso   1.00
C21    C     0.17646   0.27770   0.24162   0.00000  Uiso   1.00
C22    C     0.18829   0.14539   0.14389   0.00000  Uiso   1.00
C23    C     0.14570   0.18813   0.35620   0.00000  Uiso   1.00
C24    C     0.13185   0.19241   0.39975   0.00000  Uiso   1.00
C25    C     0.19874   0.13645   0.10085   0.00000  Uiso   1.00
C26    C     0.07162   0.19215   0.45999   0.00000  Uiso   1.00
C27    C     0.08789   0.19467   0.41924   0.00000  Uiso   1.00
C28    C     0.16058   0.18961   0.42183   0.00000  Uiso   1.00
C29    C     0.14312   0.17733   0.46064   0.00000  Uiso   1.00
C30    C     0.09885   0.18157   0.48069   0.00000  Uiso   1.00
C31    C     0.16843   0.16039   0.47974   0.00000  Uiso   1.00
C32    C     0.15259   0.15624   0.02095   0.00000  Uiso   1.00
C33    C     0.10917   0.16272   0.04054   0.00000  Uiso   1.00
C34    C     0.08254   0.17365   0.02042   0.00000  Uiso   1.00
C35    C     0.20769   0.14447   0.45806   0.00000  Uiso   1.00
C36    C     0.23356   0.13037   0.47697   0.00000  Uiso   1.00
C37    C     0.22123   0.13174   0.01813   0.00000  Uiso   1.00
C38    C     0.18039   0.14428   0.04070   0.00000  Uiso   1.00
C39    C     0.24965   0.12078   0.03680   0.00000  Uiso   1.00
C40    C     0.23902   0.12319   0.07815   0.00000  Uiso   1.00
C41    C     0.16975   0.14617   0.08228   0.00000  Uiso   1.00
H42    H     0.04882   0.17527   0.03644   0.00000  Uiso   1.00
H43    H     0.14041   0.15799   0.10121   0.00000  Uiso   1.00
H44    H     0.26386   0.11910   0.45928   0.00000  Uiso   1.00
H45    H     0.06603   0.19873   0.40264   0.00000  Uiso   1.00
H46    H     0.09397   0.15697   0.07094   0.00000  Uiso   1.00
H47    H     0.21843   0.14177   0.42605   0.00000  Uiso   1.00
H48    H     0.28053   0.11076   0.01905   0.00000  Uiso   1.00
C49    C     0.32745   0.17847   0.23794   0.00000  Uiso   1.00
C50    C     0.00739   0.15760   0.26117   0.00000  Uiso   1.00
H51    H     0.31818   0.13739   0.28152   0.00000  Uiso   1.00
C52    C     0.17903   0.32214   0.23956   0.00000  Uiso   1.00
H53    H     0.20638   0.00252   0.21734   0.00000  Uiso   1.00
C54    C     0.14939   0.01303   0.26376   0.00000  Uiso   1.00
N55    N     0.02401   0.20485   0.21028   0.00000  Uiso   1.00
O56    O     0.01250   0.23908   0.20406   0.00000  Uiso   1.00
O57    O     0.06130   0.19334   0.18895   0.00000  Uiso   1.00
C58    C     0.10927   0.33123   0.29595   0.00000  Uiso   1.00
C59    C     0.08053   0.03166   0.31888   0.00000  Uiso   1.00
H60    H     0.09896   0.05633   0.33431   0.00000  Uiso   1.00
H61    H     0.06781   0.04559   0.29856   0.00000  Uiso   1.00
H62    H     0.05257   0.01769   0.34151   0.00000  Uiso   1.00
H63    H     0.08876   0.30709   0.28211   0.00000  Uiso   1.00
H64    H     0.11968   0.31769   0.31804   0.00000  Uiso   1.00
N65    N     0.26938   0.11236   0.09640   0.00000  Uiso   1.00
O66    O     0.25598   0.09699   0.13026   0.00000  Uiso   1.00
O67    O     0.31045   0.11428   0.07752   0.00000  Uiso   1.00
N68    N     0.02716   0.19865   0.47928   0.00000  Uiso   1.00
O69    O     0.33104   0.18522   0.46107   0.00000  Uiso   1.00
O70    O     0.01744   0.22452   0.01129   0.00000  Uiso   1.00
N71    N     0.20534   0.20727   0.40890   0.00000  Uiso   1.00
O72    O     0.22330   0.22914   0.43467   0.00000  Uiso   1.00
O73    O     0.22690   0.20602   0.37162   0.00000  Uiso   1.00
Zn74   Zn    0.52577   0.14090   0.28278   0.00000  Uiso   1.00
Zn75   Zn    0.46792   0.12378   0.22258   0.00000  Uiso   1.00
Zn76   Zn    0.54500   0.19664   0.21188   0.00000  Uiso   1.00
Zn77   Zn    0.46131   0.20535   0.28277   0.00000  Uiso   1.00
O78    O     0.50000   0.16667   0.25000   0.00000  Uiso   1.00
O79    O     0.40323   0.18960   0.27820   0.00000  Uiso   1.00
O80    O     0.58773   0.15277   0.26768   0.00000  Uiso   1.00
O81    O     0.47133   0.06903   0.23607   0.00000  Uiso   1.00
O82    O     0.53771   0.25527   0.21805   0.00000  Uiso   1.00
O83    O     0.49027   0.12393   0.16625   0.00000  Uiso   1.00
O84    O     0.46020   0.20646   0.33749   0.00000  Uiso   1.00
O85    O     0.54421   0.17493   0.15877   0.00000  Uiso   1.00
O86    O     0.50532   0.16135   0.33749   0.00000  Uiso   1.00
O87    O     0.51182   0.08101   0.27821   0.00000  Uiso   1.00
O88    O     0.47914   0.26136   0.26767   0.00000  Uiso   1.00
O89    O     0.40785   0.13251   0.23607   0.00000  Uiso   1.00
O90    O     0.60119   0.19179   0.21806   0.00000  Uiso   1.00
C91    C     0.38570   0.15953   0.25924   0.00000  Uiso   1.00
C92    C     0.61445   0.17426   0.24145   0.00000  Uiso   1.00
C93    C     0.49007   0.05629   0.25816   0.00000  Uiso   1.00
C94    C     0.50979   0.27770   0.24162   0.00000  Uiso   1.00
C95    C     0.52162   0.14539   0.14389   0.00000  Uiso   1.00
C96    C     0.47904   0.18813   0.35620   0.00000  Uiso   1.00
C97    C     0.46519   0.19241   0.39975   0.00000  Uiso   1.00
C98    C     0.53207   0.13645   0.10085   0.00000  Uiso   1.00
C99    C     0.40496   0.19215   0.45999   0.00000  Uiso   1.00
C100   C     0.42122   0.19467   0.41924   0.00000  Uiso   1.00
C101   C     0.49391   0.18961   0.42183   0.00000  Uiso   1.00
C102   C     0.47645   0.17733   0.46064   0.00000  Uiso   1.00
C103   C     0.43218   0.18157   0.48069   0.00000  Uiso   1.00
C104   C     0.50177   0.16039   0.47974   0.00000  Uiso   1.00
C105   C     0.48593   0.15624   0.02095   0.00000  Uiso   1.00
C106   C     0.44250   0.16272   0.04054   0.00000  Uiso   1.00
C107   C     0.41588   0.17365   0.02042   0.00000  Uiso   1.00
C108   C     0.54102   0.14447   0.45806   0.00000  Uiso   1.00
C109   C     0.56689   0.13037   0.47697   0.00000  Uiso   1.00
C110   C     0.55456   0.13174   0.01813   0.00000  Uiso   1.00
C111   C     0.51372   0.14428   0.04070   0.00000  Uiso   1.00
C112   C     0.58298   0.12078   0.03680   0.00000  Uiso   1.00
C113   C     0.57235   0.12319   0.07815   0.00000  Uiso   1.00
C114   C     0.50308   0.14617   0.08228   0.00000  Uiso   1.00
H115   H     0.38215   0.17527   0.03644   0.00000  Uiso   1.00
H116   H     0.47374   0.15799   0.10121   0.00000  Uiso   1.00
H117   H     0.59720   0.11910   0.45928   0.00000  Uiso   1.00
H118   H     0.39937   0.19873   0.40264   0.00000  Uiso   1.00
H119   H     0.42730   0.15697   0.07094   0.00000  Uiso   1.00
H120   H     0.55177   0.14177   0.42605   0.00000  Uiso   1.00
H121   H     0.61386   0.11076   0.01905   0.00000  Uiso   1.00
C122   C     0.66079   0.17847   0.23794   0.00000  Uiso   1.00
C123   C     0.34073   0.15760   0.26117   0.00000  Uiso   1.00
H124   H     0.65152   0.13739   0.28152   0.00000  Uiso   1.00
C125   C     0.51236   0.32214   0.23956   0.00000  Uiso   1.00
H126   H     0.53971   0.00252   0.21734   0.00000  Uiso   1.00
C127   C     0.48272   0.01303   0.26376   0.00000  Uiso   1.00
N128   N     0.35734   0.20485   0.21028   0.00000  Uiso   1.00
O129   O     0.34584   0.23908   0.20406   0.00000  Uiso   1.00
O130   O     0.39463   0.19334   0.18895   0.00000  Uiso   1.00
C131   C     0.44260   0.33123   0.29595   0.00000  Uiso   1.00
C132   C     0.41386   0.03166   0.31888   0.00000  Uiso   1.00
H133   H     0.43229   0.05633   0.33431   0.00000  Uiso   1.00
H134   H     0.40115   0.04559   0.29856   0.00000  Uiso   1.00
H135   H     0.38590   0.01769   0.34151   0.00000  Uiso   1.00
H136   H     0.42210   0.30709   0.28211   0.00000  Uiso   1.00
H137   H     0.45301   0.31769   0.31804   0.00000  Uiso   1.00
N138   N     0.60271   0.11236   0.09640   0.00000  Uiso   1.00
O139   O     0.58931   0.09699   0.13026   0.00000  Uiso   1.00
O140   O     0.64379   0.11428   0.07752   0.00000  Uiso   1.00
N141   N     0.36049   0.19865   0.47928   0.00000  Uiso   1.00
O142   O     0.66437   0.18522   0.46107   0.00000  Uiso   1.00
O143   O     0.35077   0.22452   0.01129   0.00000  Uiso   1.00
N144   N     0.53867   0.20727   0.40890   0.00000  Uiso   1.00
O145   O     0.55663   0.22914   0.43467   0.00000  Uiso   1.00
O146   O     0.56023   0.20602   0.37162   0.00000  Uiso   1.00
Zn147  Zn    0.85910   0.14090   0.28278   0.00000  Uiso   1.00
Zn148  Zn    0.80125   0.12378   0.22258   0.00000  Uiso   1.00
Zn149  Zn    0.87833   0.19664   0.21188   0.00000  Uiso   1.00
Zn150  Zn    0.79465   0.20535   0.28277   0.00000  Uiso   1.00
O151   O     0.83333   0.16667   0.25000   0.00000  Uiso   1.00
O152   O     0.73656   0.18960   0.27820   0.00000  Uiso   1.00
O153   O     0.92106   0.15277   0.26768   0.00000  Uiso   1.00
O154   O     0.80467   0.06903   0.23607   0.00000  Uiso   1.00
O155   O     0.87104   0.25527   0.21805   0.00000  Uiso   1.00
O156   O     0.82360   0.12393   0.16625   0.00000  Uiso   1.00
O157   O     0.79354   0.20646   0.33749   0.00000  Uiso   1.00
O158   O     0.87755   0.17493   0.15877   0.00000  Uiso   1.00
O159   O     0.83865   0.16135   0.33749   0.00000  Uiso   1.00
O160   O     0.84515   0.08101   0.27821   0.00000  Uiso   1.00
O161   O     0.81247   0.26136   0.26767   0.00000  Uiso   1.00
O162   O     0.74119   0.13251   0.23607   0.00000  Uiso   1.00
O163   O     0.93452   0.19179   0.21806   0.00000  Uiso   1.00
C164   C     0.71903   0.15953   0.25924   0.00000  Uiso   1.00
C165   C     0.94778   0.17426   0.24145   0.00000  Uiso   1.00
C166   C     0.82340   0.05629   0.25816   0.00000  Uiso   1.00
C167   C     0.84313   0.27770   0.24162   0.00000  Uiso   1.00
C168   C     0.85496   0.14539   0.14389   0.00000  Uiso   1.00
C169   C     0.81237   0.18813   0.35620   0.00000  Uiso   1.00
C170   C     0.79852   0.19241   0.39975   0.00000  Uiso   1.00
C171   C     0.86540   0.13645   0.10085   0.00000  Uiso   1.00
C172   C     0.73829   0.19215   0.45999   0.00000  Uiso   1.00
C173   C     0.75455   0.19467   0.41924   0.00000  Uiso   1.00
C174   C     0.82725   0.18961   0.42183   0.00000  Uiso   1.00
C175   C     0.80979   0.17733   0.46064   0.00000  Uiso   1.00
C176   C     0.76552   0.18157   0.48069   0.00000  Uiso   1.00
C177   C     0.83510   0.16039   0.47974   0.00000  Uiso   1.00
C178   C     0.81926   0.15624   0.02095   0.00000  Uiso   1.00
C179   C     0.77583   0.16272   0.04054   0.00000  Uiso   1.00
C180   C     0.74921   0.17365   0.02042   0.00000  Uiso   1.00
C181   C     0.87436   0.14447   0.45806   0.00000  Uiso   1.00
C182   C     0.90023   0.13037   0.47697   0.00000  Uiso   1.00
C183   C     0.88790   0.13174   0.01813   0.00000  Uiso   1.00
C184   C     0.84705   0.14428   0.04070   0.00000  Uiso   1.00
C185   C     0.91632   0.12078   0.03680   0.00000  Uiso   1.00
C186   C     0.90569   0.12319   0.07815   0.00000  Uiso   1.00
C187   C     0.83642   0.14617   0.08228   0.00000  Uiso   1.00
H188   H     0.71549   0.17527   0.03644   0.00000  Uiso   1.00
H189   H     0.80708   0.15799   0.10121   0.00000  Uiso   1.00
H190   H     0.93053   0.11910   0.45928   0.00000  Uiso   1.00
H191   H     0.73270   0.19873   0.40264   0.00000  Uiso   1.00
H192   H     0.76064   0.15697   0.07094   0.00000  Uiso   1.00
H193   H     0.88510   0.14177   0.42605   0.00000  Uiso   1.00
H194   H     0.94720   0.11076   0.01905   0.00000  Uiso   1.00
C195   C     0.99412   0.17847   0.23794   0.00000  Uiso   1.00
C196   C     0.67406   0.15760   0.26117   0.00000  Uiso   1.00
H197   H     0.98485   0.13739   0.28152   0.00000  Uiso   1.00
C198   C     0.84570   0.32214   0.23956   0.00000  Uiso   1.00
H199   H     0.87305   0.00252   0.21734   0.00000  Uiso   1.00
C200   C     0.81605   0.01303   0.26376   0.00000  Uiso   1.00
N201   N     0.69067   0.20485   0.21028   0.00000  Uiso   1.00
O202   O     0.67917   0.23908   0.20406   0.00000  Uiso   1.00
O203   O     0.72796   0.19334   0.18895   0.00000  Uiso   1.00
C204   C     0.77593   0.33123   0.29595   0.00000  Uiso   1.00
C205   C     0.74719   0.03166   0.31888   0.00000  Uiso   1.00
H206   H     0.76562   0.05633   0.33431   0.00000  Uiso   1.00
H207   H     0.73448   0.04559   0.29856   0.00000  Uiso   1.00
H208   H     0.71924   0.01769   0.34151   0.00000  Uiso   1.00
H209   H     0.75543   0.30709   0.28211   0.00000  Uiso   1.00
H210   H     0.78634   0.31769   0.31804   0.00000  Uiso   1.00
N211   N     0.93605   0.11236   0.09640   0.00000  Uiso   1.00
O212   O     0.92265   0.09699   0.13026   0.00000  Uiso   1.00
O213   O     0.97712   0.11428   0.07752   0.00000  Uiso   1.00
N214   N     0.69383   0.19865   0.47928   0.00000  Uiso   1.00
O215   O     0.99771   0.18522   0.46107   0.00000  Uiso   1.00
O216   O     0.68411   0.22452   0.01129   0.00000  Uiso   1.00
N217   N     0.87201   0.20727   0.40890   0.00000  Uiso   1.00
O218   O     0.88996   0.22914   0.43467   0.00000  Uiso   1.00
O219   O     0.89356   0.20602   0.37162   0.00000  Uiso   1.00
Zn220  Zn    0.19244   0.47423   0.28278   0.00000  Uiso   1.00
Zn221  Zn    0.13459   0.45711   0.22258   0.00000  Uiso   1.00
Zn222  Zn    0.21166   0.52997   0.21188   0.00000  Uiso   1.00
Zn223  Zn    0.12798   0.53868   0.28277   0.00000  Uiso   1.00
O224   O     0.16667   0.50000   0.25000   0.00000  Uiso   1.00
O225   O     0.06990   0.52293   0.27820   0.00000  Uiso   1.00
O226   O     0.25440   0.48610   0.26768   0.00000  Uiso   1.00
O227   O     0.13800   0.40236   0.23607   0.00000  Uiso   1.00
O228   O     0.20437   0.58860   0.21805   0.00000  Uiso   1.00
O229   O     0.15693   0.45726   0.16625   0.00000  Uiso   1.00
O230   O     0.12687   0.53979   0.33749   0.00000  Uiso   1.00
O231   O     0.21088   0.50826   0.15877   0.00000  Uiso   1.00
O232   O     0.17198   0.49468   0.33749   0.00000  Uiso   1.00
O233   O     0.17849   0.41434   0.27821   0.00000  Uiso   1.00
O234   O     0.14581   0.59469   0.26767   0.00000  Uiso   1.00
O235   O     0.07452   0.46584   0.23607   0.00000  Uiso   1.00
O236   O     0.26785   0.52512   0.21806   0.00000  Uiso   1.00
C237   C     0.05237   0.49286   0.25924   0.00000  Uiso   1.00
C238   C     0.28111   0.50759   0.24145   0.00000  Uiso   1.00
C239   C     0.15674   0.38962   0.25816   0.00000  Uiso   1.00
C240   C     0.17646   0.61103   0.24162   0.00000  Uiso   1.00
C241   C     0.18829   0.47872   0.14389   0.00000  Uiso   1.00
C242   C     0.14570   0.52146   0.35620   0.00000  Uiso   1.00
C243   C     0.13185   0.52574   0.39975   0.00000  Uiso   1.00
C244   C     0.19874   0.46978   0.10085   0.00000  Uiso   1.00
C245   C     0.07162   0.52548   0.45999   0.00000  Uiso   1.00
C246   C     0.08789   0.52801   0.41924   0.00000  Uiso   1.00
C247   C     0.16058   0.52294   0.42183   0.00000  Uiso   1.00
C248   C     0.14312   0.51067   0.46064   0.00000  Uiso   1.00
C249   C     0.09885   0.51490   0.48069   0.00000  Uiso   1.00
C250   C     0.16843   0.49372   0.47974   0.00000  Uiso   1.00
C251   C     0.15259   0.48957   0.02095   0.00000  Uiso   1.00
C252   C     0.10917   0.49605   0.04054   0.00000  Uiso   1.00
C253   C     0.08254   0.50699   0.02042   0.00000  Uiso   1.00
C254   C     0.20769   0.47781   0.45806   0.00000  Uiso   1.00
C255   C     0.23356   0.46370   0.47697   0.00000  Uiso   1.00
C256   C     0.22123   0.46507   0.01813   0.00000  Uiso   1.00
C257   C     0.18039   0.47762   0.04070   0.00000  Uiso   1.00
C258   C     0.24965   0.45412   0.03680   0.00000  Uiso   1.00
C259   C     0.23902   0.45652   0.07815   0.00000  Uiso   1.00
C260   C     0.16975   0.47951   0.08228   0.00000  Uiso   1.00
H261   H     0.04882   0.50861   0.03644   0.00000  Uiso   1.00
H262   H     0.14041   0.49132   0.10121   0.00000  Uiso   1.00
H263   H     0.26386   0.45243   0.45928   0.00000  Uiso   1.00
H264   H     0.06603   0.53206   0.40264   0.00000  Uiso   1.00
H265   H     0.09397   0.49031   0.07094   0.00000  Uiso   1.00
H266   H     0.21843   0.47511   0.42605   0.00000  Uiso   1.00
H267   H     0.28053   0.44410   0.01905   0.00000  Uiso   1.00
C268   C     0.32745   0.51180   0.23794   0.00000  Uiso   1.00
C269   C     0.00739   0.49093   0.26117   0.00000  Uiso   1.00
H270   H     0.31818   0.47072   0.28152   0.00000  Uiso   1.00
C271   C     0.17903   0.65547   0.23956   0.00000  Uiso   1.00
H272   H     0.20638   0.33585   0.21734   0.00000  Uiso   1.00
C273   C     0.14939   0.34636   0.26376   0.00000  Uiso   1.00
N274   N     0.02401   0.53818   0.21028   0.00000  Uiso   1.00
O275   O     0.01250   0.57242   0.20406   0.00000  Uiso   1.00
O276   O     0.06130   0.52667   0.18895   0.00000  Uiso   1.00
C277   C     0.10927   0.66456   0.29595   0.00000  Uiso   1.00
C278   C     0.08053   0.36500   0.31888   0.00000  Uiso   1.00
H279   H     0.09896   0.38966   0.33431   0.00000  Uiso   1.00
H280   H     0.06781   0.37892   0.29856   0.00000  Uiso   1.00
H281   H     0.05257   0.35102   0.34151   0.00000  Uiso   1.00
H282   H     0.08876   0.64043   0.28211   0.00000  Uiso   1.00
H283   H     0.11968   0.65102   0.31804   0.00000  Uiso   1.00
N284   N     0.26938   0.44569   0.09640   0.00000  Uiso   1.00
O285   O     0.25598   0.43032   0.13026   0.00000  Uiso   1.00
O286   O     0.31045   0.44761   0.07752   0.00000  Uiso   1.00
N287   N     0.02716   0.53199   0.47928   0.00000  Uiso   1.00
O288   O     0.33104   0.51855   0.46107   0.00000  Uiso   1.00
O289   O     0.01744   0.55785   0.01129   0.00000  Uiso   1.00
N290   N     0.20534   0.54060   0.40890   0.00000  Uiso   1.00
O291   O     0.22330   0.56247   0.43467   0.00000  Uiso   1.00
O292   O     0.22690   0.53935   0.37162   0.00000  Uiso   1.00
Zn293  Zn    0.52577   0.47423   0.28278   0.00000  Uiso   1.00
Zn294  Zn    0.46792   0.45711   0.22258   0.00000  Uiso   1.00
Zn295  Zn    0.54500   0.52997   0.21188   0.00000  Uiso   1.00
Zn296  Zn    0.46131   0.53868   0.28277   0.00000  Uiso   1.00
O297   O     0.50000   0.50000   0.25000   0.00000  Uiso   1.00
O298   O     0.40323   0.52293   0.27820   0.00000  Uiso   1.00
O299   O     0.58773   0.48610   0.26768   0.00000  Uiso   1.00
O300   O     0.47133   0.40236   0.23607   0.00000  Uiso   1.00
O301   O     0.53771   0.58860   0.21805   0.00000  Uiso   1.00
O302   O     0.49027   0.45726   0.16625   0.00000  Uiso   1.00
O303   O     0.46020   0.53979   0.33749   0.00000  Uiso   1.00
O304   O     0.54421   0.50826   0.15877   0.00000  Uiso   1.00
O305   O     0.50532   0.49468   0.33749   0.00000  Uiso   1.00
O306   O     0.51182   0.41434   0.27821   0.00000  Uiso   1.00
O307   O     0.47914   0.59469   0.26767   0.00000  Uiso   1.00
O308   O     0.40785   0.46584   0.23607   0.00000  Uiso   1.00
O309   O     0.60119   0.52512   0.21806   0.00000  Uiso   1.00
C310   C     0.38570   0.49286   0.25924   0.00000  Uiso   1.00
C311   C     0.61445   0.50759   0.24145   0.00000  Uiso   1.00
C312   C     0.49007   0.38962   0.25816   0.00000  Uiso   1.00
C313   C     0.50979   0.61103   0.24162   0.00000  Uiso   1.00
C314   C     0.52162   0.47872   0.14389   0.00000  Uiso   1.00
C315   C     0.47904   0.52146   0.35620   0.00000  Uiso   1.00
C316   C     0.46519   0.52574   0.39975   0.00000  Uiso   1.00
C317   C     0.53207   0.46978   0.10085   0.00000  Uiso   1.00
C318   C     0.40496   0.52548   0.45999   0.00000  Uiso   1.00
C319   C     0.42122   0.52801   0.41924   0.00000  Uiso   1.00
C320   C     0.49391   0.52294   0.42183   0.00000  Uiso   1.00
C321   C     0.47645   0.51067   0.46064   0.00000  Uiso   1.00
C322   C     0.43218   0.51490   0.48069   0.00000  Uiso   1.00
C323   C     0.50177   0.49372   0.47974   0.00000  Uiso   1.00
C324   C     0.48593   0.48957   0.02095   0.00000  Uiso   1.00
C325   C     0.44250   0.49605   0.04054   0.00000  Uiso   1.00
C326   C     0.41588   0.50699   0.02042   0.00000  Uiso   1.00
C327   C     0.54102   0.47781   0.45806   0.00000  Uiso   1.00
C328   C     0.56689   0.46370   0.47697   0.00000  Uiso   1.00
C329   C     0.55456   0.46507   0.01813   0.00000  Uiso   1.00
C330   C     0.51372   0.47762   0.04070   0.00000  Uiso   1.00
C331   C     0.58298   0.45412   0.03680   0.00000  Uiso   1.00
C332   C     0.57235   0.45652   0.07815   0.00000  Uiso   1.00
C333   C     0.50308   0.47951   0.08228   0.00000  Uiso   1.00
H334   H     0.38215   0.50861   0.03644   0.00000  Uiso   1.00
H335   H     0.47374   0.49132   0.10121   0.00000  Uiso   1.00
H336   H     0.59720   0.45243   0.45928   0.00000  Uiso   1.00
H337   H     0.39937   0.53206   0.40264   0.00000  Uiso   1.00
H338   H     0.42730   0.49031   0.07094   0.00000  Uiso   1.00
H339   H     0.55177   0.47511   0.42605   0.00000  Uiso   1.00
H340   H     0.61386   0.44410   0.01905   0.00000  Uiso   1.00
C341   C     0.66079   0.51180   0.23794   0.00000  Uiso   1.00
C342   C     0.34073   0.49093   0.26117   0.00000  Uiso   1.00
H343   H     0.65152   0.47072   0.28152   0.00000  Uiso   1.00
C344   C     0.51236   0.65547   0.23956   0.00000  Uiso   1.00
H345   H     0.53971   0.33585   0.21734   0.00000  Uiso   1.00
C346   C     0.48272   0.34636   0.26376   0.00000  Uiso   1.00
N347   N     0.35734   0.53818   0.21028   0.00000  Uiso   1.00
O348   O     0.34584   0.57242   0.20406   0.00000  Uiso   1.00
O349   O     0.39463   0.52667   0.18895   0.00000  Uiso   1.00
C350   C     0.44260   0.66456   0.29595   0.00000  Uiso   1.00
C351   C     0.41386   0.36500   0.31888   0.00000  Uiso   1.00
H352   H     0.43229   0.38966   0.33431   0.00000  Uiso   1.00
H353   H     0.40115   0.37892   0.29856   0.00000  Uiso   1.00
H354   H     0.38590   0.35102   0.34151   0.00000  Uiso   1.00
H355   H     0.42210   0.64043   0.28211   0.00000  Uiso   1.00
H356   H     0.45301   0.65102   0.31804   0.00000  Uiso   1.00
N357   N     0.60271   0.44569   0.09640   0.00000  Uiso   1.00
O358   O     0.58931   0.43032   0.13026   0.00000  Uiso   1.00
O359   O     0.64379   0.44761   0.07752   0.00000  Uiso   1.00
N360   N     0.36049   0.53199   0.47928   0.00000  Uiso   1.00
O361   O     0.66437   0.51855   0.46107   0.00000  Uiso   1.00
O362   O     0.35077   0.55785   0.01129   0.00000  Uiso   1.00
N363   N     0.53867   0.54060   0.40890   0.00000  Uiso   1.00
O364   O     0.55663   0.56247   0.43467   0.00000  Uiso   1.00
O365   O     0.56023   0.53935   0.37162   0.00000  Uiso   1.00
Zn366  Zn    0.85910   0.47423   0.28278   0.00000  Uiso   1.00
Zn367  Zn    0.80125   0.45711   0.22258   0.00000  Uiso   1.00
Zn368  Zn    0.87833   0.52997   0.21188   0.00000  Uiso   1.00
Zn369  Zn    0.79465   0.53868   0.28277   0.00000  Uiso   1.00
O370   O     0.83333   0.50000   0.25000   0.00000  Uiso   1.00
O371   O     0.73656   0.52293   0.27820   0.00000  Uiso   1.00
O372   O     0.92106   0.48610   0.26768   0.00000  Uiso   1.00
O373   O     0.80467   0.40236   0.23607   0.00000  Uiso   1.00
O374   O     0.87104   0.58860   0.21805   0.00000  Uiso   1.00
O375   O     0.82360   0.45726   0.16625   0.00000  Uiso   1.00
O376   O     0.79354   0.53979   0.33749   0.00000  Uiso   1.00
O377   O     0.87755   0.50826   0.15877   0.00000  Uiso   1.00
O378   O     0.83865   0.49468   0.33749   0.00000  Uiso   1.00
O379   O     0.84515   0.41434   0.27821   0.00000  Uiso   1.00
O380   O     0.81247   0.59469   0.26767   0.00000  Uiso   1.00
O381   O     0.74119   0.46584   0.23607   0.00000  Uiso   1.00
O382   O     0.93452   0.52512   0.21806   0.00000  Uiso   1.00
C383   C     0.71903   0.49286   0.25924   0.00000  Uiso   1.00
C384   C     0.94778   0.50759   0.24145   0.00000  Uiso   1.00
C385   C     0.82340   0.38962   0.25816   0.00000  Uiso   1.00
C386   C     0.84313   0.61103   0.24162   0.00000  Uiso   1.00
C387   C     0.85496   0.47872   0.14389   0.00000  Uiso   1.00
C388   C     0.81237   0.52146   0.35620   0.00000  Uiso   1.00
C389   C     0.79852   0.52574   0.39975   0.00000  Uiso   1.00
C390   C     0.86540   0.46978   0.10085   0.00000  Uiso   1.00
C391   C     0.73829   0.52548   0.45999   0.00000  Uiso   1.00
C392   C     0.75455   0.52801   0.41924   0.00000  Uiso   1.00
C393   C     0.82725   0.52294   0.42183   0.00000  Uiso   1.00
C394   C     0.80979   0.51067   0.46064   0.00000  Uiso   1.00
C395   C     0.76552   0.51490   0.48069   0.00000  Uiso   1.00
C396   C     0.83510   0.49372   0.47974   0.00000  Uiso   1.00
C397   C     0.81926   0.48957   0.02095   0.00000  Uiso   1.00
C398   C     0.77583   0.49605   0.04054   0.00000  Uiso   1.00
C399   C     0.74921   0.50699   0.02042   0.00000  Uiso   1.00
C400   C     0.87436   0.47781   0.45806   0.00000  Uiso   1.00
C401   C     0.90023   0.46370   0.47697   0.00000  Uiso   1.00
C402   C     0.88790   0.46507   0.01813   0.00000  Uiso   1.00
C403   C     0.84705   0.47762   0.04070   0.00000  Uiso   1.00
C404   C     0.91632   0.45412   0.03680   0.00000  Uiso   1.00
C405   C     0.90569   0.45652   0.07815   0.00000  Uiso   1.00
C406   C     0.83642   0.47951   0.08228   0.00000  Uiso   1.00
H407   H     0.71549   0.50861   0.03644   0.00000  Uiso   1.00
H408   H     0.80708   0.49132   0.10121   0.00000  Uiso   1.00
H409   H     0.93053   0.45243   0.45928   0.00000  Uiso   1.00
H410   H     0.73270   0.53206   0.40264   0.00000  Uiso   1.00
H411   H     0.76064   0.49031   0.07094   0.00000  Uiso   1.00
H412   H     0.88510   0.47511   0.42605   0.00000  Uiso   1.00
H413   H     0.94720   0.44410   0.01905   0.00000  Uiso   1.00
C414   C     0.99412   0.51180   0.23794   0.00000  Uiso   1.00
C415   C     0.67406   0.49093   0.26117   0.00000  Uiso   1.00
H416   H     0.98485   0.47072   0.28152   0.00000  Uiso   1.00
C417   C     0.84570   0.65547   0.23956   0.00000  Uiso   1.00
H418   H     0.87305   0.33585   0.21734   0.00000  Uiso   1.00
C419   C     0.81605   0.34636   0.26376   0.00000  Uiso   1.00
N420   N     0.69067   0.53818   0.21028   0.00000  Uiso   1.00
O421   O     0.67917   0.57242   0.20406   0.00000  Uiso   1.00
O422   O     0.72796   0.52667   0.18895   0.00000  Uiso   1.00
C423   C     0.77593   0.66456   0.29595   0.00000  Uiso   1.00
C424   C     0.74719   0.36500   0.31888   0.00000  Uiso   1.00
H425   H     0.76562   0.38966   0.33431   0.00000  Uiso   1.00
H426   H     0.73448   0.37892   0.29856   0.00000  Uiso   1.00
H427   H     0.71924   0.35102   0.34151   0.00000  Uiso   1.00
H428   H     0.75543   0.64043   0.28211   0.00000  Uiso   1.00
H429   H     0.78634   0.65102   0.31804   0.00000  Uiso   1.00
N430   N     0.93605   0.44569   0.09640   0.00000  Uiso   1.00
O431   O     0.92265   0.43032   0.13026   0.00000  Uiso   1.00
O432   O     0.97712   0.44761   0.07752   0.00000  Uiso   1.00
N433   N     0.69383   0.53199   0.47928   0.00000  Uiso   1.00
O434   O     0.99771   0.51855   0.46107   0.00000  Uiso   1.00
O435   O     0.68411   0.55785   0.01129   0.00000  Uiso   1.00
N436   N     0.87201   0.54060   0.40890   0.00000  Uiso   1.00
O437   O     0.88996   0.56247   0.43467   0.00000  Uiso   1.00
O438   O     0.89356   0.53935   0.37162   0.00000  Uiso   1.00
Zn439  Zn    0.19244   0.80756   0.28278   0.00000  Uiso   1.00
Zn440  Zn    0.13459   0.79044   0.22258   0.00000  Uiso   1.00
Zn441  Zn    0.21166   0.86331   0.21188   0.00000  Uiso   1.00
Zn442  Zn    0.12798   0.87202   0.28277   0.00000  Uiso   1.00
O443   O     0.16667   0.83333   0.25000   0.00000  Uiso   1.00
O444   O     0.06990   0.85627   0.27820   0.00000  Uiso   1.00
O445   O     0.25440   0.81944   0.26768   0.00000  Uiso   1.00
O446   O     0.13800   0.73570   0.23607   0.00000  Uiso   1.00
O447   O     0.20437   0.92193   0.21805   0.00000  Uiso   1.00
O448   O     0.15693   0.79060   0.16625   0.00000  Uiso   1.00
O449   O     0.12687   0.87313   0.33749   0.00000  Uiso   1.00
O450   O     0.21088   0.84159   0.15877   0.00000  Uiso   1.00
O451   O     0.17198   0.82802   0.33749   0.00000  Uiso   1.00
O452   O     0.17849   0.74768   0.27821   0.00000  Uiso   1.00
O453   O     0.14581   0.92803   0.26767   0.00000  Uiso   1.00
O454   O     0.07452   0.79917   0.23607   0.00000  Uiso   1.00
O455   O     0.26785   0.85845   0.21806   0.00000  Uiso   1.00
C456   C     0.05237   0.82619   0.25924   0.00000  Uiso   1.00
C457   C     0.28111   0.84092   0.24145   0.00000  Uiso   1.00
C458   C     0.15674   0.72296   0.25816   0.00000  Uiso   1.00
C459   C     0.17646   0.94437   0.24162   0.00000  Uiso   1.00
C460   C     0.18829   0.81205   0.14389   0.00000  Uiso   1.00
C461   C     0.14570   0.85479   0.35620   0.00000  Uiso   1.00
C462   C     0.13185   0.85908   0.39975   0.00000  Uiso   1.00
C463   C     0.19874   0.80312   0.10085   0.00000  Uiso   1.00
C464   C     0.07162   0.85881   0.45999   0.00000  Uiso   1.00
C465   C     0.08789   0.86134   0.41924   0.00000  Uiso   1.00
C466   C     0.16058   0.85627   0.42183   0.00000  Uiso   1.00
C467   C     0.14312   0.84400   0.46064   0.00000  Uiso   1.00
C468   C     0.09885   0.84823   0.48069   0.00000  Uiso   1.00
C469   C     0.16843   0.82705   0.47974   0.00000  Uiso   1.00
C470   C     0.15259   0.82290   0.02095   0.00000  Uiso   1.00
C471   C     0.10917   0.82939   0.04054   0.00000  Uiso   1.00
C472   C     0.08254   0.84032   0.02042   0.00000  Uiso   1.00
C473   C     0.20769   0.81114   0.45806   0.00000  Uiso   1.00
C474   C     0.23356   0.79703   0.47697   0.00000  Uiso   1.00
C475   C     0.22123   0.79841   0.01813   0.00000  Uiso   1.00
C476   C     0.18039   0.81095   0.04070   0.00000  Uiso   1.00
C477   C     0.24965   0.78745   0.03680   0.00000  Uiso   1.00
C478   C     0.23902   0.78986   0.07815   0.00000  Uiso   1.00
C479   C     0.16975   0.81284   0.08228   0.00000  Uiso   1.00
H480   H     0.04882   0.84194   0.03644   0.00000  Uiso   1.00
H481   H     0.14041   0.82465   0.10121   0.00000  Uiso   1.00
H482   H     0.26386   0.78577   0.45928   0.00000  Uiso   1.00
H483   H     0.06603   0.86539   0.40264   0.00000  Uiso   1.00
H484   H     0.09397   0.82364   0.07094   0.00000  Uiso   1.00
H485   H     0.21843   0.80844   0.42605   0.00000  Uiso   1.00
H486   H     0.28053   0.77743   0.01905   0.00000  Uiso   1.00
C487   C     0.32745   0.84514   0.23794   0.00000  Uiso   1.00
C488   C     0.00739   0.82426   0.26117   0.00000  Uiso   1.00
H489   H     0.31818   0.80406   0.28152   0.00000  Uiso   1.00
C490   C     0.17903   0.98881   0.23956   0.00000  Uiso   1.00
H491   H     0.20638   0.66919   0.21734   0.00000  Uiso   1.00
C492   C     0.14939   0.67969   0.26376   0.00000  Uiso   1.00
N493   N     0.02401   0.87152   0.21028   0.00000  Uiso   1.00
O494   O     0.01250   0.90575   0.20406   0.00000  Uiso   1.00
O495   O     0.06130   0.86000   0.18895   0.00000  Uiso   1.00
C496   C     0.10927   0.99790   0.29595   0.00000  Uiso   1.00
C497   C     0.08053   0.69833   0.31888   0.00000  Uiso   1.00
H498   H     0.09896   0.72299   0.33431   0.00000  Uiso   1.00
H499   H     0.06781   0.71225   0.29856   0.00000  Uiso   1.00
H500   H     0.05257   0.68436   0.34151   0.00000  Uiso   1.00
H501   H     0.08876   0.97376   0.28211   0.00000  Uiso   1.00
H502   H     0.11968   0.98435   0.31804   0.00000  Uiso   1.00
N503   N     0.26938   0.77903   0.09640   0.00000  Uiso   1.00
O504   O     0.25598   0.76365   0.13026   0.00000  Uiso   1.00
O505   O     0.31045   0.78095   0.07752   0.00000  Uiso   1.00
N506   N     0.02716   0.86532   0.47928   0.00000  Uiso   1.00
O507   O     0.33104   0.85188   0.46107   0.00000  Uiso   1.00
O508   O     0.01744   0.89118   0.01129   0.00000  Uiso   1.00
N509   N     0.20534   0.87394   0.40890   0.00000  Uiso   1.00
O510   O     0.22330   0.89580   0.43467   0.00000  Uiso   1.00
O511   O     0.22690   0.87268   0.37162   0.00000  Uiso   1.00
Zn512  Zn    0.52577   0.80756   0.28278   0.00000  Uiso   1.00
Zn513  Zn    0.46792   0.79044   0.22258   0.00000  Uiso   1.00
Zn514  Zn    0.54500   0.86331   0.21188   0.00000  Uiso   1.00
Zn515  Zn    0.46131   0.87202   0.28277   0.00000  Uiso   1.00
O516   O     0.50000   0.83333   0.25000   0.00000  Uiso   1.00
O517   O     0.40323   0.85627   0.27820   0.00000  Uiso   1.00
O518   O     0.58773   0.81944   0.26768   0.00000  Uiso   1.00
O519   O     0.47133   0.73570   0.23607   0.00000  Uiso   1.00
O520   O     0.53771   0.92193   0.21805   0.00000  Uiso   1.00
O521   O     0.49027   0.79060   0.16625   0.00000  Uiso   1.00
O522   O     0.46020   0.87313   0.33749   0.00000  Uiso   1.00
O523   O     0.54421   0.84159   0.15877   0.00000  Uiso   1.00
O524   O     0.50532   0.82802   0.33749   0.00000  Uiso   1.00
O525   O     0.51182   0.74768   0.27821   0.00000  Uiso   1.00
O526   O     0.47914   0.92803   0.26767   0.00000  Uiso   1.00
O527   O     0.40785   0.79917   0.23607   0.00000  Uiso   1.00
O528   O     0.60119   0.85845   0.21806   0.00000  Uiso   1.00
C529   C     0.38570   0.82619   0.25924   0.00000  Uiso   1.00
C530   C     0.61445   0.84092   0.24145   0.00000  Uiso   1.00
C531   C     0.49007   0.72296   0.25816   0.00000  Uiso   1.00
C532   C     0.50979   0.94437   0.24162   0.00000  Uiso   1.00
C533   C     0.52162   0.81205   0.14389   0.00000  Uiso   1.00
C534   C     0.47904   0.85479   0.35620   0.00000  Uiso   1.00
C535   C     0.46519   0.85908   0.39975   0.00000  Uiso   1.00
C536   C     0.53207   0.80312   0.10085   0.00000  Uiso   1.00
C537   C     0.40496   0.85881   0.45999   0.00000  Uiso   1.00
C538   C     0.42122   0.86134   0.41924   0.00000  Uiso   1.00
C539   C     0.49391   0.85627   0.42183   0.00000  Uiso   1.00
C540   C     0.47645   0.84400   0.46064   0.00000  Uiso   1.00
C541   C     0.43218   0.84823   0.48069   0.00000  Uiso   1.00
C542   C     0.50177   0.82705   0.47974   0.00000  Uiso   1.00
C543   C     0.48593   0.82290   0.02095   0.00000  Uiso   1.00
C544   C     0.44250   0.82939   0.04054   0.00000  Uiso   1.00
C545   C     0.41588   0.84032   0.02042   0.00000  Uiso   1.00
C546   C     0.54102   0.81114   0.45806   0.00000  Uiso   1.00
C547   C     0.56689   0.79703   0.47697   0.00000  Uiso   1.00
C548   C     0.55456   0.79841   0.01813   0.00000  Uiso   1.00
C549   C     0.51372   0.81095   0.04070   0.00000  Uiso   1.00
C550   C     0.58298   0.78745   0.03680   0.00000  Uiso   1.00
C551   C     0.57235   0.78986   0.07815   0.00000  Uiso   1.00
C552   C     0.50308   0.81284   0.08228   0.00000  Uiso   1.00
H553   H     0.38215   0.84194   0.03644   0.00000  Uiso   1.00
H554   H     0.47374   0.82465   0.10121   0.00000  Uiso   1.00
H555   H     0.59720   0.78577   0.45928   0.00000  Uiso   1.00
H556   H     0.39937   0.86539   0.40264   0.00000  Uiso   1.00
H557   H     0.42730   0.82364   0.07094   0.00000  Uiso   1.00
H558   H     0.55177   0.80844   0.42605   0.00000  Uiso   1.00
H559   H     0.61386   0.77743   0.01905   0.00000  Uiso   1.00
C560   C     0.66079   0.84514   0.23794   0.00000  Uiso   1.00
C561   C     0.34073   0.82426   0.26117   0.00000  Uiso   1.00
H562   H     0.65152   0.80406   0.28152   0.00000  Uiso   1.00
C563   C     0.51236   0.98881   0.23956   0.00000  Uiso   1.00
H564   H     0.53971   0.66919   0.21734   0.00000  Uiso   1.00
C565   C     0.48272   0.67969   0.26376   0.00000  Uiso   1.00
N566   N     0.35734   0.87152   0.21028   0.00000  Uiso   1.00
O567   O     0.34584   0.90575   0.20406   0.00000  Uiso   1.00
O568   O     0.39463   0.86000   0.18895   0.00000  Uiso   1.00
C569   C     0.44260   0.99790   0.29595   0.00000  Uiso   1.00
C570   C     0.41386   0.69833   0.31888   0.00000  Uiso   1.00
H571   H     0.43229   0.72299   0.33431   0.00000  Uiso   1.00
H572   H     0.40115   0.71225   0.29856   0.00000  Uiso   1.00
H573   H     0.38590   0.68436   0.34151   0.00000  Uiso   1.00
H574   H     0.42210   0.97376   0.28211   0.00000  Uiso   1.00
H575   H     0.45301   0.98435   0.31804   0.00000  Uiso   1.00
N576   N     0.60271   0.77903   0.09640   0.00000  Uiso   1.00
O577   O     0.58931   0.76365   0.13026   0.00000  Uiso   1.00
O578   O     0.64379   0.78095   0.07752   0.00000  Uiso   1.00
N579   N     0.36049   0.86532   0.47928   0.00000  Uiso   1.00
O580   O     0.66437   0.85188   0.46107   0.00000  Uiso   1.00
O581   O     0.35077   0.89118   0.01129   0.00000  Uiso   1.00
N582   N     0.53867   0.87394   0.40890   0.00000  Uiso   1.00
O583   O     0.55663   0.89580   0.43467   0.00000  Uiso   1.00
O584   O     0.56023   0.87268   0.37162   0.00000  Uiso   1.00
Zn585  Zn    0.85910   0.80756   0.28278   0.00000  Uiso   1.00
Zn586  Zn    0.80125   0.79044   0.22258   0.00000  Uiso   1.00
Zn587  Zn    0.87833   0.86331   0.21188   0.00000  Uiso   1.00
Zn588  Zn    0.79465   0.87202   0.28277   0.00000  Uiso   1.00
O589   O     0.83333   0.83333   0.25000   0.00000  Uiso   1.00
O590   O     0.73656   0.85627   0.27820   0.00000  Uiso   1.00
O591   O     0.92106   0.81944   0.26768   0.00000  Uiso   1.00
O592   O     0.80467   0.73570   0.23607   0.00000  Uiso   1.00
O593   O     0.87104   0.92193   0.21805   0.00000  Uiso   1.00
O594   O     0.82360   0.79060   0.16625   0.00000  Uiso   1.00
O595   O     0.79354   0.87313   0.33749   0.00000  Uiso   1.00
O596   O     0.87755   0.84159   0.15877   0.00000  Uiso   1.00
O597   O     0.83865   0.82802   0.33749   0.00000  Uiso   1.00
O598   O     0.84515   0.74768   0.27821   0.00000  Uiso   1.00
O599   O     0.81247   0.92803   0.26767   0.00000  Uiso   1.00
O600   O     0.74119   0.79917   0.23607   0.00000  Uiso   1.00
O601   O     0.93452   0.85845   0.21806   0.00000  Uiso   1.00
C602   C     0.71903   0.82619   0.25924   0.00000  Uiso   1.00
C603   C     0.94778   0.84092   0.24145   0.00000  Uiso   1.00
C604   C     0.82340   0.72296   0.25816   0.00000  Uiso   1.00
C605   C     0.84313   0.94437   0.24162   0.00000  Uiso   1.00
C606   C     0.85496   0.81205   0.14389   0.00000  Uiso   1.00
C607   C     0.81237   0.85479   0.35620   0.00000  Uiso   1.00
C608   C     0.79852   0.85908   0.39975   0.00000  Uiso   1.00
C609   C     0.86540   0.80312   0.10085   0.00000  Uiso   1.00
C610   C     0.73829   0.85881   0.45999   0.00000  Uiso   1.00
C611   C     0.75455   0.86134   0.41924   0.00000  Uiso   1.00
C612   C     0.82725   0.85627   0.42183   0.00000  Uiso   1.00
C613   C     0.80979   0.84400   0.46064   0.00000  Uiso   1.00
C614   C     0.76552   0.84823   0.48069   0.00000  Uiso   1.00
C615   C     0.83510   0.82705   0.47974   0.00000  Uiso   1.00
C616   C     0.81926   0.82290   0.02095   0.00000  Uiso   1.00
C617   C     0.77583   0.82939   0.04054   0.00000  Uiso   1.00
C618   C     0.74921   0.84032   0.02042   0.00000  Uiso   1.00
C619   C     0.87436   0.81114   0.45806   0.00000  Uiso   1.00
C620   C     0.90023   0.79703   0.47697   0.00000  Uiso   1.00
C621   C     0.88790   0.79841   0.01813   0.00000  Uiso   1.00
C622   C     0.84705   0.81095   0.04070   0.00000  Uiso   1.00
C623   C     0.91632   0.78745   0.03680   0.00000  Uiso   1.00
C624   C     0.90569   0.78986   0.07815   0.00000  Uiso   1.00
C625   C     0.83642   0.81284   0.08228   0.00000  Uiso   1.00
H626   H     0.71549   0.84194   0.03644   0.00000  Uiso   1.00
H627   H     0.80708   0.82465   0.10121   0.00000  Uiso   1.00
H628   H     0.93053   0.78577   0.45928   0.00000  Uiso   1.00
H629   H     0.73270   0.86539   0.40264   0.00000  Uiso   1.00
H630   H     0.76064   0.82364   0.07094   0.00000  Uiso   1.00
H631   H     0.88510   0.80844   0.42605   0.00000  Uiso   1.00
H632   H     0.94720   0.77743   0.01905   0.00000  Uiso   1.00
C633   C     0.99412   0.84514   0.23794   0.00000  Uiso   1.00
C634   C     0.67406   0.82426   0.26117   0.00000  Uiso   1.00
H635   H     0.98485   0.80406   0.28152   0.00000  Uiso   1.00
C636   C     0.84570   0.98881   0.23956   0.00000  Uiso   1.00
H637   H     0.87305   0.66919   0.21734   0.00000  Uiso   1.00
C638   C     0.81605   0.67969   0.26376   0.00000  Uiso   1.00
N639   N     0.69067   0.87152   0.21028   0.00000  Uiso   1.00
O640   O     0.67917   0.90575   0.20406   0.00000  Uiso   1.00
O641   O     0.72796   0.86000   0.18895   0.00000  Uiso   1.00
C642   C     0.77593   0.99790   0.29595   0.00000  Uiso   1.00
C643   C     0.74719   0.69833   0.31888   0.00000  Uiso   1.00
H644   H     0.76562   0.72299   0.33431   0.00000  Uiso   1.00
H645   H     0.73448   0.71225   0.29856   0.00000  Uiso   1.00
H646   H     0.71924   0.68436   0.34151   0.00000  Uiso   1.00
H647   H     0.75543   0.97376   0.28211   0.00000  Uiso   1.00
H648   H     0.78634   0.98435   0.31804   0.00000  Uiso   1.00
N649   N     0.93605   0.77903   0.09640   0.00000  Uiso   1.00
O650   O     0.92265   0.76365   0.13026   0.00000  Uiso   1.00
O651   O     0.97712   0.78095   0.07752   0.00000  Uiso   1.00
N652   N     0.69383   0.86532   0.47928   0.00000  Uiso   1.00
O653   O     0.99771   0.85188   0.46107   0.00000  Uiso   1.00
O654   O     0.68411   0.89118   0.01129   0.00000  Uiso   1.00
N655   N     0.87201   0.87394   0.40890   0.00000  Uiso   1.00
O656   O     0.88996   0.89580   0.43467   0.00000  Uiso   1.00
O657   O     0.89356   0.87268   0.37162   0.00000  Uiso   1.00
Zn658  Zn    0.19244   0.14090   0.78278   0.00000  Uiso   1.00
Zn659  Zn    0.13459   0.12378   0.72258   0.00000  Uiso   1.00
Zn660  Zn    0.21166   0.19664   0.71188   0.00000  Uiso   1.00
Zn661  Zn    0.12798   0.20535   0.78277   0.00000  Uiso   1.00
O662   O     0.16667   0.16667   0.75000   0.00000  Uiso   1.00
O663   O     0.06990   0.18960   0.77820   0.00000  Uiso   1.00
O664   O     0.25440   0.15277   0.76768   0.00000  Uiso   1.00
O665   O     0.13800   0.06903   0.73607   0.00000  Uiso   1.00
O666   O     0.20437   0.25527   0.71805   0.00000  Uiso   1.00
O667   O     0.15693   0.12393   0.66625   0.00000  Uiso   1.00
O668   O     0.12687   0.20646   0.83749   0.00000  Uiso   1.00
O669   O     0.21088   0.17493   0.65877   0.00000  Uiso   1.00
O670   O     0.17198   0.16135   0.83749   0.00000  Uiso   1.00
O671   O     0.17849   0.08101   0.77821   0.00000  Uiso   1.00
O672   O     0.14581   0.26136   0.76767   0.00000  Uiso   1.00
O673   O     0.07452   0.13251   0.73607   0.00000  Uiso   1.00
O674   O     0.26785   0.19179   0.71806   0.00000  Uiso   1.00
C675   C     0.05237   0.15953   0.75924   0.00000  Uiso   1.00
C676   C     0.28111   0.17426   0.74145   0.00000  Uiso   1.00
C677   C     0.15674   0.05629   0.75816   0.00000  Uiso   1.00
C678   C     0.17646   0.27770   0.74162   0.00000  Uiso   1.00
C679   C     0.18829   0.14539   0.64389   0.00000  Uiso   1.00
C680   C     0.14570   0.18813   0.85620   0.00000  Uiso   1.00
C681   C     0.13185   0.19241   0.89975   0.00000  Uiso   1.00
C682   C     0.19874   0.13645   0.60085   0.00000  Uiso   1.00
C683   C     0.07162   0.19215   0.95999   0.00000  Uiso   1.00
C684   C     0.08789   0.19467   0.91924   0.00000  Uiso   1.00
C685   C     0.16058   0.18961   0.92183   0.00000  Uiso   1.00
C686   C     0.14312   0.17733   0.96064   0.00000  Uiso   1.00
C687   C     0.09885   0.18157   0.98069   0.00000  Uiso   1.00
C688   C     0.16843   0.16039   0.97974   0.00000  Uiso   1.00
C689   C     0.15259   0.15624   0.52095   0.00000  Uiso   1.00
C690   C     0.10917   0.16272   0.54054   0.00000  Uiso   1.00
C691   C     0.08254   0.17365   0.52042   0.00000  Uiso   1.00
C692   C     0.20769   0.14447   0.95806   0.00000  Uiso   1.00
C693   C     0.23356   0.13037   0.97697   0.00000  Uiso   1.00
C694   C     0.22123   0.13174   0.51813   0.00000  Uiso   1.00
C695   C     0.18039   0.14428   0.54070   0.00000  Uiso   1.00
C696   C     0.24965   0.12078   0.53680   0.00000  Uiso   1.00
C697   C     0.23902   0.12319   0.57815   0.00000  Uiso   1.00
C698   C     0.16975   0.14617   0.58228   0.00000  Uiso   1.00
H699   H     0.04882   0.17527   0.53644   0.00000  Uiso   1.00
H700   H     0.14041   0.15799   0.60121   0.00000  Uiso   1.00
H701   H     0.26386   0.11910   0.95928   0.00000  Uiso   1.00
H702   H     0.06603   0.19873   0.90264   0.00000  Uiso   1.00
H703   H     0.09397   0.15697   0.57094   0.00000  Uiso   1.00
H704   H     0.21843   0.14177   0.92605   0.00000  Uiso   1.00
H705   H     0.28053   0.11076   0.51905   0.00000  Uiso   1.00
C706   C     0.32745   0.17847   0.73794   0.00000  Uiso   1.00
C707   C     0.00739   0.15760   0.76117   0.00000  Uiso   1.00
H708   H     0.31818   0.13739   0.78152   0.00000  Uiso   1.00
C709   C     0.17903   0.32214   0.73956   0.00000  Uiso   1.00
H710   H     0.20638   0.00252   0.71734   0.00000  Uiso   1.00
C711   C     0.14939   0.01303   0.76376   0.00000  Uiso   1.00
N712   N     0.02401   0.20485   0.71028   0.00000  Uiso   1.00
O713   O     0.01250   0.23908   0.70406   0.00000  Uiso   1.00
O714   O     0.06130   0.19334   0.68895   0.00000  Uiso   1.00
C715   C     0.10927   0.33123   0.79595   0.00000  Uiso   1.00
C716   C     0.08053   0.03166   0.81888   0.00000  Uiso   1.00
H717   H     0.09896   0.05633   0.83431   0.00000  Uiso   1.00
H718   H     0.06781   0.04559   0.79856   0.00000  Uiso   1.00
H719   H     0.05257   0.01769   0.84151   0.00000  Uiso   1.00
H720   H     0.08876   0.30709   0.78211   0.00000  Uiso   1.00
H721   H     0.11968   0.31769   0.81804   0.00000  Uiso   1.00
N722   N     0.26938   0.11236   0.59640   0.00000  Uiso   1.00
O723   O     0.25598   0.09699   0.63026   0.00000  Uiso   1.00
O724   O     0.31045   0.11428   0.57752   0.00000  Uiso   1.00
N725   N     0.02716   0.19865   0.97928   0.00000  Uiso   1.00
O726   O     0.33104   0.18522   0.96107   0.00000  Uiso   1.00
O727   O     0.01744   0.22452   0.51129   0.00000  Uiso   1.00
N728   N     0.20534   0.20727   0.90890   0.00000  Uiso   1.00
O729   O     0.22330   0.22914   0.93467   0.00000  Uiso   1.00
O730   O     0.22690   0.20602   0.87162   0.00000  Uiso   1.00
Zn731  Zn    0.52577   0.14090   0.78278   0.00000  Uiso   1.00
Zn732  Zn    0.46792   0.12378   0.72258   0.00000  Uiso   1.00
Zn733  Zn    0.54500   0.19664   0.71188   0.00000  Uiso   1.00
Zn734  Zn    0.46131   0.20535   0.78277   0.00000  Uiso   1.00
O735   O     0.50000   0.16667   0.75000   0.00000  Uiso   1.00
O736   O     0.40323   0.18960   0.77820   0.00000  Uiso   1.00
O737   O     0.58773   0.15277   0.76768   0.00000  Uiso   1.00
O738   O     0.47133   0.06903   0.73607   0.00000  Uiso   1.00
O739   O     0.53771   0.25527   0.71805   0.00000  Uiso   1.00
O740   O     0.49027   0.12393   0.66625   0.00000  Uiso   1.00
O741   O     0.46020   0.20646   0.83749   0.00000  Uiso   1.00
O742   O     0.54421   0.17493   0.65877   0.00000  Uiso   1.00
O743   O     0.50532   0.16135   0.83749   0.00000  Uiso   1.00
O744   O     0.51182   0.08101   0.77821   0.00000  Uiso   1.00
O745   O     0.47914   0.26136   0.76767   0.00000  Uiso   1.00
O746   O     0.40785   0.13251   0.73607   0.00000  Uiso   1.00
O747   O     0.60119   0.19179   0.71806   0.00000  Uiso   1.00
C748   C     0.38570   0.15953   0.75924   0.00000  Uiso   1.00
C749   C     0.61445   0.17426   0.74145   0.00000  Uiso   1.00
C750   C     0.49007   0.05629   0.75816   0.00000  Uiso   1.00
C751   C     0.50979   0.27770   0.74162   0.00000  Uiso   1.00
C752   C     0.52162   0.14539   0.64389   0.00000  Uiso   1.00
C753   C     0.47904   0.18813   0.85620   0.00000  Uiso   1.00
C754   C     0.46519   0.19241   0.89975   0.00000  Uiso   1.00
C755   C     0.53207   0.13645   0.60085   0.00000  Uiso   1.00
C756   C     0.40496   0.19215   0.95999   0.00000  Uiso   1.00
C757   C     0.42122   0.19467   0.91924   0.00000  Uiso   1.00
C758   C     0.49391   0.18961   0.92183   0.00000  Uiso   1.00
C759   C     0.47645   0.17733   0.96064   0.00000  Uiso   1.00
C760   C     0.43218   0.18157   0.98069   0.00000  Uiso   1.00
C761   C     0.50177   0.16039   0.97974   0.00000  Uiso   1.00
C762   C     0.48593   0.15624   0.52095   0.00000  Uiso   1.00
C763   C     0.44250   0.16272   0.54054   0.00000  Uiso   1.00
C764   C     0.41588   0.17365   0.52042   0.00000  Uiso   1.00
C765   C     0.54102   0.14447   0.95806   0.00000  Uiso   1.00
C766   C     0.56689   0.13037   0.97697   0.00000  Uiso   1.00
C767   C     0.55456   0.13174   0.51813   0.00000  Uiso   1.00
C768   C     0.51372   0.14428   0.54070   0.00000  Uiso   1.00
C769   C     0.58298   0.12078   0.53680   0.00000  Uiso   1.00
C770   C     0.57235   0.12319   0.57815   0.00000  Uiso   1.00
C771   C     0.50308   0.14617   0.58228   0.00000  Uiso   1.00
H772   H     0.38215   0.17527   0.53644   0.00000  Uiso   1.00
H773   H     0.47374   0.15799   0.60121   0.00000  Uiso   1.00
H774   H     0.59720   0.11910   0.95928   0.00000  Uiso   1.00
H775   H     0.39937   0.19873   0.90264   0.00000  Uiso   1.00
H776   H     0.42730   0.15697   0.57094   0.00000  Uiso   1.00
H777   H     0.55177   0.14177   0.92605   0.00000  Uiso   1.00
H778   H     0.61386   0.11076   0.51905   0.00000  Uiso   1.00
C779   C     0.66079   0.17847   0.73794   0.00000  Uiso   1.00
C780   C     0.34073   0.15760   0.76117   0.00000  Uiso   1.00
H781   H     0.65152   0.13739   0.78152   0.00000  Uiso   1.00
C782   C     0.51236   0.32214   0.73956   0.00000  Uiso   1.00
H783   H     0.53971   0.00252   0.71734   0.00000  Uiso   1.00
C784   C     0.48272   0.01303   0.76376   0.00000  Uiso   1.00
N785   N     0.35734   0.20485   0.71028   0.00000  Uiso   1.00
O786   O     0.34584   0.23908   0.70406   0.00000  Uiso   1.00
O787   O     0.39463   0.19334   0.68895   0.00000  Uiso   1.00
C788   C     0.44260   0.33123   0.79595   0.00000  Uiso   1.00
C789   C     0.41386   0.03166   0.81888   0.00000  Uiso   1.00
H790   H     0.43229   0.05633   0.83431   0.00000  Uiso   1.00
H791   H     0.40115   0.04559   0.79856   0.00000  Uiso   1.00
H792   H     0.38590   0.01769   0.84151   0.00000  Uiso   1.00
H793   H     0.42210   0.30709   0.78211   0.00000  Uiso   1.00
H794   H     0.45301   0.31769   0.81804   0.00000  Uiso   1.00
N795   N     0.60271   0.11236   0.59640   0.00000  Uiso   1.00
O796   O     0.58931   0.09699   0.63026   0.00000  Uiso   1.00
O797   O     0.64379   0.11428   0.57752   0.00000  Uiso   1.00
N798   N     0.36049   0.19865   0.97928   0.00000  Uiso   1.00
O799   O     0.66437   0.18522   0.96107   0.00000  Uiso   1.00
O800   O     0.35077   0.22452   0.51129   0.00000  Uiso   1.00
N801   N     0.53867   0.20727   0.90890   0.00000  Uiso   1.00
O802   O     0.55663   0.22914   0.93467   0.00000  Uiso   1.00
O803   O     0.56023   0.20602   0.87162   0.00000  Uiso   1.00
Zn804  Zn    0.85910   0.14090   0.78278   0.00000  Uiso   1.00
Zn805  Zn    0.80125   0.12378   0.72258   0.00000  Uiso   1.00
Zn806  Zn    0.87833   0.19664   0.71188   0.00000  Uiso   1.00
Zn807  Zn    0.79465   0.20535   0.78277   0.00000  Uiso   1.00
O808   O     0.83333   0.16667   0.75000   0.00000  Uiso   1.00
O809   O     0.73656   0.18960   0.77820   0.00000  Uiso   1.00
O810   O     0.92106   0.15277   0.76768   0.00000  Uiso   1.00
O811   O     0.80467   0.06903   0.73607   0.00000  Uiso   1.00
O812   O     0.87104   0.25527   0.71805   0.00000  Uiso   1.00
O813   O     0.82360   0.12393   0.66625   0.00000  Uiso   1.00
O814   O     0.79354   0.20646   0.83749   0.00000  Uiso   1.00
O815   O     0.87755   0.17493   0.65877   0.00000  Uiso   1.00
O816   O     0.83865   0.16135   0.83749   0.00000  Uiso   1.00
O817   O     0.84515   0.08101   0.77821   0.00000  Uiso   1.00
O818   O     0.81247   0.26136   0.76767   0.00000  Uiso   1.00
O819   O     0.74119   0.13251   0.73607   0.00000  Uiso   1.00
O820   O     0.93452   0.19179   0.71806   0.00000  Uiso   1.00
C821   C     0.71903   0.15953   0.75924   0.00000  Uiso   1.00
C822   C     0.94778   0.17426   0.74145   0.00000  Uiso   1.00
C823   C     0.82340   0.05629   0.75816   0.00000  Uiso   1.00
C824   C     0.84313   0.27770   0.74162   0.00000  Uiso   1.00
C825   C     0.85496   0.14539   0.64389   0.00000  Uiso   1.00
C826   C     0.81237   0.18813   0.85620   0.00000  Uiso   1.00
C827   C     0.79852   0.19241   0.89975   0.00000  Uiso   1.00
C828   C     0.86540   0.13645   0.60085   0.00000  Uiso   1.00
C829   C     0.73829   0.19215   0.95999   0.00000  Uiso   1.00
C830   C     0.75455   0.19467   0.91924   0.00000  Uiso   1.00
C831   C     0.82725   0.18961   0.92183   0.00000  Uiso   1.00
C832   C     0.80979   0.17733   0.96064   0.00000  Uiso   1.00
C833   C     0.76552   0.18157   0.98069   0.00000  Uiso   1.00
C834   C     0.83510   0.16039   0.97974   0.00000  Uiso   1.00
C835   C     0.81926   0.15624   0.52095   0.00000  Uiso   1.00
C836   C     0.77583   0.16272   0.54054   0.00000  Uiso   1.00
C837   C     0.74921   0.17365   0.52042   0.00000  Uiso   1.00
C838   C     0.87436   0.14447   0.95806   0.00000  Uiso   1.00
C839   C     0.90023   0.13037   0.97697   0.00000  Uiso   1.00
C840   C     0.88790   0.13174   0.51813   0.00000  Uiso   1.00
C841   C     0.84705   0.14428   0.54070   0.00000  Uiso   1.00
C842   C     0.91632   0.12078   0.53680   0.00000  Uiso   1.00
C843   C     0.90569   0.12319   0.57815   0.00000  Uiso   1.00
C844   C     0.83642   0.14617   0.58228   0.00000  Uiso   1.00
H845   H     0.71549   0.17527   0.53644   0.00000  Uiso   1.00
H846   H     0.80708   0.15799   0.60121   0.00000  Uiso   1.00
H847   H     0.93053   0.11910   0.95928   0.00000  Uiso   1.00
H848   H     0.73270   0.19873   0.90264   0.00000  Uiso   1.00
H849   H     0.76064   0.15697   0.57094   0.00000  Uiso   1.00
H850   H     0.88510   0.14177   0.92605   0.00000  Uiso   1.00
H851   H     0.94720   0.11076   0.51905   0.00000  Uiso   1.00
C852   C     0.99412   0.17847   0.73794   0.00000  Uiso   1.00
C853   C     0.67406   0.15760   0.76117   0.00000  Uiso   1.00
H854   H     0.98485   0.13739   0.78152   0.00000  Uiso   1.00
C855   C     0.84570   0.32214   0.73956   0.00000  Uiso   1.00
H856   H     0.87305   0.00252   0.71734   0.00000  Uiso   1.00
C857   C     0.81605   0.01303   0.76376   0.00000  Uiso   1.00
N858   N     0.69067   0.20485   0.71028   0.00000  Uiso   1.00
O859   O     0.67917   0.23908   0.70406   0.00000  Uiso   1.00
O860   O     0.72796   0.19334   0.68895   0.00000  Uiso   1.00
C861   C     0.77593   0.33123   0.79595   0.00000  Uiso   1.00
C862   C     0.74719   0.03166   0.81888   0.00000  Uiso   1.00
H863   H     0.76562   0.05633   0.83431   0.00000  Uiso   1.00
H864   H     0.73448   0.04559   0.79856   0.00000  Uiso   1.00
H865   H     0.71924   0.01769   0.84151   0.00000  Uiso   1.00
H866   H     0.75543   0.30709   0.78211   0.00000  Uiso   1.00
H867   H     0.78634   0.31769   0.81804   0.00000  Uiso   1.00
N868   N     0.93605   0.11236   0.59640   0.00000  Uiso   1.00
O869   O     0.92265   0.09699   0.63026   0.00000  Uiso   1.00
O870   O     0.97712   0.11428   0.57752   0.00000  Uiso   1.00
N871   N     0.69383   0.19865   0.97928   0.00000  Uiso   1.00
O872   O     0.99771   0.18522   0.96107   0.00000  Uiso   1.00
O873   O     0.68411   0.22452   0.51129   0.00000  Uiso   1.00
N874   N     0.87201   0.20727   0.90890   0.00000  Uiso   1.00
O875   O     0.88996   0.22914   0.93467   0.00000  Uiso   1.00
O876   O     0.89356   0.20602   0.87162   0.00000  Uiso   1.00
Zn877  Zn    0.19244   0.47423   0.78278   0.00000  Uiso   1.00
Zn878  Zn    0.13459   0.45711   0.72258   0.00000  Uiso   1.00
Zn879  Zn    0.21166   0.52997   0.71188   0.00000  Uiso   1.00
Zn880  Zn    0.12798   0.53868   0.78277   0.00000  Uiso   1.00
O881   O     0.16667   0.50000   0.75000   0.00000  Uiso   1.00
O882   O     0.06990   0.52293   0.77820   0.00000  Uiso   1.00
O883   O     0.25440   0.48610   0.76768   0.00000  Uiso   1.00
O884   O     0.13800   0.40236   0.73607   0.00000  Uiso   1.00
O885   O     0.20437   0.58860   0.71805   0.00000  Uiso   1.00
O886   O     0.15693   0.45726   0.66625   0.00000  Uiso   1.00
O887   O     0.12687   0.53979   0.83749   0.00000  Uiso   1.00
O888   O     0.21088   0.50826   0.65877   0.00000  Uiso   1.00
O889   O     0.17198   0.49468   0.83749   0.00000  Uiso   1.00
O890   O     0.17849   0.41434   0.77821   0.00000  Uiso   1.00
O891   O     0.14581   0.59469   0.76767   0.00000  Uiso   1.00
O892   O     0.07452   0.46584   0.73607   0.00000  Uiso   1.00
O893   O     0.26785   0.52512   0.71806   0.00000  Uiso   1.00
C894   C     0.05237   0.49286   0.75924   0.00000  Uiso   1.00
C895   C     0.28111   0.50759   0.74145   0.00000  Uiso   1.00
C896   C     0.15674   0.38962   0.75816   0.00000  Uiso   1.00
C897   C     0.17646   0.61103   0.74162   0.00000  Uiso   1.00
C898   C     0.18829   0.47872   0.64389   0.00000  Uiso   1.00
C899   C     0.14570   0.52146   0.85620   0.00000  Uiso   1.00
C900   C     0.13185   0.52574   0.89975   0.00000  Uiso   1.00
C901   C     0.19874   0.46978   0.60085   0.00000  Uiso   1.00
C902   C     0.07162   0.52548   0.95999   0.00000  Uiso   1.00
C903   C     0.08789   0.52801   0.91924   0.00000  Uiso   1.00
C904   C     0.16058   0.52294   0.92183   0.00000  Uiso   1.00
C905   C     0.14312   0.51067   0.96064   0.00000  Uiso   1.00
C906   C     0.09885   0.51490   0.98069   0.00000  Uiso   1.00
C907   C     0.16843   0.49372   0.97974   0.00000  Uiso   1.00
C908   C     0.15259   0.48957   0.52095   0.00000  Uiso   1.00
C909   C     0.10917   0.49605   0.54054   0.00000  Uiso   1.00
C910   C     0.08254   0.50699   0.52042   0.00000  Uiso   1.00
C911   C     0.20769   0.47781   0.95806   0.00000  Uiso   1.00
C912   C     0.23356   0.46370   0.97697   0.00000  Uiso   1.00
C913   C     0.22123   0.46507   0.51813   0.00000  Uiso   1.00
C914   C     0.18039   0.47762   0.54070   0.00000  Uiso   1.00
C915   C     0.24965   0.45412   0.53680   0.00000  Uiso   1.00
C916   C     0.23902   0.45652   0.57815   0.00000  Uiso   1.00
C917   C     0.16975   0.47951   0.58228   0.00000  Uiso   1.00
H918   H     0.04882   0.50861   0.53644   0.00000  Uiso   1.00
H919   H     0.14041   0.49132   0.60121   0.00000  Uiso   1.00
H920   H     0.26386   0.45243   0.95928   0.00000  Uiso   1.00
H921   H     0.06603   0.53206   0.90264   0.00000  Uiso   1.00
H922   H     0.09397   0.49031   0.57094   0.00000  Uiso   1.00
H923   H     0.21843   0.47511   0.92605   0.00000  Uiso   1.00
H924   H     0.28053   0.44410   0.51905   0.00000  Uiso   1.00
C925   C     0.32745   0.51180   0.73794   0.00000  Uiso   1.00
C926   C     0.00739   0.49093   0.76117   0.00000  Uiso   1.00
H927   H     0.31818   0.47072   0.78152   0.00000  Uiso   1.00
C928   C     0.17903   0.65547   0.73956   0.00000  Uiso   1.00
H929   H     0.20638   0.33585   0.71734   0.00000  Uiso   1.00
C930   C     0.14939   0.34636   0.76376   0.00000  Uiso   1.00
N931   N     0.02401   0.53818   0.71028   0.00000  Uiso   1.00
O932   O     0.01250   0.57242   0.70406   0.00000  Uiso   1.00
O933   O     0.06130   0.52667   0.68895   0.00000  Uiso   1.00
C934   C     0.10927   0.66456   0.79595   0.00000  Uiso   1.00
C935   C     0.08053   0.36500   0.81888   0.00000  Uiso   1.00
H936   H     0.09896   0.38966   0.83431   0.00000  Uiso   1.00
H937   H     0.06781   0.37892   0.79856   0.00000  Uiso   1.00
H938   H     0.05257   0.35102   0.84151   0.00000  Uiso   1.00
H939   H     0.08876   0.64043   0.78211   0.00000  Uiso   1.00
H940   H     0.11968   0.65102   0.81804   0.00000  Uiso   1.00
N941   N     0.26938   0.44569   0.59640   0.00000  Uiso   1.00
O942   O     0.25598   0.43032   0.63026   0.00000  Uiso   1.00
O943   O     0.31045   0.44761   0.57752   0.00000  Uiso   1.00
N944   N     0.02716   0.53199   0.97928   0.00000  Uiso   1.00
O945   O     0.33104   0.51855   0.96107   0.00000  Uiso   1.00
O946   O     0.01744   0.55785   0.51129   0.00000  Uiso   1.00
N947   N     0.20534   0.54060   0.90890   0.00000  Uiso   1.00
O948   O     0.22330   0.56247   0.93467   0.00000  Uiso   1.00
O949   O     0.22690   0.53935   0.87162   0.00000  Uiso   1.00
Zn950  Zn    0.52577   0.47423   0.78278   0.00000  Uiso   1.00
Zn951  Zn    0.46792   0.45711   0.72258   0.00000  Uiso   1.00
Zn952  Zn    0.54500   0.52997   0.71188   0.00000  Uiso   1.00
Zn953  Zn    0.46131   0.53868   0.78277   0.00000  Uiso   1.00
O954   O     0.50000   0.50000   0.75000   0.00000  Uiso   1.00
O955   O     0.40323   0.52293   0.77820   0.00000  Uiso   1.00
O956   O     0.58773   0.48610   0.76768   0.00000  Uiso   1.00
O957   O     0.47133   0.40236   0.73607   0.00000  Uiso   1.00
O958   O     0.53771   0.58860   0.71805   0.00000  Uiso   1.00
O959   O     0.49027   0.45726   0.66625   0.00000  Uiso   1.00
O960   O     0.46020   0.53979   0.83749   0.00000  Uiso   1.00
O961   O     0.54421   0.50826   0.65877   0.00000  Uiso   1.00
O962   O     0.50532   0.49468   0.83749   0.00000  Uiso   1.00
O963   O     0.51182   0.41434   0.77821   0.00000  Uiso   1.00
O964   O     0.47914   0.59469   0.76767   0.00000  Uiso   1.00
O965   O     0.40785   0.46584   0.73607   0.00000  Uiso   1.00
O966   O     0.60119   0.52512   0.71806   0.00000  Uiso   1.00
C967   C     0.38570   0.49286   0.75924   0.00000  Uiso   1.00
C968   C     0.61445   0.50759   0.74145   0.00000  Uiso   1.00
C969   C     0.49007   0.38962   0.75816   0.00000  Uiso   1.00
C970   C     0.50979   0.61103   0.74162   0.00000  Uiso   1.00
C971   C     0.52162   0.47872   0.64389   0.00000  Uiso   1.00
C972   C     0.47904   0.52146   0.85620   0.00000  Uiso   1.00
C973   C     0.46519   0.52574   0.89975   0.00000  Uiso   1.00
C974   C     0.53207   0.46978   0.60085   0.00000  Uiso   1.00
C975   C     0.40496   0.52548   0.95999   0.00000  Uiso   1.00
C976   C     0.42122   0.52801   0.91924   0.00000  Uiso   1.00
C977   C     0.49391   0.52294   0.92183   0.00000  Uiso   1.00
C978   C     0.47645   0.51067   0.96064   0.00000  Uiso   1.00
C979   C     0.43218   0.51490   0.98069   0.00000  Uiso   1.00
C980   C     0.50177   0.49372   0.97974   0.00000  Uiso   1.00
C981   C     0.48593   0.48957   0.52095   0.00000  Uiso   1.00
C982   C     0.44250   0.49605   0.54054   0.00000  Uiso   1.00
C983   C     0.41588   0.50699   0.52042   0.00000  Uiso   1.00
C984   C     0.54102   0.47781   0.95806   0.00000  Uiso   1.00
C985   C     0.56689   0.46370   0.97697   0.00000  Uiso   1.00
C986   C     0.55456   0.46507   0.51813   0.00000  Uiso   1.00
C987   C     0.51372   0.47762   0.54070   0.00000  Uiso   1.00
C988   C     0.58298   0.45412   0.53680   0.00000  Uiso   1.00
C989   C     0.57235   0.45652   0.57815   0.00000  Uiso   1.00
C990   C     0.50308   0.47951   0.58228   0.00000  Uiso   1.00
H991   H     0.38215   0.50861   0.53644   0.00000  Uiso   1.00
H992   H     0.47374   0.49132   0.60121   0.00000  Uiso   1.00
H993   H     0.59720   0.45243   0.95928   0.00000  Uiso   1.00
H994   H     0.39937   0.53206   0.90264   0.00000  Uiso   1.00
H995   H     0.42730   0.49031   0.57094   0.00000  Uiso   1.00
H996   H     0.55177   0.47511   0.92605   0.00000  Uiso   1.00
H997   H     0.61386   0.44410   0.51905   0.00000  Uiso   1.00
C998   C     0.66079   0.51180   0.73794   0.00000  Uiso   1.00
C999   C     0.34073   0.49093   0.76117   0.00000  Uiso   1.00
H1000  H     0.65152   0.47072   0.78152   0.00000  Uiso   1.00
C1001  C     0.51236   0.65547   0.73956   0.00000  Uiso   1.00
H1002  H     0.53971   0.33585   0.71734   0.00000  Uiso   1.00
C1003  C     0.48272   0.34636   0.76376   0.00000  Uiso   1.00
N1004  N     0.35734   0.53818   0.71028   0.00000  Uiso   1.00
O1005  O     0.34584   0.57242   0.70406   0.00000  Uiso   1.00
O1006  O     0.39463   0.52667   0.68895   0.00000  Uiso   1.00
C1007  C     0.44260   0.66456   0.79595   0.00000  Uiso   1.00
C1008  C     0.41386   0.36500   0.81888   0.00000  Uiso   1.00
H1009  H     0.43229   0.38966   0.83431   0.00000  Uiso   1.00
H1010  H     0.40115   0.37892   0.79856   0.00000  Uiso   1.00
H1011  H     0.38590   0.35102   0.84151   0.00000  Uiso   1.00
H1012  H     0.42210   0.64043   0.78211   0.00000  Uiso   1.00
H1013  H     0.45301   0.65102   0.81804   0.00000  Uiso   1.00
N1014  N     0.60271   0.44569   0.59640   0.00000  Uiso   1.00
O1015  O     0.58931   0.43032   0.63026   0.00000  Uiso   1.00
O1016  O     0.64379   0.44761   0.57752   0.00000  Uiso   1.00
N1017  N     0.36049   0.53199   0.97928   0.00000  Uiso   1.00
O1018  O     0.66437   0.51855   0.96107   0.00000  Uiso   1.00
O1019  O     0.35077   0.55785   0.51129   0.00000  Uiso   1.00
N1020  N     0.53867   0.54060   0.90890   0.00000  Uiso   1.00
O1021  O     0.55663   0.56247   0.93467   0.00000  Uiso   1.00
O1022  O     0.56023   0.53935   0.87162   0.00000  Uiso   1.00
Zn1023 Zn    0.85910   0.47423   0.78278   0.00000  Uiso   1.00
Zn1024 Zn    0.80125   0.45711   0.72258   0.00000  Uiso   1.00
Zn1025 Zn    0.87833   0.52997   0.71188   0.00000  Uiso   1.00
Zn1026 Zn    0.79465   0.53868   0.78277   0.00000  Uiso   1.00
O1027  O     0.83333   0.50000   0.75000   0.00000  Uiso   1.00
O1028  O     0.73656   0.52293   0.77820   0.00000  Uiso   1.00
O1029  O     0.92106   0.48610   0.76768   0.00000  Uiso   1.00
O1030  O     0.80467   0.40236   0.73607   0.00000  Uiso   1.00
O1031  O     0.87104   0.58860   0.71805   0.00000  Uiso   1.00
O1032  O     0.82360   0.45726   0.66625   0.00000  Uiso   1.00
O1033  O     0.79354   0.53979   0.83749   0.00000  Uiso   1.00
O1034  O     0.87755   0.50826   0.65877   0.00000  Uiso   1.00
O1035  O     0.83865   0.49468   0.83749   0.00000  Uiso   1.00
O1036  O     0.84515   0.41434   0.77821   0.00000  Uiso   1.00
O1037  O     0.81247   0.59469   0.76767   0.00000  Uiso   1.00
O1038  O     0.74119   0.46584   0.73607   0.00000  Uiso   1.00
O1039  O     0.93452   0.52512   0.71806   0.00000  Uiso   1.00
C1040  C     0.71903   0.49286   0.75924   0.00000  Uiso   1.00
C1041  C     0.94778   0.50759   0.74145   0.00000  Uiso   1.00
C1042  C     0.82340   0.38962   0.75816   0.00000  Uiso   1.00
C1043  C     0.84313   0.61103   0.74162   0.00000  Uiso   1.00
C1044  C     0.85496   0.47872   0.64389   0.00000  Uiso   1.00
C1045  C     0.81237   0.52146   0.85620   0.00000  Uiso   1.00
C1046  C     0.79852   0.52574   0.89975   0.00000  Uiso   1.00
C1047  C     0.86540   0.46978   0.60085   0.00000  Uiso   1.00
C1048  C     0.73829   0.52548   0.95999   0.00000  Uiso   1.00
C1049  C     0.75455   0.52801   0.91924   0.00000  Uiso   1.00
C1050  C     0.82725   0.52294   0.92183   0.00000  Uiso   1.00
C1051  C     0.80979   0.51067   0.96064   0.00000  Uiso   1.00
C1052  C     0.76552   0.51490   0.98069   0.00000  Uiso   1.00
C1053  C     0.83510   0.49372   0.97974   0.00000  Uiso   1.00
C1054  C     0.81926   0.48957   0.52095   0.00000  Uiso   1.00
C1055  C     0.77583   0.49605   0.54054   0.00000  Uiso   1.00
C1056  C     0.74921   0.50699   0.52042   0.00000  Uiso   1.00
C1057  C     0.87436   0.47781   0.95806   0.00000  Uiso   1.00
C1058  C     0.90023   0.46370   0.97697   0.00000  Uiso   1.00
C1059  C     0.88790   0.46507   0.51813   0.00000  Uiso   1.00
C1060  C     0.84705   0.47762   0.54070   0.00000  Uiso   1.00
C1061  C     0.91632   0.45412   0.53680   0.00000  Uiso   1.00
C1062  C     0.90569   0.45652   0.57815   0.00000  Uiso   1.00
C1063  C     0.83642   0.47951   0.58228   0.00000  Uiso   1.00
H1064  H     0.71549   0.50861   0.53644   0.00000  Uiso   1.00
H1065  H     0.80708   0.49132   0.60121   0.00000  Uiso   1.00
H1066  H     0.93053   0.45243   0.95928   0.00000  Uiso   1.00
H1067  H     0.73270   0.53206   0.90264   0.00000  Uiso   1.00
H1068  H     0.76064   0.49031   0.57094   0.00000  Uiso   1.00
H1069  H     0.88510   0.47511   0.92605   0.00000  Uiso   1.00
H1070  H     0.94720   0.44410   0.51905   0.00000  Uiso   1.00
C1071  C     0.99412   0.51180   0.73794   0.00000  Uiso   1.00
C1072  C     0.67406   0.49093   0.76117   0.00000  Uiso   1.00
H1073  H     0.98485   0.47072   0.78152   0.00000  Uiso   1.00
C1074  C     0.84570   0.65547   0.73956   0.00000  Uiso   1.00
H1075  H     0.87305   0.33585   0.71734   0.00000  Uiso   1.00
C1076  C     0.81605   0.34636   0.76376   0.00000  Uiso   1.00
N1077  N     0.69067   0.53818   0.71028   0.00000  Uiso   1.00
O1078  O     0.67917   0.57242   0.70406   0.00000  Uiso   1.00
O1079  O     0.72796   0.52667   0.68895   0.00000  Uiso   1.00
C1080  C     0.77593   0.66456   0.79595   0.00000  Uiso   1.00
C1081  C     0.74719   0.36500   0.81888   0.00000  Uiso   1.00
H1082  H     0.76562   0.38966   0.83431   0.00000  Uiso   1.00
H1083  H     0.73448   0.37892   0.79856   0.00000  Uiso   1.00
H1084  H     0.71924   0.35102   0.84151   0.00000  Uiso   1.00
H1085  H     0.75543   0.64043   0.78211   0.00000  Uiso   1.00
H1086  H     0.78634   0.65102   0.81804   0.00000  Uiso   1.00
N1087  N     0.93605   0.44569   0.59640   0.00000  Uiso   1.00
O1088  O     0.92265   0.43032   0.63026   0.00000  Uiso   1.00
O1089  O     0.97712   0.44761   0.57752   0.00000  Uiso   1.00
N1090  N     0.69383   0.53199   0.97928   0.00000  Uiso   1.00
O1091  O     0.99771   0.51855   0.96107   0.00000  Uiso   1.00
O1092  O     0.68411   0.55785   0.51129   0.00000  Uiso   1.00
N1093  N     0.87201   0.54060   0.90890   0.00000  Uiso   1.00
O1094  O     0.88996   0.56247   0.93467   0.00000  Uiso   1.00
O1095  O     0.89356   0.53935   0.87162   0.00000  Uiso   1.00
Zn1096 Zn    0.19244   0.80756   0.78278   0.00000  Uiso   1.00
Zn1097 Zn    0.13459   0.79044   0.72258   0.00000  Uiso   1.00
Zn1098 Zn    0.21166   0.86331   0.71188   0.00000  Uiso   1.00
Zn1099 Zn    0.12798   0.87202   0.78277   0.00000  Uiso   1.00
O1100  O     0.16667   0.83333   0.75000   0.00000  Uiso   1.00
O1101  O     0.06990   0.85627   0.77820   0.00000  Uiso   1.00
O1102  O     0.25440   0.81944   0.76768   0.00000  Uiso   1.00
O1103  O     0.13800   0.73570   0.73607   0.00000  Uiso   1.00
O1104  O     0.20437   0.92193   0.71805   0.00000  Uiso   1.00
O1105  O     0.15693   0.79060   0.66625   0.00000  Uiso   1.00
O1106  O     0.12687   0.87313   0.83749   0.00000  Uiso   1.00
O1107  O     0.21088   0.84159   0.65877   0.00000  Uiso   1.00
O1108  O     0.17198   0.82802   0.83749   0.00000  Uiso   1.00
O1109  O     0.17849   0.74768   0.77821   0.00000  Uiso   1.00
O1110  O     0.14581   0.92803   0.76767   0.00000  Uiso   1.00
O1111  O     0.07452   0.79917   0.73607   0.00000  Uiso   1.00
O1112  O     0.26785   0.85845   0.71806   0.00000  Uiso   1.00
C1113  C     0.05237   0.82619   0.75924   0.00000  Uiso   1.00
C1114  C     0.28111   0.84092   0.74145   0.00000  Uiso   1.00
C1115  C     0.15674   0.72296   0.75816   0.00000  Uiso   1.00
C1116  C     0.17646   0.94437   0.74162   0.00000  Uiso   1.00
C1117  C     0.18829   0.81205   0.64389   0.00000  Uiso   1.00
C1118  C     0.14570   0.85479   0.85620   0.00000  Uiso   1.00
C1119  C     0.13185   0.85908   0.89975   0.00000  Uiso   1.00
C1120  C     0.19874   0.80312   0.60085   0.00000  Uiso   1.00
C1121  C     0.07162   0.85881   0.95999   0.00000  Uiso   1.00
C1122  C     0.08789   0.86134   0.91924   0.00000  Uiso   1.00
C1123  C     0.16058   0.85627   0.92183   0.00000  Uiso   1.00
C1124  C     0.14312   0.84400   0.96064   0.00000  Uiso   1.00
C1125  C     0.09885   0.84823   0.98069   0.00000  Uiso   1.00
C1126  C     0.16843   0.82705   0.97974   0.00000  Uiso   1.00
C1127  C     0.15259   0.82290   0.52095   0.00000  Uiso   1.00
C1128  C     0.10917   0.82939   0.54054   0.00000  Uiso   1.00
C1129  C     0.08254   0.84032   0.52042   0.00000  Uiso   1.00
C1130  C     0.20769   0.81114   0.95806   0.00000  Uiso   1.00
C1131  C     0.23356   0.79703   0.97697   0.00000  Uiso   1.00
C1132  C     0.22123   0.79841   0.51813   0.00000  Uiso   1.00
C1133  C     0.18039   0.81095   0.54070   0.00000  Uiso   1.00
C1134  C     0.24965   0.78745   0.53680   0.00000  Uiso   1.00
C1135  C     0.23902   0.78986   0.57815   0.00000  Uiso   1.00
C1136  C     0.16975   0.81284   0.58228   0.00000  Uiso   1.00
H1137  H     0.04882   0.84194   0.53644   0.00000  Uiso   1.00
H1138  H     0.14041   0.82465   0.60121   0.00000  Uiso   1.00
H1139  H     0.26386   0.78577   0.95928   0.00000  Uiso   1.00
H1140  H     0.06603   0.86539   0.90264   0.00000  Uiso   1.00
H1141  H     0.09397   0.82364   0.57094   0.00000  Uiso   1.00
H1142  H     0.21843   0.80844   0.92605   0.00000  Uiso   1.00
H1143  H     0.28053   0.77743   0.51905   0.00000  Uiso   1.00
C1144  C     0.32745   0.84514   0.73794   0.00000  Uiso   1.00
C1145  C     0.00739   0.82426   0.76117   0.00000  Uiso   1.00
H1146  H     0.31818   0.80406   0.78152   0.00000  Uiso   1.00
C1147  C     0.17903   0.98881   0.73956   0.00000  Uiso   1.00
H1148  H     0.20638   0.66919   0.71734   0.00000  Uiso   1.00
C1149  C     0.14939   0.67969   0.76376   0.00000  Uiso   1.00
N1150  N     0.02401   0.87152   0.71028   0.00000  Uiso   1.00
O1151  O     0.01250   0.90575   0.70406   0.00000  Uiso   1.00
O1152  O     0.06130   0.86000   0.68895   0.00000  Uiso   1.00
C1153  C     0.10927   0.99790   0.79595   0.00000  Uiso   1.00
C1154  C     0.08053   0.69833   0.81888   0.00000  Uiso   1.00
H1155  H     0.09896   0.72299   0.83431   0.00000  Uiso   1.00
H1156  H     0.06781   0.71225   0.79856   0.00000  Uiso   1.00
H1157  H     0.05257   0.68436   0.84151   0.00000  Uiso   1.00
H1158  H     0.08876   0.97376   0.78211   0.00000  Uiso   1.00
H1159  H     0.11968   0.98435   0.81804   0.00000  Uiso   1.00
N1160  N     0.26938   0.77903   0.59640   0.00000  Uiso   1.00
O1161  O     0.25598   0.76365   0.63026   0.00000  Uiso   1.00
O1162  O     0.31045   0.78095   0.57752   0.00000  Uiso   1.00
N1163  N     0.02716   0.86532   0.97928   0.00000  Uiso   1.00
O1164  O     0.33104   0.85188   0.96107   0.00000  Uiso   1.00
O1165  O     0.01744   0.89118   0.51129   0.00000  Uiso   1.00
N1166  N     0.20534   0.87394   0.90890   0.00000  Uiso   1.00
O1167  O     0.22330   0.89580   0.93467   0.00000  Uiso   1.00
O1168  O     0.22690   0.87268   0.87162   0.00000  Uiso   1.00
Zn1169 Zn    0.52577   0.80756   0.78278   0.00000  Uiso   1.00
Zn1170 Zn    0.46792   0.79044   0.72258   0.00000  Uiso   1.00
Zn1171 Zn    0.54500   0.86331   0.71188   0.00000  Uiso   1.00
Zn1172 Zn    0.46131   0.87202   0.78277   0.00000  Uiso   1.00
O1173  O     0.50000   0.83333   0.75000   0.00000  Uiso   1.00
O1174  O     0.40323   0.85627   0.77820   0.00000  Uiso   1.00
O1175  O     0.58773   0.81944   0.76768   0.00000  Uiso   1.00
O1176  O     0.47133   0.73570   0.73607   0.00000  Uiso   1.00
O1177  O     0.53771   0.92193   0.71805   0.00000  Uiso   1.00
O1178  O     0.49027   0.79060   0.66625   0.00000  Uiso   1.00
O1179  O     0.46020   0.87313   0.83749   0.00000  Uiso   1.00
O1180  O     0.54421   0.84159   0.65877   0.00000  Uiso   1.00
O1181  O     0.50532   0.82802   0.83749   0.00000  Uiso   1.00
O1182  O     0.51182   0.74768   0.77821   0.00000  Uiso   1.00
O1183  O     0.47914   0.92803   0.76767   0.00000  Uiso   1.00
O1184  O     0.40785   0.79917   0.73607   0.00000  Uiso   1.00
O1185  O     0.60119   0.85845   0.71806   0.00000  Uiso   1.00
C1186  C     0.38570   0.82619   0.75924   0.00000  Uiso   1.00
C1187  C     0.61445   0.84092   0.74145   0.00000  Uiso   1.00
C1188  C     0.49007   0.72296   0.75816   0.00000  Uiso   1.00
C1189  C     0.50979   0.94437   0.74162   0.00000  Uiso   1.00
C1190  C     0.52162   0.81205   0.64389   0.00000  Uiso   1.00
C1191  C     0.47904   0.85479   0.85620   0.00000  Uiso   1.00
C1192  C     0.46519   0.85908   0.89975   0.00000  Uiso   1.00
C1193  C     0.53207   0.80312   0.60085   0.00000  Uiso   1.00
C1194  C     0.40496   0.85881   0.95999   0.00000  Uiso   1.00
C1195  C     0.42122   0.86134   0.91924   0.00000  Uiso   1.00
C1196  C     0.49391   0.85627   0.92183   0.00000  Uiso   1.00
C1197  C     0.47645   0.84400   0.96064   0.00000  Uiso   1.00
C1198  C     0.43218   0.84823   0.98069   0.00000  Uiso   1.00
C1199  C     0.50177   0.82705   0.97974   0.00000  Uiso   1.00
C1200  C     0.48593   0.82290   0.52095   0.00000  Uiso   1.00
C1201  C     0.44250   0.82939   0.54054   0.00000  Uiso   1.00
C1202  C     0.41588   0.84032   0.52042   0.00000  Uiso   1.00
C1203  C     0.54102   0.81114   0.95806   0.00000  Uiso   1.00
C1204  C     0.56689   0.79703   0.97697   0.00000  Uiso   1.00
C1205  C     0.55456   0.79841   0.51813   0.00000  Uiso   1.00
C1206  C     0.51372   0.81095   0.54070   0.00000  Uiso   1.00
C1207  C     0.58298   0.78745   0.53680   0.00000  Uiso   1.00
C1208  C     0.57235   0.78986   0.57815   0.00000  Uiso   1.00
C1209  C     0.50308   0.81284   0.58228   0.00000  Uiso   1.00
H1210  H     0.38215   0.84194   0.53644   0.00000  Uiso   1.00
H1211  H     0.47374   0.82465   0.60121   0.00000  Uiso   1.00
H1212  H     0.59720   0.78577   0.95928   0.00000  Uiso   1.00
H1213  H     0.39937   0.86539   0.90264   0.00000  Uiso   1.00
H1214  H     0.42730   0.82364   0.57094   0.00000  Uiso   1.00
H1215  H     0.55177   0.80844   0.92605   0.00000  Uiso   1.00
H1216  H     0.61386   0.77743   0.51905   0.00000  Uiso   1.00
C1217  C     0.66079   0.84514   0.73794   0.00000  Uiso   1.00
C1218  C     0.34073   0.82426   0.76117   0.00000  Uiso   1.00
H1219  H     0.65152   0.80406   0.78152   0.00000  Uiso   1.00
C1220  C     0.51236   0.98881   0.73956   0.00000  Uiso   1.00
H1221  H     0.53971   0.66919   0.71734   0.00000  Uiso   1.00
C1222  C     0.48272   0.67969   0.76376   0.00000  Uiso   1.00
N1223  N     0.35734   0.87152   0.71028   0.00000  Uiso   1.00
O1224  O     0.34584   0.90575   0.70406   0.00000  Uiso   1.00
O1225  O     0.39463   0.86000   0.68895   0.00000  Uiso   1.00
C1226  C     0.44260   0.99790   0.79595   0.00000  Uiso   1.00
C1227  C     0.41386   0.69833   0.81888   0.00000  Uiso   1.00
H1228  H     0.43229   0.72299   0.83431   0.00000  Uiso   1.00
H1229  H     0.40115   0.71225   0.79856   0.00000  Uiso   1.00
H1230  H     0.38590   0.68436   0.84151   0.00000  Uiso   1.00
H1231  H     0.42210   0.97376   0.78211   0.00000  Uiso   1.00
H1232  H     0.45301   0.98435   0.81804   0.00000  Uiso   1.00
N1233  N     0.60271   0.77903   0.59640   0.00000  Uiso   1.00
O1234  O     0.58931   0.76365   0.63026   0.00000  Uiso   1.00
O1235  O     0.64379   0.78095   0.57752   0.00000  Uiso   1.00
N1236  N     0.36049   0.86532   0.97928   0.00000  Uiso   1.00
O1237  O     0.66437   0.85188   0.96107   0.00000  Uiso   1.00
O1238  O     0.35077   0.89118   0.51129   0.00000  Uiso   1.00
N1239  N     0.53867   0.87394   0.90890   0.00000  Uiso   1.00
O1240  O     0.55663   0.89580   0.93467   0.00000  Uiso   1.00
O1241  O     0.56023   0.87268   0.87162   0.00000  Uiso   1.00
Zn1242 Zn    0.85910   0.80756   0.78278   0.00000  Uiso   1.00
Zn1243 Zn    0.80125   0.79044   0.72258   0.00000  Uiso   1.00
Zn1244 Zn    0.87833   0.86331   0.71188   0.00000  Uiso   1.00
Zn1245 Zn    0.79465   0.87202   0.78277   0.00000  Uiso   1.00
O1246  O     0.83333   0.83333   0.75000   0.00000  Uiso   1.00
O1247  O     0.73656   0.85627   0.77820   0.00000  Uiso   1.00
O1248  O     0.92106   0.81944   0.76768   0.00000  Uiso   1.00
O1249  O     0.80467   0.73570   0.73607   0.00000  Uiso   1.00
O1250  O     0.87104   0.92193   0.71805   0.00000  Uiso   1.00
O1251  O     0.82360   0.79060   0.66625   0.00000  Uiso   1.00
O1252  O     0.79354   0.87313   0.83749   0.00000  Uiso   1.00
O1253  O     0.87755   0.84159   0.65877   0.00000  Uiso   1.00
O1254  O     0.83865   0.82802   0.83749   0.00000  Uiso   1.00
O1255  O     0.84515   0.74768   0.77821   0.00000  Uiso   1.00
O1256  O     0.81247   0.92803   0.76767   0.00000  Uiso   1.00
O1257  O     0.74119   0.79917   0.73607   0.00000  Uiso   1.00
O1258  O     0.93452   0.85845   0.71806   0.00000  Uiso   1.00
C1259  C     0.71903   0.82619   0.75924   0.00000  Uiso   1.00
C1260  C     0.94778   0.84092   0.74145   0.00000  Uiso   1.00
C1261  C     0.82340   0.72296   0.75816   0.00000  Uiso   1.00
C1262  C     0.84313   0.94437   0.74162   0.00000  Uiso   1.00
C1263  C     0.85496   0.81205   0.64389   0.00000  Uiso   1.00
C1264  C     0.81237   0.85479   0.85620   0.00000  Uiso   1.00
C1265  C     0.79852   0.85908   0.89975   0.00000  Uiso   1.00
C1266  C     0.86540   0.80312   0.60085   0.00000  Uiso   1.00
C1267  C     0.73829   0.85881   0.95999   0.00000  Uiso   1.00
C1268  C     0.75455   0.86134   0.91924   0.00000  Uiso   1.00
C1269  C     0.82725   0.85627   0.92183   0.00000  Uiso   1.00
C1270  C     0.80979   0.84400   0.96064   0.00000  Uiso   1.00
C1271  C     0.76552   0.84823   0.98069   0.00000  Uiso   1.00
C1272  C     0.83510   0.82705   0.97974   0.00000  Uiso   1.00
C1273  C     0.81926   0.82290   0.52095   0.00000  Uiso   1.00
C1274  C     0.77583   0.82939   0.54054   0.00000  Uiso   1.00
C1275  C     0.74921   0.84032   0.52042   0.00000  Uiso   1.00
C1276  C     0.87436   0.81114   0.95806   0.00000  Uiso   1.00
C1277  C     0.90023   0.79703   0.97697   0.00000  Uiso   1.00
C1278  C     0.88790   0.79841   0.51813   0.00000  Uiso   1.00
C1279  C     0.84705   0.81095   0.54070   0.00000  Uiso   1.00
C1280  C     0.91632   0.78745   0.53680   0.00000  Uiso   1.00
C1281  C     0.90569   0.78986   0.57815   0.00000  Uiso   1.00
C1282  C     0.83642   0.81284   0.58228   0.00000  Uiso   1.00
H1283  H     0.71549   0.84194   0.53644   0.00000  Uiso   1.00
H1284  H     0.80708   0.82465   0.60121   0.00000  Uiso   1.00
H1285  H     0.93053   0.78577   0.95928   0.00000  Uiso   1.00
H1286  H     0.73270   0.86539   0.90264   0.00000  Uiso   1.00
H1287  H     0.76064   0.82364   0.57094   0.00000  Uiso   1.00
H1288  H     0.88510   0.80844   0.92605   0.00000  Uiso   1.00
H1289  H     0.94720   0.77743   0.51905   0.00000  Uiso   1.00
C1290  C     0.99412   0.84514   0.73794   0.00000  Uiso   1.00
C1291  C     0.67406   0.82426   0.76117   0.00000  Uiso   1.00
H1292  H     0.98485   0.80406   0.78152   0.00000  Uiso   1.00
C1293  C     0.84570   0.98881   0.73956   0.00000  Uiso   1.00
H1294  H     0.87305   0.66919   0.71734   0.00000  Uiso   1.00
C1295  C     0.81605   0.67969   0.76376   0.00000  Uiso   1.00
N1296  N     0.69067   0.87152   0.71028   0.00000  Uiso   1.00
O1297  O     0.67917   0.90575   0.70406   0.00000  Uiso   1.00
O1298  O     0.72796   0.86000   0.68895   0.00000  Uiso   1.00
C1299  C     0.77593   0.99790   0.79595   0.00000  Uiso   1.00
C1300  C     0.74719   0.69833   0.81888   0.00000  Uiso   1.00
H1301  H     0.76562   0.72299   0.83431   0.00000  Uiso   1.00
H1302  H     0.73448   0.71225   0.79856   0.00000  Uiso   1.00
H1303  H     0.71924   0.68436   0.84151   0.00000  Uiso   1.00
H1304  H     0.75543   0.97376   0.78211   0.00000  Uiso   1.00
H1305  H     0.78634   0.98435   0.81804   0.00000  Uiso   1.00
N1306  N     0.93605   0.77903   0.59640   0.00000  Uiso   1.00
O1307  O     0.92265   0.76365   0.63026   0.00000  Uiso   1.00
O1308  O     0.97712   0.78095   0.57752   0.00000  Uiso   1.00
N1309  N     0.69383   0.86532   0.97928   0.00000  Uiso   1.00
O1310  O     0.99771   0.85188   0.96107   0.00000  Uiso   1.00
O1311  O     0.68411   0.89118   0.51129   0.00000  Uiso   1.00
N1312  N     0.87201   0.87394   0.90890   0.00000  Uiso   1.00
O1313  O     0.88996   0.89580   0.93467   0.00000  Uiso   1.00
O1314  O     0.89356   0.87268   0.87162   0.00000  Uiso   1.00
loop_
_geom_bond_atom_site_label_1
_geom_bond_atom_site_label_2
_geom_bond_distance
_geom_bond_site_symmetry_2
_ccdc_geom_bond_type
Zn1    O14     1.939   .     S
Zn1    O5      1.965   .     S
Zn1    O7      1.921   .     S
Zn1    O13     1.912   .     S
Zn2    O16     1.924   .     S
Zn2    O5      1.944   .     S
Zn2    O8      1.949   .     S
Zn2    O10     1.917   .     S
Zn3    O9      1.941   .     S
Zn3    O17     1.938   .     S
Zn3    O12     1.924   .     S
Zn3    O5      1.930   .     S
Zn4    O15     1.943   .     S
Zn4    O5      1.927   .     S
Zn4    O11     1.931   .     S
Zn4    O6      1.933   .     S
O6     C18     1.271   .     A
O7     C19     1.284   .     A
O8     C20     1.274   .     A
O9     C21     1.277   .     A
O10    C22     1.279   .     A
O11    C23     1.285   .     A
O12    C22     1.275   .     A
O13    C23     1.287   .     A
O14    C20     1.274   .     A
O15    C21     1.255   .     A
O16    C18     1.266   .     A
O17    C19     1.280   .     A
C18    C50     1.437   .     S
C19    C49     1.463   .     S
C20    C54     1.434   .     S
C21    C52     1.456   .     S
C22    C25     1.460   .     S
C23    C24     1.470   .     S
C24    C27     1.400   .     A
C24    C28     1.409   .     A
C25    C40     1.412   .     A
C25    C41     1.397   .     A
C26    C30     1.416   .     A
C26    N68     1.438   .     S
C26    C27     1.397   .     A
C27    H45     1.084   .     S
C28    N71     1.448   .     S
C28    C29     1.420   .     A
C29    C30     1.422   .     A
C29    C31     1.425   .     A
C30    C691    1.402   .     S
C31    C35     1.411   .     A
C31    C689    1.421   .     S
C32    C38     1.426   .     A
C32    C33     1.410   .     A
C32    C688    1.421   1_554 S
C33    C34     1.389   .     A
C33    H46     1.078   .     S
C34    H42     1.081   .     S
C34    C687    1.402   1_554 S
C35    H47     1.081   .     S
C35    C36     1.386   .     A
C36    H44     1.084   .     S
C36    C694    1.393   .     S
C37    C38     1.418   .     A
C37    C39     1.401   .     A
C37    C693    1.393   1_554 S
C38    C41     1.409   .     A
C39    H48     1.084   .     S
C39    C40     1.400   .     A
C40    N65     1.442   .     S
C41    H43     1.079   .     S
C49    C123    1.343   .     S
C49    N128    1.446   .     S
C50    C195    1.343   1_455 S
C50    H197    1.086   1_455 S
H51    C123    1.086   .     S
C52    H272    1.088   .     S
C52    C273    1.354   .     S
H53    C490    1.088   1_545 S
C54    C490    1.354   1_545 S
C54    C496    1.531   1_545 S
N55    O56     1.301   .     A
N55    O57     1.302   .     A
N55    C195    1.446   1_455 S
C58    H64     1.111   .     S
C58    H63     1.112   .     S
C58    C273    1.531   .     S
C58    C278    1.533   .     S
C59    H60     1.111   .     S
C59    H61     1.111   .     S
C59    H62     1.111   .     S
C59    C496    1.533   1_545 S
N65    O66     1.302   .     A
N65    O67     1.302   .     A
N68    O215    1.301   1_455 S
N68    O727    1.301   .     S
O69    N141    1.301   .     S
O70    N725    1.301   1_554 S
N71    O73     1.300   .     A
N71    O72     1.302   .     A
Zn74   O87     1.939   .     S
Zn74   O78     1.965   .     S
Zn74   O80     1.921   .     S
Zn74   O86     1.912   .     S
Zn75   O89     1.924   .     S
Zn75   O78     1.944   .     S
Zn75   O81     1.949   .     S
Zn75   O83     1.917   .     S
Zn76   O82     1.941   .     S
Zn76   O90     1.938   .     S
Zn76   O85     1.924   .     S
Zn76   O78     1.930   .     S
Zn77   O88     1.943   .     S
Zn77   O78     1.927   .     S
Zn77   O84     1.931   .     S
Zn77   O79     1.933   .     S
O79    C91     1.271   .     A
O80    C92     1.284   .     A
O81    C93     1.274   .     A
O82    C94     1.277   .     A
O83    C95     1.279   .     A
O84    C96     1.285   .     A
O85    C95     1.275   .     A
O86    C96     1.287   .     A
O87    C93     1.274   .     A
O88    C94     1.255   .     A
O89    C91     1.266   .     A
O90    C92     1.280   .     A
C91    C123    1.437   .     S
C92    C122    1.463   .     S
C93    C127    1.434   .     S
C94    C125    1.456   .     S
C95    C98     1.460   .     S
C96    C97     1.470   .     S
C97    C100    1.400   .     A
C97    C101    1.409   .     A
C98    C113    1.412   .     A
C98    C114    1.397   .     A
C99    C103    1.416   .     A
C99    N141    1.438   .     S
C99    C100    1.397   .     A
C100   H118    1.084   .     S
C101   N144    1.448   .     S
C101   C102    1.420   .     A
C102   C103    1.422   .     A
C102   C104    1.425   .     A
C103   C764    1.402   .     S
C104   C108    1.411   .     A
C104   C762    1.421   .     S
C105   C111    1.426   .     A
C105   C106    1.410   .     A
C105   C761    1.421   1_554 S
C106   C107    1.389   .     A
C106   H119    1.078   .     S
C107   H115    1.081   .     S
C107   C760    1.402   1_554 S
C108   H120    1.081   .     S
C108   C109    1.386   .     A
C109   H117    1.084   .     S
C109   C767    1.393   .     S
C110   C111    1.418   .     A
C110   C112    1.401   .     A
C110   C766    1.393   1_554 S
C111   C114    1.409   .     A
C112   H121    1.084   .     S
C112   C113    1.400   .     A
C113   N138    1.442   .     S
C114   H116    1.079   .     S
C122   C196    1.343   .     S
C122   N201    1.446   .     S
H124   C196    1.086   .     S
C125   H345    1.088   .     S
C125   C346    1.354   .     S
H126   C563    1.088   1_545 S
C127   C563    1.354   1_545 S
C127   C569    1.531   1_545 S
N128   O129    1.301   .     A
N128   O130    1.302   .     A
C131   H137    1.111   .     S
C131   H136    1.112   .     S
C131   C346    1.531   .     S
C131   C351    1.533   .     S
C132   H133    1.111   .     S
C132   H134    1.111   .     S
C132   H135    1.111   .     S
C132   C569    1.533   1_545 S
N138   O139    1.302   .     A
N138   O140    1.302   .     A
N141   O800    1.301   .     S
O142   N214    1.301   .     S
O143   N798    1.301   1_554 S
N144   O146    1.300   .     A
N144   O145    1.302   .     A
Zn147  O160    1.939   .     S
Zn147  O151    1.965   .     S
Zn147  O153    1.921   .     S
Zn147  O159    1.912   .     S
Zn148  O162    1.924   .     S
Zn148  O151    1.944   .     S
Zn148  O154    1.949   .     S
Zn148  O156    1.917   .     S
Zn149  O155    1.941   .     S
Zn149  O163    1.938   .     S
Zn149  O158    1.924   .     S
Zn149  O151    1.930   .     S
Zn150  O161    1.943   .     S
Zn150  O151    1.927   .     S
Zn150  O157    1.931   .     S
Zn150  O152    1.933   .     S
O152   C164    1.271   .     A
O153   C165    1.284   .     A
O154   C166    1.274   .     A
O155   C167    1.277   .     A
O156   C168    1.279   .     A
O157   C169    1.285   .     A
O158   C168    1.275   .     A
O159   C169    1.287   .     A
O160   C166    1.274   .     A
O161   C167    1.255   .     A
O162   C164    1.266   .     A
O163   C165    1.280   .     A
C164   C196    1.437   .     S
C165   C195    1.463   .     S
C166   C200    1.434   .     S
C167   C198    1.456   .     S
C168   C171    1.460   .     S
C169   C170    1.470   .     S
C170   C173    1.400   .     A
C170   C174    1.409   .     A
C171   C186    1.412   .     A
C171   C187    1.397   .     A
C172   C176    1.416   .     A
C172   N214    1.438   .     S
C172   C173    1.397   .     A
C173   H191    1.084   .     S
C174   N217    1.448   .     S
C174   C175    1.420   .     A
C175   C176    1.422   .     A
C175   C177    1.425   .     A
C176   C837    1.402   .     S
C177   C181    1.411   .     A
C177   C835    1.421   .     S
C178   C184    1.426   .     A
C178   C179    1.410   .     A
C178   C834    1.421   1_554 S
C179   C180    1.389   .     A
C179   H192    1.078   .     S
C180   H188    1.081   .     S
C180   C833    1.402   1_554 S
C181   H193    1.081   .     S
C181   C182    1.386   .     A
C182   H190    1.084   .     S
C182   C840    1.393   .     S
C183   C184    1.418   .     A
C183   C185    1.401   .     A
C183   C839    1.393   1_554 S
C184   C187    1.409   .     A
C185   H194    1.084   .     S
C185   C186    1.400   .     A
C186   N211    1.442   .     S
C187   H189    1.079   .     S
C195   C50     1.343   1_655 S
C195   N55     1.446   1_655 S
H197   C50     1.086   1_655 S
C198   H418    1.088   .     S
C198   C419    1.354   .     S
H199   C636    1.088   1_545 S
C200   C636    1.354   1_545 S
C200   C642    1.531   1_545 S
N201   O202    1.301   .     A
N201   O203    1.302   .     A
C204   H210    1.111   .     S
C204   H209    1.112   .     S
C204   C419    1.531   .     S
C204   C424    1.533   .     S
C205   H206    1.111   .     S
C205   H207    1.111   .     S
C205   H208    1.111   .     S
C205   C642    1.533   1_545 S
N211   O212    1.302   .     A
N211   O213    1.302   .     A
N214   O873    1.301   .     S
O215   N68     1.301   1_655 S
O216   N871    1.301   1_554 S
N217   O219    1.300   .     A
N217   O218    1.302   .     A
Zn220  O233    1.939   .     S
Zn220  O224    1.965   .     S
Zn220  O226    1.921   .     S
Zn220  O232    1.912   .     S
Zn221  O235    1.924   .     S
Zn221  O224    1.944   .     S
Zn221  O227    1.949   .     S
Zn221  O229    1.917   .     S
Zn222  O228    1.941   .     S
Zn222  O236    1.938   .     S
Zn222  O231    1.924   .     S
Zn222  O224    1.930   .     S
Zn223  O234    1.943   .     S
Zn223  O224    1.927   .     S
Zn223  O230    1.931   .     S
Zn223  O225    1.933   .     S
O225   C237    1.271   .     A
O226   C238    1.284   .     A
O227   C239    1.274   .     A
O228   C240    1.277   .     A
O229   C241    1.279   .     A
O230   C242    1.285   .     A
O231   C241    1.275   .     A
O232   C242    1.287   .     A
O233   C239    1.274   .     A
O234   C240    1.255   .     A
O235   C237    1.266   .     A
O236   C238    1.280   .     A
C237   C269    1.437   .     S
C238   C268    1.463   .     S
C239   C273    1.434   .     S
C240   C271    1.456   .     S
C241   C244    1.460   .     S
C242   C243    1.470   .     S
C243   C246    1.400   .     A
C243   C247    1.409   .     A
C244   C259    1.412   .     A
C244   C260    1.397   .     A
C245   C249    1.416   .     A
C245   N287    1.438   .     S
C245   C246    1.397   .     A
C246   H264    1.084   .     S
C247   N290    1.448   .     S
C247   C248    1.420   .     A
C248   C249    1.422   .     A
C248   C250    1.425   .     A
C249   C910    1.402   .     S
C250   C254    1.411   .     A
C250   C908    1.421   .     S
C251   C257    1.426   .     A
C251   C252    1.410   .     A
C251   C907    1.421   1_554 S
C252   C253    1.389   .     A
C252   H265    1.078   .     S
C253   H261    1.081   .     S
C253   C906    1.402   1_554 S
C254   H266    1.081   .     S
C254   C255    1.386   .     A
C255   H263    1.084   .     S
C255   C913    1.393   .     S
C256   C257    1.418   .     A
C256   C258    1.401   .     A
C256   C912    1.393   1_554 S
C257   C260    1.409   .     A
C258   H267    1.084   .     S
C258   C259    1.400   .     A
C259   N284    1.442   .     S
C260   H262    1.079   .     S
C268   C342    1.343   .     S
C268   N347    1.446   .     S
C269   C414    1.343   1_455 S
C269   H416    1.086   1_455 S
H270   C342    1.086   .     S
C271   H491    1.088   .     S
C271   C492    1.354   .     S
N274   O275    1.301   .     A
N274   O276    1.302   .     A
N274   C414    1.446   1_455 S
C277   H283    1.111   .     S
C277   H282    1.112   .     S
C277   C492    1.531   .     S
C277   C497    1.533   .     S
C278   H279    1.111   .     S
C278   H280    1.111   .     S
C278   H281    1.111   .     S
N284   O285    1.302   .     A
N284   O286    1.302   .     A
N287   O434    1.301   1_455 S
N287   O946    1.301   .     S
O288   N360    1.301   .     S
O289   N944    1.301   1_554 S
N290   O292    1.300   .     A
N290   O291    1.302   .     A
Zn293  O306    1.939   .     S
Zn293  O297    1.965   .     S
Zn293  O299    1.921   .     S
Zn293  O305    1.912   .     S
Zn294  O308    1.924   .     S
Zn294  O297    1.944   .     S
Zn294  O300    1.949   .     S
Zn294  O302    1.917   .     S
Zn295  O301    1.941   .     S
Zn295  O309    1.938   .     S
Zn295  O304    1.924   .     S
Zn295  O297    1.930   .     S
Zn296  O307    1.943   .     S
Zn296  O297    1.927   .     S
Zn296  O303    1.931   .     S
Zn296  O298    1.933   .     S
O298   C310    1.271   .     A
O299   C311    1.284   .     A
O300   C312    1.274   .     A
O301   C313    1.277   .     A
O302   C314    1.279   .     A
O303   C315    1.285   .     A
O304   C314    1.275   .     A
O305   C315    1.287   .     A
O306   C312    1.274   .     A
O307   C313    1.255   .     A
O308   C310    1.266   .     A
O309   C311    1.280   .     A
C310   C342    1.437   .     S
C311   C341    1.463   .     S
C312   C346    1.434   .     S
C313   C344    1.456   .     S
C314   C317    1.460   .     S
C315   C316    1.470   .     S
C316   C319    1.400   .     A
C316   C320    1.409   .     A
C317   C332    1.412   .     A
C317   C333    1.397   .     A
C318   C322    1.416   .     A
C318   N360    1.438   .     S
C318   C319    1.397   .     A
C319   H337    1.084   .     S
C320   N363    1.448   .     S
C320   C321    1.420   .     A
C321   C322    1.422   .     A
C321   C323    1.425   .     A
C322   C983    1.402   .     S
C323   C327    1.411   .     A
C323   C981    1.421   .     S
C324   C330    1.426   .     A
C324   C325    1.410   .     A
C324   C980    1.421   1_554 S
C325   C326    1.389   .     A
C325   H338    1.078   .     S
C326   H334    1.081   .     S
C326   C979    1.402   1_554 S
C327   H339    1.081   .     S
C327   C328    1.386   .     A
C328   H336    1.084   .     S
C328   C986    1.393   .     S
C329   C330    1.418   .     A
C329   C331    1.401   .     A
C329   C985    1.393   1_554 S
C330   C333    1.409   .     A
C331   H340    1.084   .     S
C331   C332    1.400   .     A
C332   N357    1.442   .     S
C333   H335    1.079   .     S
C341   C415    1.343   .     S
C341   N420    1.446   .     S
H343   C415    1.086   .     S
C344   H564    1.088   .     S
C344   C565    1.354   .     S
N347   O348    1.301   .     A
N347   O349    1.302   .     A
C350   H356    1.111   .     S
C350   H355    1.112   .     S
C350   C565    1.531   .     S
C350   C570    1.533   .     S
C351   H352    1.111   .     S
C351   H353    1.111   .     S
C351   H354    1.111   .     S
N357   O358    1.302   .     A
N357   O359    1.302   .     A
N360   O1019   1.301   .     S
O361   N433    1.301   .     S
O362   N1017   1.301   1_554 S
N363   O365    1.300   .     A
N363   O364    1.302   .     A
Zn366  O379    1.939   .     S
Zn366  O370    1.965   .     S
Zn366  O372    1.921   .     S
Zn366  O378    1.912   .     S
Zn367  O381    1.924   .     S
Zn367  O370    1.944   .     S
Zn367  O373    1.949   .     S
Zn367  O375    1.917   .     S
Zn368  O374    1.941   .     S
Zn368  O382    1.938   .     S
Zn368  O377    1.924   .     S
Zn368  O370    1.930   .     S
Zn369  O380    1.943   .     S
Zn369  O370    1.927   .     S
Zn369  O376    1.931   .     S
Zn369  O371    1.933   .     S
O371   C383    1.271   .     A
O372   C384    1.284   .     A
O373   C385    1.274   .     A
O374   C386    1.277   .     A
O375   C387    1.279   .     A
O376   C388    1.285   .     A
O377   C387    1.275   .     A
O378   C388    1.287   .     A
O379   C385    1.274   .     A
O380   C386    1.255   .     A
O381   C383    1.266   .     A
O382   C384    1.280   .     A
C383   C415    1.437   .     S
C384   C414    1.463   .     S
C385   C419    1.434   .     S
C386   C417    1.456   .     S
C387   C390    1.460   .     S
C388   C389    1.470   .     S
C389   C392    1.400   .     A
C389   C393    1.409   .     A
C390   C405    1.412   .     A
C390   C406    1.397   .     A
C391   C395    1.416   .     A
C391   N433    1.438   .     S
C391   C392    1.397   .     A
C392   H410    1.084   .     S
C393   N436    1.448   .     S
C393   C394    1.420   .     A
C394   C395    1.422   .     A
C394   C396    1.425   .     A
C395   C1056   1.402   .     S
C396   C400    1.411   .     A
C396   C1054   1.421   .     S
C397   C403    1.426   .     A
C397   C398    1.410   .     A
C397   C1053   1.421   1_554 S
C398   C399    1.389   .     A
C398   H411    1.078   .     S
C399   H407    1.081   .     S
C399   C1052   1.402   1_554 S
C400   H412    1.081   .     S
C400   C401    1.386   .     A
C401   H409    1.084   .     S
C401   C1059   1.393   .     S
C402   C403    1.418   .     A
C402   C404    1.401   .     A
C402   C1058   1.393   1_554 S
C403   C406    1.409   .     A
C404   H413    1.084   .     S
C404   C405    1.400   .     A
C405   N430    1.442   .     S
C406   H408    1.079   .     S
C414   C269    1.343   1_655 S
C414   N274    1.446   1_655 S
H416   C269    1.086   1_655 S
C417   H637    1.088   .     S
C417   C638    1.354   .     S
N420   O421    1.301   .     A
N420   O422    1.302   .     A
C423   H429    1.111   .     S
C423   H428    1.112   .     S
C423   C638    1.531   .     S
C423   C643    1.533   .     S
C424   H425    1.111   .     S
C424   H426    1.111   .     S
C424   H427    1.111   .     S
N430   O431    1.302   .     A
N430   O432    1.302   .     A
N433   O1092   1.301   .     S
O434   N287    1.301   1_655 S
O435   N1090   1.301   1_554 S
N436   O438    1.300   .     A
N436   O437    1.302   .     A
Zn439  O452    1.939   .     S
Zn439  O443    1.965   .     S
Zn439  O445    1.921   .     S
Zn439  O451    1.912   .     S
Zn440  O454    1.924   .     S
Zn440  O443    1.944   .     S
Zn440  O446    1.949   .     S
Zn440  O448    1.917   .     S
Zn441  O447    1.941   .     S
Zn441  O455    1.938   .     S
Zn441  O450    1.924   .     S
Zn441  O443    1.930   .     S
Zn442  O453    1.943   .     S
Zn442  O443    1.927   .     S
Zn442  O449    1.931   .     S
Zn442  O444    1.933   .     S
O444   C456    1.271   .     A
O445   C457    1.284   .     A
O446   C458    1.274   .     A
O447   C459    1.277   .     A
O448   C460    1.279   .     A
O449   C461    1.285   .     A
O450   C460    1.275   .     A
O451   C461    1.287   .     A
O452   C458    1.274   .     A
O453   C459    1.255   .     A
O454   C456    1.266   .     A
O455   C457    1.280   .     A
C456   C488    1.437   .     S
C457   C487    1.463   .     S
C458   C492    1.434   .     S
C459   C490    1.456   .     S
C460   C463    1.460   .     S
C461   C462    1.470   .     S
C462   C465    1.400   .     A
C462   C466    1.409   .     A
C463   C478    1.412   .     A
C463   C479    1.397   .     A
C464   C468    1.416   .     A
C464   N506    1.438   .     S
C464   C465    1.397   .     A
C465   H483    1.084   .     S
C466   N509    1.448   .     S
C466   C467    1.420   .     A
C467   C468    1.422   .     A
C467   C469    1.425   .     A
C468   C1129   1.402   .     S
C469   C473    1.411   .     A
C469   C1127   1.421   .     S
C470   C476    1.426   .     A
C470   C471    1.410   .     A
C470   C1126   1.421   1_554 S
C471   C472    1.389   .     A
C471   H484    1.078   .     S
C472   H480    1.081   .     S
C472   C1125   1.402   1_554 S
C473   H485    1.081   .     S
C473   C474    1.386   .     A
C474   H482    1.084   .     S
C474   C1132   1.393   .     S
C475   C476    1.418   .     A
C475   C477    1.401   .     A
C475   C1131   1.393   1_554 S
C476   C479    1.409   .     A
C477   H486    1.084   .     S
C477   C478    1.400   .     A
C478   N503    1.442   .     S
C479   H481    1.079   .     S
C487   C561    1.343   .     S
C487   N566    1.446   .     S
C488   C633    1.343   1_455 S
C488   H635    1.086   1_455 S
H489   C561    1.086   .     S
C490   H53     1.088   1_565 S
C490   C54     1.354   1_565 S
N493   O494    1.301   .     A
N493   O495    1.302   .     A
N493   C633    1.446   1_455 S
C496   H502    1.111   .     S
C496   H501    1.112   .     S
C496   C54     1.531   1_565 S
C496   C59     1.533   1_565 S
C497   H498    1.111   .     S
C497   H499    1.111   .     S
C497   H500    1.111   .     S
N503   O504    1.302   .     A
N503   O505    1.302   .     A
N506   O653    1.301   1_455 S
N506   O1165   1.301   .     S
O507   N579    1.301   .     S
O508   N1163   1.301   1_554 S
N509   O511    1.300   .     A
N509   O510    1.302   .     A
Zn512  O525    1.939   .     S
Zn512  O516    1.965   .     S
Zn512  O518    1.921   .     S
Zn512  O524    1.912   .     S
Zn513  O527    1.924   .     S
Zn513  O516    1.944   .     S
Zn513  O519    1.949   .     S
Zn513  O521    1.917   .     S
Zn514  O520    1.941   .     S
Zn514  O528    1.938   .     S
Zn514  O523    1.924   .     S
Zn514  O516    1.930   .     S
Zn515  O526    1.943   .     S
Zn515  O516    1.927   .     S
Zn515  O522    1.931   .     S
Zn515  O517    1.933   .     S
O517   C529    1.271   .     A
O518   C530    1.284   .     A
O519   C531    1.274   .     A
O520   C532    1.277   .     A
O521   C533    1.279   .     A
O522   C534    1.285   .     A
O523   C533    1.275   .     A
O524   C534    1.287   .     A
O525   C531    1.274   .     A
O526   C532    1.255   .     A
O527   C529    1.266   .     A
O528   C530    1.280   .     A
C529   C561    1.437   .     S
C530   C560    1.463   .     S
C531   C565    1.434   .     S
C532   C563    1.456   .     S
C533   C536    1.460   .     S
C534   C535    1.470   .     S
C535   C538    1.400   .     A
C535   C539    1.409   .     A
C536   C551    1.412   .     A
C536   C552    1.397   .     A
C537   C541    1.416   .     A
C537   N579    1.438   .     S
C537   C538    1.397   .     A
C538   H556    1.084   .     S
C539   N582    1.448   .     S
C539   C540    1.420   .     A
C540   C541    1.422   .     A
C540   C542    1.425   .     A
C541   C1202   1.402   .     S
C542   C546    1.411   .     A
C542   C1200   1.421   .     S
C543   C549    1.426   .     A
C543   C544    1.410   .     A
C543   C1199   1.421   1_554 S
C544   C545    1.389   .     A
C544   H557    1.078   .     S
C545   H553    1.081   .     S
C545   C1198   1.402   1_554 S
C546   H558    1.081   .     S
C546   C547    1.386   .     A
C547   H555    1.084   .     S
C547   C1205   1.393   .     S
C548   C549    1.418   .     A
C548   C550    1.401   .     A
C548   C1204   1.393   1_554 S
C549   C552    1.409   .     A
C550   H559    1.084   .     S
C550   C551    1.400   .     A
C551   N576    1.442   .     S
C552   H554    1.079   .     S
C560   C634    1.343   .     S
C560   N639    1.446   .     S
H562   C634    1.086   .     S
C563   H126    1.088   1_565 S
C563   C127    1.354   1_565 S
N566   O567    1.301   .     A
N566   O568    1.302   .     A
C569   H575    1.111   .     S
C569   H574    1.112   .     S
C569   C127    1.531   1_565 S
C569   C132    1.533   1_565 S
C570   H571    1.111   .     S
C570   H572    1.111   .     S
C570   H573    1.111   .     S
N576   O577    1.302   .     A
N576   O578    1.302   .     A
N579   O1238   1.301   .     S
O580   N652    1.301   .     S
O581   N1236   1.301   1_554 S
N582   O584    1.300   .     A
N582   O583    1.302   .     A
Zn585  O598    1.939   .     S
Zn585  O589    1.965   .     S
Zn585  O591    1.921   .     S
Zn585  O597    1.912   .     S
Zn586  O600    1.924   .     S
Zn586  O589    1.944   .     S
Zn586  O592    1.949   .     S
Zn586  O594    1.917   .     S
Zn587  O593    1.941   .     S
Zn587  O601    1.938   .     S
Zn587  O596    1.924   .     S
Zn587  O589    1.930   .     S
Zn588  O599    1.943   .     S
Zn588  O589    1.927   .     S
Zn588  O595    1.931   .     S
Zn588  O590    1.933   .     S
O590   C602    1.271   .     A
O591   C603    1.284   .     A
O592   C604    1.274   .     A
O593   C605    1.277   .     A
O594   C606    1.279   .     A
O595   C607    1.285   .     A
O596   C606    1.275   .     A
O597   C607    1.287   .     A
O598   C604    1.274   .     A
O599   C605    1.255   .     A
O600   C602    1.266   .     A
O601   C603    1.280   .     A
C602   C634    1.437   .     S
C603   C633    1.463   .     S
C604   C638    1.434   .     S
C605   C636    1.456   .     S
C606   C609    1.460   .     S
C607   C608    1.470   .     S
C608   C611    1.400   .     A
C608   C612    1.409   .     A
C609   C624    1.412   .     A
C609   C625    1.397   .     A
C610   C614    1.416   .     A
C610   N652    1.438   .     S
C610   C611    1.397   .     A
C611   H629    1.084   .     S
C612   N655    1.448   .     S
C612   C613    1.420   .     A
C613   C614    1.422   .     A
C613   C615    1.425   .     A
C614   C1275   1.402   .     S
C615   C619    1.411   .     A
C615   C1273   1.421   .     S
C616   C622    1.426   .     A
C616   C617    1.410   .     A
C616   C1272   1.421   1_554 S
C617   C618    1.389   .     A
C617   H630    1.078   .     S
C618   H626    1.081   .     S
C618   C1271   1.402   1_554 S
C619   H631    1.081   .     S
C619   C620    1.386   .     A
C620   H628    1.084   .     S
C620   C1278   1.393   .     S
C621   C622    1.418   .     A
C621   C623    1.401   .     A
C621   C1277   1.393   1_554 S
C622   C625    1.409   .     A
C623   H632    1.084   .     S
C623   C624    1.400   .     A
C624   N649    1.442   .     S
C625   H627    1.079   .     S
C633   C488    1.343   1_655 S
C633   N493    1.446   1_655 S
H635   C488    1.086   1_655 S
C636   H199    1.088   1_565 S
C636   C200    1.354   1_565 S
N639   O640    1.301   .     A
N639   O641    1.302   .     A
C642   H648    1.111   .     S
C642   H647    1.112   .     S
C642   C200    1.531   1_565 S
C642   C205    1.533   1_565 S
C643   H644    1.111   .     S
C643   H645    1.111   .     S
C643   H646    1.111   .     S
N649   O650    1.302   .     A
N649   O651    1.302   .     A
N652   O1311   1.301   .     S
O653   N506    1.301   1_655 S
O654   N1309   1.301   1_554 S
N655   O657    1.300   .     A
N655   O656    1.302   .     A
Zn658  O671    1.939   .     S
Zn658  O662    1.965   .     S
Zn658  O664    1.921   .     S
Zn658  O670    1.912   .     S
Zn659  O673    1.924   .     S
Zn659  O662    1.944   .     S
Zn659  O665    1.949   .     S
Zn659  O667    1.917   .     S
Zn660  O666    1.941   .     S
Zn660  O674    1.938   .     S
Zn660  O669    1.924   .     S
Zn660  O662    1.930   .     S
Zn661  O672    1.943   .     S
Zn661  O662    1.927   .     S
Zn661  O668    1.931   .     S
Zn661  O663    1.933   .     S
O663   C675    1.271   .     A
O664   C676    1.284   .     A
O665   C677    1.274   .     A
O666   C678    1.277   .     A
O667   C679    1.279   .     A
O668   C680    1.285   .     A
O669   C679    1.275   .     A
O670   C680    1.287   .     A
O671   C677    1.274   .     A
O672   C678    1.255   .     A
O673   C675    1.266   .     A
O674   C676    1.280   .     A
C675   C707    1.437   .     S
C676   C706    1.463   .     S
C677   C711    1.434   .     S
C678   C709    1.456   .     S
C679   C682    1.460   .     S
C680   C681    1.470   .     S
C681   C684    1.400   .     A
C681   C685    1.409   .     A
C682   C697    1.412   .     A
C682   C698    1.397   .     A
C683   C687    1.416   .     A
C683   N725    1.438   .     S
C683   C684    1.397   .     A
C684   H702    1.084   .     S
C685   N728    1.448   .     S
C685   C686    1.420   .     A
C686   C687    1.422   .     A
C686   C688    1.425   .     A
C687   C34     1.402   1_556 S
C688   C692    1.411   .     A
C688   C32     1.421   1_556 S
C689   C695    1.426   .     A
C689   C690    1.410   .     A
C690   C691    1.389   .     A
C690   H703    1.078   .     S
C691   H699    1.081   .     S
C692   H704    1.081   .     S
C692   C693    1.386   .     A
C693   H701    1.084   .     S
C693   C37     1.393   1_556 S
C694   C695    1.418   .     A
C694   C696    1.401   .     A
C695   C698    1.409   .     A
C696   H705    1.084   .     S
C696   C697    1.400   .     A
C697   N722    1.442   .     S
C698   H700    1.079   .     S
C706   C780    1.343   .     S
C706   N785    1.446   .     S
C707   C852    1.343   1_455 S
C707   H854    1.086   1_455 S
H708   C780    1.086   .     S
C709   H929    1.088   .     S
C709   C930    1.354   .     S
H710   C1147   1.088   1_545 S
C711   C1147   1.354   1_545 S
C711   C1153   1.531   1_545 S
N712   O713    1.301   .     A
N712   O714    1.302   .     A
N712   C852    1.446   1_455 S
C715   H721    1.111   .     S
C715   H720    1.112   .     S
C715   C930    1.531   .     S
C715   C935    1.533   .     S
C716   H717    1.111   .     S
C716   H718    1.111   .     S
C716   H719    1.111   .     S
C716   C1153   1.533   1_545 S
N722   O723    1.302   .     A
N722   O724    1.302   .     A
N725   O872    1.301   1_455 S
N725   O70     1.301   1_556 S
O726   N798    1.301   .     S
N728   O730    1.300   .     A
N728   O729    1.302   .     A
Zn731  O744    1.939   .     S
Zn731  O735    1.965   .     S
Zn731  O737    1.921   .     S
Zn731  O743    1.912   .     S
Zn732  O746    1.924   .     S
Zn732  O735    1.944   .     S
Zn732  O738    1.949   .     S
Zn732  O740    1.917   .     S
Zn733  O739    1.941   .     S
Zn733  O747    1.938   .     S
Zn733  O742    1.924   .     S
Zn733  O735    1.930   .     S
Zn734  O745    1.943   .     S
Zn734  O735    1.927   .     S
Zn734  O741    1.931   .     S
Zn734  O736    1.933   .     S
O736   C748    1.271   .     A
O737   C749    1.284   .     A
O738   C750    1.274   .     A
O739   C751    1.277   .     A
O740   C752    1.279   .     A
O741   C753    1.285   .     A
O742   C752    1.275   .     A
O743   C753    1.287   .     A
O744   C750    1.274   .     A
O745   C751    1.255   .     A
O746   C748    1.266   .     A
O747   C749    1.280   .     A
C748   C780    1.437   .     S
C749   C779    1.463   .     S
C750   C784    1.434   .     S
C751   C782    1.456   .     S
C752   C755    1.460   .     S
C753   C754    1.470   .     S
C754   C757    1.400   .     A
C754   C758    1.409   .     A
C755   C770    1.412   .     A
C755   C771    1.397   .     A
C756   C760    1.416   .     A
C756   N798    1.438   .     S
C756   C757    1.397   .     A
C757   H775    1.084   .     S
C758   N801    1.448   .     S
C758   C759    1.420   .     A
C759   C760    1.422   .     A
C759   C761    1.425   .     A
C760   C107    1.402   1_556 S
C761   C765    1.411   .     A
C761   C105    1.421   1_556 S
C762   C768    1.426   .     A
C762   C763    1.410   .     A
C763   C764    1.389   .     A
C763   H776    1.078   .     S
C764   H772    1.081   .     S
C765   H777    1.081   .     S
C765   C766    1.386   .     A
C766   H774    1.084   .     S
C766   C110    1.393   1_556 S
C767   C768    1.418   .     A
C767   C769    1.401   .     A
C768   C771    1.409   .     A
C769   H778    1.084   .     S
C769   C770    1.400   .     A
C770   N795    1.442   .     S
C771   H773    1.079   .     S
C779   C853    1.343   .     S
C779   N858    1.446   .     S
H781   C853    1.086   .     S
C782   H1002   1.088   .     S
C782   C1003   1.354   .     S
H783   C1220   1.088   1_545 S
C784   C1220   1.354   1_545 S
C784   C1226   1.531   1_545 S
N785   O786    1.301   .     A
N785   O787    1.302   .     A
C788   H794    1.111   .     S
C788   H793    1.112   .     S
C788   C1003   1.531   .     S
C788   C1008   1.533   .     S
C789   H790    1.111   .     S
C789   H791    1.111   .     S
C789   H792    1.111   .     S
C789   C1226   1.533   1_545 S
N795   O796    1.302   .     A
N795   O797    1.302   .     A
N798   O143    1.301   1_556 S
O799   N871    1.301   .     S
N801   O803    1.300   .     A
N801   O802    1.302   .     A
Zn804  O817    1.939   .     S
Zn804  O808    1.965   .     S
Zn804  O810    1.921   .     S
Zn804  O816    1.912   .     S
Zn805  O819    1.924   .     S
Zn805  O808    1.944   .     S
Zn805  O811    1.949   .     S
Zn805  O813    1.917   .     S
Zn806  O812    1.941   .     S
Zn806  O820    1.938   .     S
Zn806  O815    1.924   .     S
Zn806  O808    1.930   .     S
Zn807  O818    1.943   .     S
Zn807  O808    1.927   .     S
Zn807  O814    1.931   .     S
Zn807  O809    1.933   .     S
O809   C821    1.271   .     A
O810   C822    1.284   .     A
O811   C823    1.274   .     A
O812   C824    1.277   .     A
O813   C825    1.279   .     A
O814   C826    1.285   .     A
O815   C825    1.275   .     A
O816   C826    1.287   .     A
O817   C823    1.274   .     A
O818   C824    1.255   .     A
O819   C821    1.266   .     A
O820   C822    1.280   .     A
C821   C853    1.437   .     S
C822   C852    1.463   .     S
C823   C857    1.434   .     S
C824   C855    1.456   .     S
C825   C828    1.460   .     S
C826   C827    1.470   .     S
C827   C830    1.400   .     A
C827   C831    1.409   .     A
C828   C843    1.412   .     A
C828   C844    1.397   .     A
C829   C833    1.416   .     A
C829   N871    1.438   .     S
C829   C830    1.397   .     A
C830   H848    1.084   .     S
C831   N874    1.448   .     S
C831   C832    1.420   .     A
C832   C833    1.422   .     A
C832   C834    1.425   .     A
C833   C180    1.402   1_556 S
C834   C838    1.411   .     A
C834   C178    1.421   1_556 S
C835   C841    1.426   .     A
C835   C836    1.410   .     A
C836   C837    1.389   .     A
C836   H849    1.078   .     S
C837   H845    1.081   .     S
C838   H850    1.081   .     S
C838   C839    1.386   .     A
C839   H847    1.084   .     S
C839   C183    1.393   1_556 S
C840   C841    1.418   .     A
C840   C842    1.401   .     A
C841   C844    1.409   .     A
C842   H851    1.084   .     S
C842   C843    1.400   .     A
C843   N868    1.442   .     S
C844   H846    1.079   .     S
C852   C707    1.343   1_655 S
C852   N712    1.446   1_655 S
H854   C707    1.086   1_655 S
C855   H1075   1.088   .     S
C855   C1076   1.354   .     S
H856   C1293   1.088   1_545 S
C857   C1293   1.354   1_545 S
C857   C1299   1.531   1_545 S
N858   O859    1.301   .     A
N858   O860    1.302   .     A
C861   H867    1.111   .     S
C861   H866    1.112   .     S
C861   C1076   1.531   .     S
C861   C1081   1.533   .     S
C862   H863    1.111   .     S
C862   H864    1.111   .     S
C862   H865    1.111   .     S
C862   C1299   1.533   1_545 S
N868   O869    1.302   .     A
N868   O870    1.302   .     A
N871   O216    1.301   1_556 S
O872   N725    1.301   1_655 S
N874   O876    1.300   .     A
N874   O875    1.302   .     A
Zn877  O890    1.939   .     S
Zn877  O881    1.965   .     S
Zn877  O883    1.921   .     S
Zn877  O889    1.912   .     S
Zn878  O892    1.924   .     S
Zn878  O881    1.944   .     S
Zn878  O884    1.949   .     S
Zn878  O886    1.917   .     S
Zn879  O885    1.941   .     S
Zn879  O893    1.938   .     S
Zn879  O888    1.924   .     S
Zn879  O881    1.930   .     S
Zn880  O891    1.943   .     S
Zn880  O881    1.927   .     S
Zn880  O887    1.931   .     S
Zn880  O882    1.933   .     S
O882   C894    1.271   .     A
O883   C895    1.284   .     A
O884   C896    1.274   .     A
O885   C897    1.277   .     A
O886   C898    1.279   .     A
O887   C899    1.285   .     A
O888   C898    1.275   .     A
O889   C899    1.287   .     A
O890   C896    1.274   .     A
O891   C897    1.255   .     A
O892   C894    1.266   .     A
O893   C895    1.280   .     A
C894   C926    1.437   .     S
C895   C925    1.463   .     S
C896   C930    1.434   .     S
C897   C928    1.456   .     S
C898   C901    1.460   .     S
C899   C900    1.470   .     S
C900   C903    1.400   .     A
C900   C904    1.409   .     A
C901   C916    1.412   .     A
C901   C917    1.397   .     A
C902   C906    1.416   .     A
C902   N944    1.438   .     S
C902   C903    1.397   .     A
C903   H921    1.084   .     S
C904   N947    1.448   .     S
C904   C905    1.420   .     A
C905   C906    1.422   .     A
C905   C907    1.425   .     A
C906   C253    1.402   1_556 S
C907   C911    1.411   .     A
C907   C251    1.421   1_556 S
C908   C914    1.426   .     A
C908   C909    1.410   .     A
C909   C910    1.389   .     A
C909   H922    1.078   .     S
C910   H918    1.081   .     S
C911   H923    1.081   .     S
C911   C912    1.386   .     A
C912   H920    1.084   .     S
C912   C256    1.393   1_556 S
C913   C914    1.418   .     A
C913   C915    1.401   .     A
C914   C917    1.409   .     A
C915   H924    1.084   .     S
C915   C916    1.400   .     A
C916   N941    1.442   .     S
C917   H919    1.079   .     S
C925   C999    1.343   .     S
C925   N1004   1.446   .     S
C926   C1071   1.343   1_455 S
C926   H1073   1.086   1_455 S
H927   C999    1.086   .     S
C928   H1148   1.088   .     S
C928   C1149   1.354   .     S
N931   O932    1.301   .     A
N931   O933    1.302   .     A
N931   C1071   1.446   1_455 S
C934   H940    1.111   .     S
C934   H939    1.112   .     S
C934   C1149   1.531   .     S
C934   C1154   1.533   .     S
C935   H936    1.111   .     S
C935   H937    1.111   .     S
C935   H938    1.111   .     S
N941   O942    1.302   .     A
N941   O943    1.302   .     A
N944   O1091   1.301   1_455 S
N944   O289    1.301   1_556 S
O945   N1017   1.301   .     S
N947   O949    1.300   .     A
N947   O948    1.302   .     A
Zn950  O963    1.939   .     S
Zn950  O954    1.965   .     S
Zn950  O956    1.921   .     S
Zn950  O962    1.912   .     S
Zn951  O965    1.924   .     S
Zn951  O954    1.944   .     S
Zn951  O957    1.949   .     S
Zn951  O959    1.917   .     S
Zn952  O958    1.941   .     S
Zn952  O966    1.938   .     S
Zn952  O961    1.924   .     S
Zn952  O954    1.930   .     S
Zn953  O964    1.943   .     S
Zn953  O954    1.927   .     S
Zn953  O960    1.931   .     S
Zn953  O955    1.933   .     S
O955   C967    1.271   .     A
O956   C968    1.284   .     A
O957   C969    1.274   .     A
O958   C970    1.277   .     A
O959   C971    1.279   .     A
O960   C972    1.285   .     A
O961   C971    1.275   .     A
O962   C972    1.287   .     A
O963   C969    1.274   .     A
O964   C970    1.255   .     A
O965   C967    1.266   .     A
O966   C968    1.280   .     A
C967   C999    1.437   .     S
C968   C998    1.463   .     S
C969   C1003   1.434   .     S
C970   C1001   1.456   .     S
C971   C974    1.460   .     S
C972   C973    1.470   .     S
C973   C976    1.400   .     A
C973   C977    1.409   .     A
C974   C989    1.412   .     A
C974   C990    1.397   .     A
C975   C979    1.416   .     A
C975   N1017   1.438   .     S
C975   C976    1.397   .     A
C976   H994    1.084   .     S
C977   N1020   1.448   .     S
C977   C978    1.420   .     A
C978   C979    1.422   .     A
C978   C980    1.425   .     A
C979   C326    1.402   1_556 S
C980   C984    1.411   .     A
C980   C324    1.421   1_556 S
C981   C987    1.426   .     A
C981   C982    1.410   .     A
C982   C983    1.389   .     A
C982   H995    1.078   .     S
C983   H991    1.081   .     S
C984   H996    1.081   .     S
C984   C985    1.386   .     A
C985   H993    1.084   .     S
C985   C329    1.393   1_556 S
C986   C987    1.418   .     A
C986   C988    1.401   .     A
C987   C990    1.409   .     A
C988   H997    1.084   .     S
C988   C989    1.400   .     A
C989   N1014   1.442   .     S
C990   H992    1.079   .     S
C998   C1072   1.343   .     S
C998   N1077   1.446   .     S
H1000  C1072   1.086   .     S
C1001  H1221   1.088   .     S
C1001  C1222   1.354   .     S
N1004  O1005   1.301   .     A
N1004  O1006   1.302   .     A
C1007  H1013   1.111   .     S
C1007  H1012   1.112   .     S
C1007  C1222   1.531   .     S
C1007  C1227   1.533   .     S
C1008  H1009   1.111   .     S
C1008  H1010   1.111   .     S
C1008  H1011   1.111   .     S
N1014  O1015   1.302   .     A
N1014  O1016   1.302   .     A
N1017  O362    1.301   1_556 S
O1018  N1090   1.301   .     S
N1020  O1022   1.300   .     A
N1020  O1021   1.302   .     A
Zn1023 O1036   1.939   .     S
Zn1023 O1027   1.965   .     S
Zn1023 O1029   1.921   .     S
Zn1023 O1035   1.912   .     S
Zn1024 O1038   1.924   .     S
Zn1024 O1027   1.944   .     S
Zn1024 O1030   1.949   .     S
Zn1024 O1032   1.917   .     S
Zn1025 O1031   1.941   .     S
Zn1025 O1039   1.938   .     S
Zn1025 O1034   1.924   .     S
Zn1025 O1027   1.930   .     S
Zn1026 O1037   1.943   .     S
Zn1026 O1027   1.927   .     S
Zn1026 O1033   1.931   .     S
Zn1026 O1028   1.933   .     S
O1028  C1040   1.271   .     A
O1029  C1041   1.284   .     A
O1030  C1042   1.274   .     A
O1031  C1043   1.277   .     A
O1032  C1044   1.279   .     A
O1033  C1045   1.285   .     A
O1034  C1044   1.275   .     A
O1035  C1045   1.287   .     A
O1036  C1042   1.274   .     A
O1037  C1043   1.255   .     A
O1038  C1040   1.266   .     A
O1039  C1041   1.280   .     A
C1040  C1072   1.437   .     S
C1041  C1071   1.463   .     S
C1042  C1076   1.434   .     S
C1043  C1074   1.456   .     S
C1044  C1047   1.460   .     S
C1045  C1046   1.470   .     S
C1046  C1049   1.400   .     A
C1046  C1050   1.409   .     A
C1047  C1062   1.412   .     A
C1047  C1063   1.397   .     A
C1048  C1052   1.416   .     A
C1048  N1090   1.438   .     S
C1048  C1049   1.397   .     A
C1049  H1067   1.084   .     S
C1050  N1093   1.448   .     S
C1050  C1051   1.420   .     A
C1051  C1052   1.422   .     A
C1051  C1053   1.425   .     A
C1052  C399    1.402   1_556 S
C1053  C1057   1.411   .     A
C1053  C397    1.421   1_556 S
C1054  C1060   1.426   .     A
C1054  C1055   1.410   .     A
C1055  C1056   1.389   .     A
C1055  H1068   1.078   .     S
C1056  H1064   1.081   .     S
C1057  H1069   1.081   .     S
C1057  C1058   1.386   .     A
C1058  H1066   1.084   .     S
C1058  C402    1.393   1_556 S
C1059  C1060   1.418   .     A
C1059  C1061   1.401   .     A
C1060  C1063   1.409   .     A
C1061  H1070   1.084   .     S
C1061  C1062   1.400   .     A
C1062  N1087   1.442   .     S
C1063  H1065   1.079   .     S
C1071  C926    1.343   1_655 S
C1071  N931    1.446   1_655 S
H1073  C926    1.086   1_655 S
C1074  H1294   1.088   .     S
C1074  C1295   1.354   .     S
N1077  O1078   1.301   .     A
N1077  O1079   1.302   .     A
C1080  H1086   1.111   .     S
C1080  H1085   1.112   .     S
C1080  C1295   1.531   .     S
C1080  C1300   1.533   .     S
C1081  H1082   1.111   .     S
C1081  H1083   1.111   .     S
C1081  H1084   1.111   .     S
N1087  O1088   1.302   .     A
N1087  O1089   1.302   .     A
N1090  O435    1.301   1_556 S
O1091  N944    1.301   1_655 S
N1093  O1095   1.300   .     A
N1093  O1094   1.302   .     A
Zn1096 O1109   1.939   .     S
Zn1096 O1100   1.965   .     S
Zn1096 O1102   1.921   .     S
Zn1096 O1108   1.912   .     S
Zn1097 O1111   1.924   .     S
Zn1097 O1100   1.944   .     S
Zn1097 O1103   1.949   .     S
Zn1097 O1105   1.917   .     S
Zn1098 O1104   1.941   .     S
Zn1098 O1112   1.938   .     S
Zn1098 O1107   1.924   .     S
Zn1098 O1100   1.930   .     S
Zn1099 O1110   1.943   .     S
Zn1099 O1100   1.927   .     S
Zn1099 O1106   1.931   .     S
Zn1099 O1101   1.933   .     S
O1101  C1113   1.271   .     A
O1102  C1114   1.284   .     A
O1103  C1115   1.274   .     A
O1104  C1116   1.277   .     A
O1105  C1117   1.279   .     A
O1106  C1118   1.285   .     A
O1107  C1117   1.275   .     A
O1108  C1118   1.287   .     A
O1109  C1115   1.274   .     A
O1110  C1116   1.255   .     A
O1111  C1113   1.266   .     A
O1112  C1114   1.280   .     A
C1113  C1145   1.437   .     S
C1114  C1144   1.463   .     S
C1115  C1149   1.434   .     S
C1116  C1147   1.456   .     S
C1117  C1120   1.460   .     S
C1118  C1119   1.470   .     S
C1119  C1122   1.400   .     A
C1119  C1123   1.409   .     A
C1120  C1135   1.412   .     A
C1120  C1136   1.397   .     A
C1121  C1125   1.416   .     A
C1121  N1163   1.438   .     S
C1121  C1122   1.397   .     A
C1122  H1140   1.084   .     S
C1123  N1166   1.448   .     S
C1123  C1124   1.420   .     A
C1124  C1125   1.422   .     A
C1124  C1126   1.425   .     A
C1125  C472    1.402   1_556 S
C1126  C1130   1.411   .     A
C1126  C470    1.421   1_556 S
C1127  C1133   1.426   .     A
C1127  C1128   1.410   .     A
C1128  C1129   1.389   .     A
C1128  H1141   1.078   .     S
C1129  H1137   1.081   .     S
C1130  H1142   1.081   .     S
C1130  C1131   1.386   .     A
C1131  H1139   1.084   .     S
C1131  C475    1.393   1_556 S
C1132  C1133   1.418   .     A
C1132  C1134   1.401   .     A
C1133  C1136   1.409   .     A
C1134  H1143   1.084   .     S
C1134  C1135   1.400   .     A
C1135  N1160   1.442   .     S
C1136  H1138   1.079   .     S
C1144  C1218   1.343   .     S
C1144  N1223   1.446   .     S
C1145  C1290   1.343   1_455 S
C1145  H1292   1.086   1_455 S
H1146  C1218   1.086   .     S
C1147  H710    1.088   1_565 S
C1147  C711    1.354   1_565 S
N1150  O1151   1.301   .     A
N1150  O1152   1.302   .     A
N1150  C1290   1.446   1_455 S
C1153  H1159   1.111   .     S
C1153  H1158   1.112   .     S
C1153  C711    1.531   1_565 S
C1153  C716    1.533   1_565 S
C1154  H1155   1.111   .     S
C1154  H1156   1.111   .     S
C1154  H1157   1.111   .     S
N1160  O1161   1.302   .     A
N1160  O1162   1.302   .     A
N1163  O1310   1.301   1_455 S
N1163  O508    1.301   1_556 S
O1164  N1236   1.301   .     S
N1166  O1168   1.300   .     A
N1166  O1167   1.302   .     A
Zn1169 O1182   1.939   .     S
Zn1169 O1173   1.965   .     S
Zn1169 O1175   1.921   .     S
Zn1169 O1181   1.912   .     S
Zn1170 O1184   1.924   .     S
Zn1170 O1173   1.944   .     S
Zn1170 O1176   1.949   .     S
Zn1170 O1178   1.917   .     S
Zn1171 O1177   1.941   .     S
Zn1171 O1185   1.938   .     S
Zn1171 O1180   1.924   .     S
Zn1171 O1173   1.930   .     S
Zn1172 O1183   1.943   .     S
Zn1172 O1173   1.927   .     S
Zn1172 O1179   1.931   .     S
Zn1172 O1174   1.933   .     S
O1174  C1186   1.271   .     A
O1175  C1187   1.284   .     A
O1176  C1188   1.274   .     A
O1177  C1189   1.277   .     A
O1178  C1190   1.279   .     A
O1179  C1191   1.285   .     A
O1180  C1190   1.275   .     A
O1181  C1191   1.287   .     A
O1182  C1188   1.274   .     A
O1183  C1189   1.255   .     A
O1184  C1186   1.266   .     A
O1185  C1187   1.280   .     A
C1186  C1218   1.437   .     S
C1187  C1217   1.463   .     S
C1188  C1222   1.434   .     S
C1189  C1220   1.456   .     S
C1190  C1193   1.460   .     S
C1191  C1192   1.470   .     S
C1192  C1195   1.400   .     A
C1192  C1196   1.409   .     A
C1193  C1208   1.412   .     A
C1193  C1209   1.397   .     A
C1194  C1198   1.416   .     A
C1194  N1236   1.438   .     S
C1194  C1195   1.397   .     A
C1195  H1213   1.084   .     S
C1196  N1239   1.448   .     S
C1196  C1197   1.420   .     A
C1197  C1198   1.422   .     A
C1197  C1199   1.425   .     A
C1198  C545    1.402   1_556 S
C1199  C1203   1.411   .     A
C1199  C543    1.421   1_556 S
C1200  C1206   1.426   .     A
C1200  C1201   1.410   .     A
C1201  C1202   1.389   .     A
C1201  H1214   1.078   .     S
C1202  H1210   1.081   .     S
C1203  H1215   1.081   .     S
C1203  C1204   1.386   .     A
C1204  H1212   1.084   .     S
C1204  C548    1.393   1_556 S
C1205  C1206   1.418   .     A
C1205  C1207   1.401   .     A
C1206  C1209   1.409   .     A
C1207  H1216   1.084   .     S
C1207  C1208   1.400   .     A
C1208  N1233   1.442   .     S
C1209  H1211   1.079   .     S
C1217  C1291   1.343   .     S
C1217  N1296   1.446   .     S
H1219  C1291   1.086   .     S
C1220  H783    1.088   1_565 S
C1220  C784    1.354   1_565 S
N1223  O1224   1.301   .     A
N1223  O1225   1.302   .     A
C1226  H1232   1.111   .     S
C1226  H1231   1.112   .     S
C1226  C784    1.531   1_565 S
C1226  C789    1.533   1_565 S
C1227  H1228   1.111   .     S
C1227  H1229   1.111   .     S
C1227  H1230   1.111   .     S
N1233  O1234   1.302   .     A
N1233  O1235   1.302   .     A
N1236  O581    1.301   1_556 S
O1237  N1309   1.301   .     S
N1239  O1241   1.300   .     A
N1239  O1240   1.302   .     A
Zn1242 O1255   1.939   .     S
Zn1242 O1246   1.965   .     S
Zn1242 O1248   1.921   .     S
Zn1242 O1254   1.912   .     S
Zn1243 O1257   1.924   .     S
Zn1243 O1246   1.944   .     S
Zn1243 O1249   1.949   .     S
Zn1243 O1251   1.917   .     S
Zn1244 O1250   1.941   .     S
Zn1244 O1258   1.938   .     S
Zn1244 O1253   1.924   .     S
Zn1244 O1246   1.930   .     S
Zn1245 O1256   1.943   .     S
Zn1245 O1246   1.927   .     S
Zn1245 O1252   1.931   .     S
Zn1245 O1247   1.933   .     S
O1247  C1259   1.271   .     A
O1248  C1260   1.284   .     A
O1249  C1261   1.274   .     A
O1250  C1262   1.277   .     A
O1251  C1263   1.279   .     A
O1252  C1264   1.285   .     A
O1253  C1263   1.275   .     A
O1254  C1264   1.287   .     A
O1255  C1261   1.274   .     A
O1256  C1262   1.255   .     A
O1257  C1259   1.266   .     A
O1258  C1260   1.280   .     A
C1259  C1291   1.437   .     S
C1260  C1290   1.463   .     S
C1261  C1295   1.434   .     S
C1262  C1293   1.456   .     S
C1263  C1266   1.460   .     S
C1264  C1265   1.470   .     S
C1265  C1268   1.400   .     A
C1265  C1269   1.409   .     A
C1266  C1281   1.412   .     A
C1266  C1282   1.397   .     A
C1267  C1271   1.416   .     A
C1267  N1309   1.438   .     S
C1267  C1268   1.397   .     A
C1268  H1286   1.084   .     S
C1269  N1312   1.448   .     S
C1269  C1270   1.420   .     A
C1270  C1271   1.422   .     A
C1270  C1272   1.425   .     A
C1271  C618    1.402   1_556 S
C1272  C1276   1.411   .     A
C1272  C616    1.421   1_556 S
C1273  C1279   1.426   .     A
C1273  C1274   1.410   .     A
C1274  C1275   1.389   .     A
C1274  H1287   1.078   .     S
C1275  H1283   1.081   .     S
C1276  H1288   1.081   .     S
C1276  C1277   1.386   .     A
C1277  H1285   1.084   .     S
C1277  C621    1.393   1_556 S
C1278  C1279   1.418   .     A
C1278  C1280   1.401   .     A
C1279  C1282   1.409   .     A
C1280  H1289   1.084   .     S
C1280  C1281   1.400   .     A
C1281  N1306   1.442   .     S
C1282  H1284   1.079   .     S
C1290  C1145   1.343   1_655 S
C1290  N1150   1.446   1_655 S
H1292  C1145   1.086   1_655 S
C1293  H856    1.088   1_565 S
C1293  C857    1.354   1_565 S
N1296  O1297   1.301   .     A
N1296  O1298   1.302   .     A
C1299  H1305   1.111   .     S
C1299  H1304   1.112   .     S
C1299  C857    1.531   1_565 S
C1299  C862    1.533   1_565 S
C1300  H1301   1.111   .     S
C1300  H1302   1.111   .     S
C1300  H1303   1.111   .     S
N1306  O1307   1.302   .     A
N1306  O1308   1.302   .     A
N1309  O654    1.301   1_556 S
O1310  N1163   1.301   1_655 S
N1312  O1314   1.300   .     A
N1312  O1313   1.302   .     A
